0:0:0
     RDKit          3D

 46 49  0  0  1  0  0  0  0  0999 V2000
    6.7896    0.5974    5.7200 C   0  0  0  0  0  0  0  0  0  0  0  0
    5.7118   -0.5049    5.6945 C   0  0  0  0  0  0  0  0  0  0  0  0
    4.7188   -0.4691    4.5013 C   0  0  2  0  0  0  0  0  0  0  0  0
    5.4780   -0.4150    3.1611 C   0  0  0  0  0  0  0  0  0  0  0  0
    4.6533   -0.7976    1.9756 C   0  0  0  0  0  0  0  0  0  0  0  0
    3.4147   -0.3075    1.6539 C   0  0  0  0  0  0  0  0  0  0  0  0
    3.0152   -0.9202    0.4745 N   0  0  0  0  0  0  0  0  0  0  0  0
    3.9568   -1.8095    0.0154 C   0  0  0  0  0  0  0  0  0  0  0  0
    3.9931   -2.6613   -1.0998 C   0  0  0  0  0  0  0  0  0  0  0  0
    5.1144   -3.4754   -1.3305 C   0  0  0  0  0  0  0  0  0  0  0  0
    6.2000   -3.4151   -0.4350 C   0  0  0  0  0  0  0  0  0  0  0  0
    6.1511   -2.5604    0.6861 C   0  0  0  0  0  0  0  0  0  0  0  0
    5.0281   -1.7409    0.9515 C   0  0  0  0  0  0  0  0  0  0  0  0
    2.6098    0.7439    2.3594 C   0  0  1  0  0  0  0  0  0  0  0  0
    1.1739    0.9100    1.8547 C   0  0  0  0  0  0  0  0  0  0  0  0
    0.4606    1.6532    2.9841 C   0  0  1  0  0  0  0  0  0  0  0  0
   -0.8971    1.2334    3.0927 O   0  0  0  0  0  0  0  0  0  0  0  0
   -1.7143    2.1351    3.8357 C   0  0  0  0  0  0  0  0  0  0  0  0
    1.2782    1.3007    4.2367 C   0  0  0  0  0  0  0  0  0  0  0  0
    2.4413    0.4718    3.8057 N   0  0  2  0  0  0  0  0  0  0  0  0
    3.6564    0.6489    4.6581 C   0  0  0  0  0  0  0  0  0  0  0  0
    2.0916   -0.7692    0.0241 H   0  0  0  0  0  0  0  0  0  0  0  0
    7.4283    0.4872    6.5939 H   0  0  0  0  0  0  0  0  0  0  0  0
    6.3397    1.5872    5.7644 H   0  0  0  0  0  0  0  0  0  0  0  0
    7.4481    0.5589    4.8523 H   0  0  0  0  0  0  0  0  0  0  0  0
    6.2054   -1.4800    5.6910 H   0  0  0  0  0  0  0  0  0  0  0  0
    5.1620   -0.4871    6.6373 H   0  0  0  0  0  0  0  0  0  0  0  0
    4.2042   -1.4338    4.5369 H   0  0  0  0  0  0  0  0  0  0  0  0
    5.9435    0.5542    3.0116 H   0  0  0  0  0  0  0  0  0  0  0  0
    6.3168   -1.0971    3.2070 H   0  0  0  0  0  0  0  0  0  0  0  0
    3.1454   -2.6935   -1.7636 H   0  0  0  0  0  0  0  0  0  0  0  0
    5.1363   -4.1414   -2.1827 H   0  0  0  0  0  0  0  0  0  0  0  0
    7.0715   -4.0383   -0.5982 H   0  0  0  0  0  0  0  0  0  0  0  0
    6.9880   -2.5400    1.3663 H   0  0  0  0  0  0  0  0  0  0  0  0
    3.1153    1.7017    2.2618 H   0  0  0  0  0  0  0  0  0  0  0  0
    1.1099    1.4405    0.9003 H   0  0  0  0  0  0  0  0  0  0  0  0
    0.6994   -0.0611    1.7078 H   0  0  0  0  0  0  0  0  0  0  0  0
    0.5205    2.7269    2.7787 H   0  0  0  0  0  0  0  0  0  0  0  0
   -2.7243    1.7410    3.9450 H   0  0  0  0  0  0  0  0  0  0  0  0
   -1.8010    3.1009    3.3391 H   0  0  0  0  0  0  0  0  0  0  0  0
   -1.3288    2.2982    4.8411 H   0  0  0  0  0  0  0  0  0  0  0  0
    1.6080    2.2252    4.7188 H   0  0  0  0  0  0  0  0  0  0  0  0
    0.6881    0.7538    4.9685 H   0  0  0  0  0  0  0  0  0  0  0  0
    3.3132    0.6288    5.6943 H   0  0  0  0  0  0  0  0  0  0  0  0
    4.0989    1.6332    4.5102 H   0  0  0  0  0  0  0  0  0  0  0  0
    2.1501   -0.4935    3.8717 H   0  0  0  0  0  0  0  0  0  0  0  0
  1  2  1  0
  1 23  1  0
  1 24  1  0
  1 25  1  0
  2  3  1  0
  2 26  1  0
  2 27  1  0
  3 21  1  0
  3  4  1  0
  3 28  1  6
  4  5  1  0
  4 29  1  0
  4 30  1  0
  5 13  1  0
  5  6  2  0
  6  7  1  0
  6 14  1  0
  7 22  1  0
  7  8  1  0
  8 13  2  0
  8  9  1  0
  9 10  2  0
  9 31  1  0
 10 11  1  0
 10 32  1  0
 11 12  2  0
 11 33  1  0
 12 13  1  0
 12 34  1  0
 14 20  1  0
 14 15  1  0
 14 35  1  1
 15 16  1  0
 15 36  1  0
 15 37  1  0
 16 17  1  0
 16 19  1  0
 16 38  1  6
 17 18  1  0
 18 39  1  0
 18 40  1  0
 18 41  1  0
 19 20  1  0
 19 42  1  0
 19 43  1  0
 20 21  1  0
 20 46  1  6
 21 44  1  0
 21 45  1  0
M  CHG  1  20   1
M  END
>  <i_m_ct_stereo_status>  (1) 
1

>  <s_m_source_file>  (1) 
/var/tmp/pbs.5076255.sched01/tmpokz5906q/0mijyat0o.sdf

>  <i_m_source_file_index>  (1) 
1

>  <i_lp_mmshare_version>  (1) 
48012

>  <i_f3d_flags>  (1) 
0

>  <s_epik_input>  (1) 
W0NIM11bQ0gyXVtDQEhdKFtDSDJdMSlbQ0gyXU4oW0NIMl1bQ0BASF0oW0NIMl0yKU9bQ0gzXSlbQ0BIXTJjKGMxMylbbkhdYzRjM1tjSF1bY0hdW2NIXVtjSF00

>  <s_epik_cmdline>  (1) 
J2VwaWtfcHl0aG9uJywgJy1waHQnLCAnMi4wJywgJy1waCcsICc3LjAnLCAnLXRuJywgJzgnLCAnLW1hJywgJzIwMCcsICctaW1hZScsICc8aW5maWxlLm1hZT4nLCAnLW9tYWUnLCAnPG91dGZpbGUubWFlPic=

>  <r_epik_Ionization_Penalty>  (1) 
0.0261623

>  <r_epik_Ionization_Penalty_Charging>  (1) 
0.0261623

>  <r_epik_Ionization_Penalty_Neutral>  (1) 
6.43893e-09

>  <r_epik_State_Penalty>  (1) 
0.0213406

>  <r_epik_Charging_Adjusted_Penalty>  (1) 
0.0475029

>  <i_epik_Tot_Q>  (1) 
1

>  <i_epik_Tot_abs_Q>  (1) 
1

>  <s_lp_Force_Field>  (1) 
OPLS3e

>  <r_lp_Energy>  (1) 
25.7919

>  <b_lp_Chiralities_Consistent>  (1) 
1

>  <s_lp_Variant>  (1) 
0:0-1

>  <s_i_glide_gridfile>  (1) 
pfpi4k_grid

>  <i_i_glide_lignum>  (1) 
1

>  <i_i_glide_rotatable_bonds>  (1) 
2

>  <r_i_docking_score>  (1) 
-4.49735

>  <r_i_glide_ligand_efficiency>  (1) 
-0.21416

>  <r_i_glide_ligand_efficiency_sa>  (1) 
-0.59085

>  <r_i_glide_ligand_efficiency_ln>  (1) 
-1.11196

>  <r_i_glide_gscore>  (1) 
-4.49735

>  <r_i_glide_lipo>  (1) 
-0.819991

>  <r_i_glide_hbond>  (1) 
-0.16

>  <r_i_glide_metal>  (1) 
-0

>  <r_i_glide_rewards>  (1) 
-1.46316

>  <r_i_glide_evdw>  (1) 
-18.9413

>  <r_i_glide_ecoul>  (1) 
-6.81953

>  <r_i_glide_erotb>  (1) 
0

>  <r_i_glide_esite>  (1) 
-0.0842143

>  <r_i_glide_emodel>  (1) 
-34.8322

>  <r_i_glide_energy>  (1) 
-25.7608

>  <r_i_glide_einternal>  (1) 
1.0951

>  <r_i_glide_intrahb_reward>  (1) 
-0

>  <i_i_glide_confnum>  (1) 
1

>  <i_i_glide_posenum>  (1) 
35

>  <r_i_glide_eff_state_penalty>  (1) 
0

>  <ligand_id>  (1) 
0

>  <original_smiles>  (1) 
CCC1Cc2c([nH]c3ccccc23)C2CC(OC)CN2C1

>  <smiles>  (1) 
[H]c1c([H])c([H])c2c(c1[H])c1c(n2[H])C2([H])C([H])([H])C([H])(OC([H])([H])[H])C([H])([H])[N+]2([H])C([H])([H])C([H])(C([H])([H])C([H])([H])[H])C1([H])[H]

$$$$
0:0:1
     RDKit          3D

 46 49  0  0  1  0  0  0  0  0999 V2000
    5.6419   -1.5687    6.6184 C   0  0  0  0  0  0  0  0  0  0  0  0
    5.0894   -0.2217    6.1250 C   0  0  0  0  0  0  0  0  0  0  0  0
    4.1488   -0.3287    4.8928 C   0  0  2  0  0  0  0  0  0  0  0  0
    4.9863   -0.4767    3.6035 C   0  0  0  0  0  0  0  0  0  0  0  0
    4.1899   -0.9871    2.4397 C   0  0  0  0  0  0  0  0  0  0  0  0
    3.0014   -0.4774    1.9798 C   0  0  0  0  0  0  0  0  0  0  0  0
    2.6140   -1.2309    0.8777 N   0  0  0  0  0  0  0  0  0  0  0  0
    3.5219   -2.2283    0.6079 C   0  0  0  0  0  0  0  0  0  0  0  0
    3.5541   -3.2359   -0.3782 C   0  0  0  0  0  0  0  0  0  0  0  0
    4.6319   -4.1444   -0.4331 C   0  0  0  0  0  0  0  0  0  0  0  0
    5.6718   -4.0206    0.5078 C   0  0  0  0  0  0  0  0  0  0  0  0
    5.6253   -3.0081    1.4921 C   0  0  0  0  0  0  0  0  0  0  0  0
    4.5460   -2.0904    1.5809 C   0  0  0  0  0  0  0  0  0  0  0  0
    2.2329    0.7109    2.4805 C   0  0  1  0  0  0  0  0  0  0  0  0
    0.8392    0.8918    1.8764 C   0  0  0  0  0  0  0  0  0  0  0  0
    0.1178    1.8290    2.8305 C   0  0  1  0  0  0  0  0  0  0  0  0
   -1.2642    1.5081    2.9142 O   0  0  0  0  0  0  0  0  0  0  0  0
   -2.0623    2.5228    3.5165 C   0  0  0  0  0  0  0  0  0  0  0  0
    0.8502    1.6130    4.1658 C   0  0  0  0  0  0  0  0  0  0  0  0
    1.9739    0.6628    3.9308 N   0  0  2  0  0  0  0  0  0  0  0  0
    3.1590    0.8735    4.8177 C   0  0  0  0  0  0  0  0  0  0  0  0
    1.7825   -1.0551    0.2936 H   0  0  0  0  0  0  0  0  0  0  0  0
    6.2797   -1.4312    7.4892 H   0  0  0  0  0  0  0  0  0  0  0  0
    6.2368   -2.0802    5.8687 H   0  0  0  0  0  0  0  0  0  0  0  0
    4.8455   -2.2508    6.9095 H   0  0  0  0  0  0  0  0  0  0  0  0
    4.5571    0.2212    6.9647 H   0  0  0  0  0  0  0  0  0  0  0  0
    5.9191    0.4537    5.9098 H   0  0  0  0  0  0  0  0  0  0  0  0
    3.5560   -1.2381    5.0261 H   0  0  0  0  0  0  0  0  0  0  0  0
    5.5121    0.4497    3.3528 H   0  0  0  0  0  0  0  0  0  0  0  0
    5.7761   -1.1961    3.7950 H   0  0  0  0  0  0  0  0  0  0  0  0
    2.7544   -3.3074   -1.0945 H   0  0  0  0  0  0  0  0  0  0  0  0
    4.6531   -4.9170   -1.1893 H   0  0  0  0  0  0  0  0  0  0  0  0
    6.5066   -4.7104    0.4819 H   0  0  0  0  0  0  0  0  0  0  0  0
    6.4261   -2.9314    2.2002 H   0  0  0  0  0  0  0  0  0  0  0  0
    2.8134    1.6119    2.2689 H   0  0  0  0  0  0  0  0  0  0  0  0
    0.8702    1.3051    0.8830 H   0  0  0  0  0  0  0  0  0  0  0  0
    0.3133   -0.0588    1.8157 H   0  0  0  0  0  0  0  0  0  0  0  0
    0.2522    2.8544    2.4901 H   0  0  0  0  0  0  0  0  0  0  0  0
   -3.0997    2.2017    3.6105 H   0  0  0  0  0  0  0  0  0  0  0  0
   -2.0622    3.4385    2.9272 H   0  0  0  0  0  0  0  0  0  0  0  0
   -1.7164    2.7679    4.5182 H   0  0  0  0  0  0  0  0  0  0  0  0
    1.2096    2.5773    4.5295 H   0  0  0  0  0  0  0  0  0  0  0  0
    0.1880    1.2179    4.9301 H   0  0  0  0  0  0  0  0  0  0  0  0
    2.7517    1.0322    5.8148 H   0  0  0  0  0  0  0  0  0  0  0  0
    3.6736    1.8044    4.5640 H   0  0  0  0  0  0  0  0  0  0  0  0
    1.6095   -0.2668    4.1145 H   0  0  0  0  0  0  0  0  0  0  0  0
  1  2  1  0
  1 23  1  0
  1 24  1  0
  1 25  1  0
  2  3  1  0
  2 26  1  0
  2 27  1  0
  3 21  1  0
  3  4  1  0
  3 28  1  1
  4  5  1  0
  4 29  1  0
  4 30  1  0
  5 13  1  0
  5  6  2  0
  6  7  1  0
  6 14  1  0
  7 22  1  0
  7  8  1  0
  8 13  2  0
  8  9  1  0
  9 10  2  0
  9 31  1  0
 10 11  1  0
 10 32  1  0
 11 12  2  0
 11 33  1  0
 12 13  1  0
 12 34  1  0
 14 20  1  0
 14 15  1  0
 14 35  1  1
 15 16  1  0
 15 36  1  0
 15 37  1  0
 16 17  1  0
 16 19  1  0
 16 38  1  6
 17 18  1  0
 18 39  1  0
 18 40  1  0
 18 41  1  0
 19 20  1  0
 19 42  1  0
 19 43  1  0
 20 21  1  0
 20 46  1  6
 21 44  1  0
 21 45  1  0
M  CHG  1  20   1
M  END
>  <i_m_ct_stereo_status>  (2) 
1

>  <s_m_source_file>  (2) 
/var/tmp/pbs.5076255.sched01/tmpokz5906q/0mijyat0o.sdf

>  <i_m_source_file_index>  (2) 
1

>  <i_lp_mmshare_version>  (2) 
48012

>  <i_f3d_flags>  (2) 
0

>  <s_epik_input>  (2) 
W0NIM11bQ0gyXVtDQEhdKFtDSDJdMSlbQ0gyXU4oW0NIMl1bQ0BASF0oW0NIMl0yKU9bQ0gzXSlbQ0BIXTJjKGMxMylbbkhdYzRjM1tjSF1bY0hdW2NIXVtjSF00

>  <s_epik_cmdline>  (2) 
J2VwaWtfcHl0aG9uJywgJy1waHQnLCAnMi4wJywgJy1waCcsICc3LjAnLCAnLXRuJywgJzgnLCAnLW1hJywgJzIwMCcsICctaW1hZScsICc8aW5maWxlLm1hZT4nLCAnLW9tYWUnLCAnPG91dGZpbGUubWFlPic=

>  <r_epik_Ionization_Penalty>  (2) 
0.0261623

>  <r_epik_Ionization_Penalty_Charging>  (2) 
0.0261623

>  <r_epik_Ionization_Penalty_Neutral>  (2) 
6.43893e-09

>  <r_epik_State_Penalty>  (2) 
0.0213406

>  <r_epik_Charging_Adjusted_Penalty>  (2) 
0.0475029

>  <i_epik_Tot_Q>  (2) 
1

>  <i_epik_Tot_abs_Q>  (2) 
1

>  <s_lp_Force_Field>  (2) 
OPLS3e

>  <r_lp_Energy>  (2) 
25.7919

>  <b_lp_Chiralities_Consistent>  (2) 
1

>  <s_lp_Variant>  (2) 
0:0-1

>  <s_i_glide_gridfile>  (2) 
pfpi4k_grid

>  <i_i_glide_lignum>  (2) 
1

>  <i_i_glide_rotatable_bonds>  (2) 
2

>  <r_i_docking_score>  (2) 
-4.03451

>  <r_i_glide_ligand_efficiency>  (2) 
-0.19212

>  <r_i_glide_ligand_efficiency_sa>  (2) 
-0.530043

>  <r_i_glide_ligand_efficiency_ln>  (2) 
-0.997525

>  <r_i_glide_gscore>  (2) 
-4.03451

>  <r_i_glide_lipo>  (2) 
-0.365081

>  <r_i_glide_hbond>  (2) 
-0.153904

>  <r_i_glide_metal>  (2) 
-0

>  <r_i_glide_rewards>  (2) 
-1.46316

>  <r_i_glide_evdw>  (2) 
-16.0628

>  <r_i_glide_ecoul>  (2) 
-7.91309

>  <r_i_glide_erotb>  (2) 
0

>  <r_i_glide_esite>  (2) 
-0.0622664

>  <r_i_glide_emodel>  (2) 
-32.216

>  <r_i_glide_energy>  (2) 
-23.9759

>  <r_i_glide_einternal>  (2) 
0.826012

>  <r_i_glide_intrahb_reward>  (2) 
-0

>  <i_i_glide_confnum>  (2) 
2

>  <i_i_glide_posenum>  (2) 
40

>  <r_i_glide_eff_state_penalty>  (2) 
0

>  <ligand_id>  (2) 
0

>  <original_smiles>  (2) 
CCC1Cc2c([nH]c3ccccc23)C2CC(OC)CN2C1

>  <smiles>  (2) 
[H]c1c([H])c([H])c2c(c1[H])c1c(n2[H])C2([H])C([H])([H])C([H])(OC([H])([H])[H])C([H])([H])[N+]2([H])C([H])([H])C([H])(C([H])([H])C([H])([H])[H])C1([H])[H]

$$$$
0:0:2
     RDKit          3D

 46 49  0  0  1  0  0  0  0  0999 V2000
    1.4726   -0.2415    4.6084 C   0  0  0  0  0  0  0  0  0  0  0  0
    2.6868   -0.2341    3.6559 C   0  0  0  0  0  0  0  0  0  0  0  0
    2.6832   -1.3622    2.5853 C   0  0  2  0  0  0  0  0  0  0  0  0
    3.0132   -2.7209    3.2558 C   0  0  0  0  0  0  0  0  0  0  0  0
    2.6400   -3.9043    2.4195 C   0  0  0  0  0  0  0  0  0  0  0  0
    2.9902   -4.1071    1.1116 C   0  0  0  0  0  0  0  0  0  0  0  0
    2.4504   -5.3131    0.6902 N   0  0  0  0  0  0  0  0  0  0  0  0
    1.7435   -5.9224    1.7126 C   0  0  0  0  0  0  0  0  0  0  0  0
    1.0148   -7.1234    1.7806 C   0  0  0  0  0  0  0  0  0  0  0  0
    0.3829   -7.4896    2.9815 C   0  0  0  0  0  0  0  0  0  0  0  0
    0.4842   -6.6461    4.1036 C   0  0  0  0  0  0  0  0  0  0  0  0
    1.2107   -5.4428    4.0231 C   0  0  0  0  0  0  0  0  0  0  0  0
    1.8534   -5.0435    2.8246 C   0  0  0  0  0  0  0  0  0  0  0  0
    3.8504   -3.2532    0.2342 C   0  0  1  0  0  0  0  0  0  0  0  0
    3.8916   -3.6960   -1.2251 C   0  0  0  0  0  0  0  0  0  0  0  0
    4.4031   -2.4771   -1.9881 C   0  0  1  0  0  0  0  0  0  0  0  0
    3.7801   -2.3092   -3.2602 O   0  0  0  0  0  0  0  0  0  0  0  0
    3.8521   -3.4261   -4.1374 C   0  0  0  0  0  0  0  0  0  0  0  0
    4.0517   -1.2997   -1.0632 C   0  0  0  0  0  0  0  0  0  0  0  0
    3.4151   -1.8408    0.1663 N   0  0  2  0  0  0  0  0  0  0  0  0
    3.6426   -1.0287    1.3995 C   0  0  0  0  0  0  0  0  0  0  0  0
    2.6037   -5.6831   -0.2381 H   0  0  0  0  0  0  0  0  0  0  0  0
    1.5286    0.5958    5.3023 H   0  0  0  0  0  0  0  0  0  0  0  0
    1.4135   -1.1443    5.2123 H   0  0  0  0  0  0  0  0  0  0  0  0
    0.5406   -0.1436    4.0550 H   0  0  0  0  0  0  0  0  0  0  0  0
    2.6968    0.7401    3.1622 H   0  0  0  0  0  0  0  0  0  0  0  0
    3.6090   -0.2753    4.2422 H   0  0  0  0  0  0  0  0  0  0  0  0
    1.6661   -1.4074    2.1896 H   0  0  0  0  0  0  0  0  0  0  0  0
    4.0619   -2.7644    3.5590 H   0  0  0  0  0  0  0  0  0  0  0  0
    2.4578   -2.7999    4.1889 H   0  0  0  0  0  0  0  0  0  0  0  0
    0.9514   -7.7683    0.9201 H   0  0  0  0  0  0  0  0  0  0  0  0
   -0.1631   -8.4198    3.0438 H   0  0  0  0  0  0  0  0  0  0  0  0
    0.0154   -6.9314    5.0344 H   0  0  0  0  0  0  0  0  0  0  0  0
    1.2869   -4.8096    4.8925 H   0  0  0  0  0  0  0  0  0  0  0  0
    4.8700   -3.2670    0.6138 H   0  0  0  0  0  0  0  0  0  0  0  0
    4.5195   -4.5724   -1.3969 H   0  0  0  0  0  0  0  0  0  0  0  0
    2.8724   -3.9047   -1.5529 H   0  0  0  0  0  0  0  0  0  0  0  0
    5.4867   -2.5275   -2.1091 H   0  0  0  0  0  0  0  0  0  0  0  0
    3.4190   -3.1509   -5.0960 H   0  0  0  0  0  0  0  0  0  0  0  0
    3.2609   -4.2534   -3.7817 H   0  0  0  0  0  0  0  0  0  0  0  0
    4.8726   -3.7715   -4.2996 H   0  0  0  0  0  0  0  0  0  0  0  0
    4.9433   -0.7088   -0.8311 H   0  0  0  0  0  0  0  0  0  0  0  0
    3.3275   -0.6784   -1.5831 H   0  0  0  0  0  0  0  0  0  0  0  0
    3.4818    0.0116    1.1164 H   0  0  0  0  0  0  0  0  0  0  0  0
    4.6830   -1.0940    1.7129 H   0  0  0  0  0  0  0  0  0  0  0  0
    2.4177   -1.8191   -0.0318 H   0  0  0  0  0  0  0  0  0  0  0  0
  1  2  1  0
  1 23  1  0
  1 24  1  0
  1 25  1  0
  2  3  1  0
  2 26  1  0
  2 27  1  0
  3 21  1  0
  3  4  1  0
  3 28  1  6
  4  5  1  0
  4 29  1  0
  4 30  1  0
  5 13  1  0
  5  6  2  0
  6  7  1  0
  6 14  1  0
  7 22  1  0
  7  8  1  0
  8 13  2  0
  8  9  1  0
  9 10  2  0
  9 31  1  0
 10 11  1  0
 10 32  1  0
 11 12  2  0
 11 33  1  0
 12 13  1  0
 12 34  1  0
 14 20  1  0
 14 15  1  0
 14 35  1  1
 15 16  1  0
 15 36  1  0
 15 37  1  0
 16 17  1  0
 16 19  1  0
 16 38  1  6
 17 18  1  0
 18 39  1  0
 18 40  1  0
 18 41  1  0
 19 20  1  0
 19 42  1  0
 19 43  1  0
 20 21  1  0
 20 46  1  6
 21 44  1  0
 21 45  1  0
M  CHG  1  20   1
M  END
>  <i_m_ct_stereo_status>  (3) 
1

>  <s_m_source_file>  (3) 
/var/tmp/pbs.5076255.sched01/tmpokz5906q/0mijyat0o.sdf

>  <i_m_source_file_index>  (3) 
1

>  <i_lp_mmshare_version>  (3) 
48012

>  <i_f3d_flags>  (3) 
0

>  <s_epik_input>  (3) 
W0NIM11bQ0gyXVtDQEhdKFtDSDJdMSlbQ0gyXU4oW0NIMl1bQ0BASF0oW0NIMl0yKU9bQ0gzXSlbQ0BIXTJjKGMxMylbbkhdYzRjM1tjSF1bY0hdW2NIXVtjSF00

>  <s_epik_cmdline>  (3) 
J2VwaWtfcHl0aG9uJywgJy1waHQnLCAnMi4wJywgJy1waCcsICc3LjAnLCAnLXRuJywgJzgnLCAnLW1hJywgJzIwMCcsICctaW1hZScsICc8aW5maWxlLm1hZT4nLCAnLW9tYWUnLCAnPG91dGZpbGUubWFlPic=

>  <r_epik_Ionization_Penalty>  (3) 
0.0261623

>  <r_epik_Ionization_Penalty_Charging>  (3) 
0.0261623

>  <r_epik_Ionization_Penalty_Neutral>  (3) 
6.43893e-09

>  <r_epik_State_Penalty>  (3) 
0.0213406

>  <r_epik_Charging_Adjusted_Penalty>  (3) 
0.0475029

>  <i_epik_Tot_Q>  (3) 
1

>  <i_epik_Tot_abs_Q>  (3) 
1

>  <s_lp_Force_Field>  (3) 
OPLS3e

>  <r_lp_Energy>  (3) 
25.7919

>  <b_lp_Chiralities_Consistent>  (3) 
1

>  <s_lp_Variant>  (3) 
0:0-1

>  <s_i_glide_gridfile>  (3) 
pfpi4k_grid

>  <i_i_glide_lignum>  (3) 
1

>  <i_i_glide_rotatable_bonds>  (3) 
2

>  <r_i_docking_score>  (3) 
-3.57101

>  <r_i_glide_ligand_efficiency>  (3) 
-0.170048

>  <r_i_glide_ligand_efficiency_sa>  (3) 
-0.46915

>  <r_i_glide_ligand_efficiency_ln>  (3) 
-0.882925

>  <r_i_glide_gscore>  (3) 
-3.57101

>  <r_i_glide_lipo>  (3) 
-0.00440295

>  <r_i_glide_hbond>  (3) 
-0.21728

>  <r_i_glide_metal>  (3) 
-0

>  <r_i_glide_rewards>  (3) 
-1.46316

>  <r_i_glide_evdw>  (3) 
-19.7888

>  <r_i_glide_ecoul>  (3) 
-5.2345

>  <r_i_glide_erotb>  (3) 
0

>  <r_i_glide_esite>  (3) 
-0.11156

>  <r_i_glide_emodel>  (3) 
-32.0166

>  <r_i_glide_energy>  (3) 
-25.0233

>  <r_i_glide_einternal>  (3) 
0.987059

>  <r_i_glide_intrahb_reward>  (3) 
-0

>  <i_i_glide_confnum>  (3) 
1

>  <i_i_glide_posenum>  (3) 
1

>  <r_i_glide_eff_state_penalty>  (3) 
0

>  <ligand_id>  (3) 
0

>  <original_smiles>  (3) 
CCC1Cc2c([nH]c3ccccc23)C2CC(OC)CN2C1

>  <smiles>  (3) 
[H]c1c([H])c([H])c2c(c1[H])c1c(n2[H])C2([H])C([H])([H])C([H])(OC([H])([H])[H])C([H])([H])[N+]2([H])C([H])([H])C([H])(C([H])([H])C([H])([H])[H])C1([H])[H]

$$$$
0:1:0
     RDKit          3D

 45 48  0  0  1  0  0  0  0  0999 V2000
    2.3739   -3.0117    3.6942 C   0  0  0  0  0  0  0  0  0  0  0  0
    3.8683   -3.1659    4.1120 C   0  0  0  0  0  0  0  0  0  0  0  0
    4.9150   -2.1198    3.6061 C   0  0  2  0  0  0  0  0  0  0  0  0
    4.5765   -0.6310    3.7947 C   0  0  0  0  0  0  0  0  0  0  0  0
    3.4763   -0.1242    2.8968 C   0  0  0  0  0  0  0  0  0  0  0  0
    3.1501   -0.5665    1.6518 C   0  0  0  0  0  0  0  0  0  0  0  0
    1.9758    0.0663    1.2760 N   0  0  0  0  0  0  0  0  0  0  0  0
    1.5200    0.9254    2.2420 C   0  0  0  0  0  0  0  0  0  0  0  0
    0.3878    1.7465    2.3066 C   0  0  0  0  0  0  0  0  0  0  0  0
    0.1502    2.5242    3.4621 C   0  0  0  0  0  0  0  0  0  0  0  0
    1.0469    2.4117    4.5571 C   0  0  0  0  0  0  0  0  0  0  0  0
    2.1707    1.5527    4.4663 C   0  0  0  0  0  0  0  0  0  0  0  0
    2.4521    0.8080    3.3006 C   0  0  0  0  0  0  0  0  0  0  0  0
    3.7046   -1.6067    0.6996 C   0  0  1  0  0  0  0  0  0  0  0  0
    4.4441   -1.0544   -0.5061 C   0  0  0  0  0  0  0  0  0  0  0  0
    5.2614   -2.2473   -1.0194 C   0  0  1  0  0  0  0  0  0  0  0  0
    6.6305   -1.8591   -1.1176 O   0  0  0  0  0  0  0  0  0  0  0  0
    7.4605   -2.8425   -1.7157 C   0  0  0  0  0  0  0  0  0  0  0  0
    5.0120   -3.3548    0.0275 C   0  0  0  0  0  0  0  0  0  0  0  0
    4.4474   -2.7303    1.2213 N   0  0  0  0  0  0  0  0  0  0  0  0
    5.5018   -2.4131    2.1951 C   0  0  0  0  0  0  0  0  0  0  0  0
    1.4719   -0.2184    0.4226 H   0  0  0  0  0  0  0  0  0  0  0  0
    1.7348   -3.8180    4.0446 H   0  0  0  0  0  0  0  0  0  0  0  0
    2.2640   -3.0213    2.6127 H   0  0  0  0  0  0  0  0  0  0  0  0
    1.9605   -2.0820    4.0813 H   0  0  0  0  0  0  0  0  0  0  0  0
    3.8869   -3.1575    5.2076 H   0  0  0  0  0  0  0  0  0  0  0  0
    4.2118   -4.1646    3.8298 H   0  0  0  0  0  0  0  0  0  0  0  0
    5.7740   -2.2566    4.2686 H   0  0  0  0  0  0  0  0  0  0  0  0
    4.2411   -0.5117    4.8234 H   0  0  0  0  0  0  0  0  0  0  0  0
    5.4652   -0.0057    3.6988 H   0  0  0  0  0  0  0  0  0  0  0  0
   -0.2667    1.8205    1.4592 H   0  0  0  0  0  0  0  0  0  0  0  0
   -0.6709    3.2202    3.4817 H   0  0  0  0  0  0  0  0  0  0  0  0
    0.8989    3.0077    5.4354 H   0  0  0  0  0  0  0  0  0  0  0  0
    2.8343    1.4495    5.3082 H   0  0  0  0  0  0  0  0  0  0  0  0
    2.8170   -2.0604    0.2595 H   0  0  0  0  0  0  0  0  0  0  0  0
    3.7442   -0.6612   -1.2398 H   0  0  0  0  0  0  0  0  0  0  0  0
    5.1150   -0.2542   -0.1910 H   0  0  0  0  0  0  0  0  0  0  0  0
    4.8853   -2.5728   -1.9929 H   0  0  0  0  0  0  0  0  0  0  0  0
    8.4697   -2.4468   -1.7915 H   0  0  0  0  0  0  0  0  0  0  0  0
    7.1097   -3.1179   -2.7097 H   0  0  0  0  0  0  0  0  0  0  0  0
    7.5263   -3.7434   -1.1128 H   0  0  0  0  0  0  0  0  0  0  0  0
    4.2287   -3.9871   -0.3977 H   0  0  0  0  0  0  0  0  0  0  0  0
    5.8494   -4.0018    0.2526 H   0  0  0  0  0  0  0  0  0  0  0  0
    6.1070   -1.5822    1.8500 H   0  0  0  0  0  0  0  0  0  0  0  0
    6.1928   -3.2524    2.2863 H   0  0  0  0  0  0  0  0  0  0  0  0
  1  2  1  0
  1 23  1  0
  1 24  1  0
  1 25  1  0
  2  3  1  0
  2 26  1  0
  2 27  1  0
  3 21  1  0
  3  4  1  0
  3 28  1  1
  4  5  1  0
  4 29  1  0
  4 30  1  0
  5 13  1  0
  5  6  2  0
  6  7  1  0
  6 14  1  0
  7 22  1  0
  7  8  1  0
  8 13  2  0
  8  9  1  0
  9 10  2  0
  9 31  1  0
 10 11  1  0
 10 32  1  0
 11 12  2  0
 11 33  1  0
 12 13  1  0
 12 34  1  0
 14 20  1  0
 14 15  1  0
 14 35  1  6
 15 16  1  0
 15 36  1  0
 15 37  1  0
 16 17  1  0
 16 19  1  0
 16 38  1  6
 17 18  1  0
 18 39  1  0
 18 40  1  0
 18 41  1  0
 19 20  1  0
 19 42  1  0
 19 43  1  0
 20 21  1  0
 21 44  1  0
 21 45  1  0
M  END
>  <i_m_ct_stereo_status>  (4) 
1

>  <s_m_source_file>  (4) 
/var/tmp/pbs.5076255.sched01/tmpokz5906q/0mijyat0o.sdf

>  <i_m_source_file_index>  (4) 
2

>  <i_lp_mmshare_version>  (4) 
48012

>  <i_f3d_flags>  (4) 
0

>  <s_epik_input>  (4) 
W0NIM11bQ0gyXVtDQEhdKFtDSDJdMSlbQ0gyXU4oW0NIMl1bQ0BASF0oW0NIMl0yKU9bQ0gzXSlbQ0BIXTJjKGMxMylbbkhdYzRjM1tjSF1bY0hdW2NIXVtjSF00

>  <s_epik_cmdline>  (4) 
J2VwaWtfcHl0aG9uJywgJy1waHQnLCAnMi4wJywgJy1waCcsICc3LjAnLCAnLXRuJywgJzgnLCAnLW1hJywgJzIwMCcsICctaW1hZScsICc8aW5maWxlLm1hZT4nLCAnLW9tYWUnLCAnPG91dGZpbGUubWFlPic=

>  <r_epik_Ionization_Penalty>  (4) 
1.86159

>  <r_epik_Ionization_Penalty_Charging>  (4) 
0

>  <r_epik_Ionization_Penalty_Neutral>  (4) 
1.86159

>  <r_epik_State_Penalty>  (4) 
1.97989

>  <r_epik_Charging_Adjusted_Penalty>  (4) 
1.97989

>  <i_epik_Tot_Q>  (4) 
0

>  <i_epik_Tot_abs_Q>  (4) 
0

>  <s_lp_Force_Field>  (4) 
OPLS3e

>  <r_lp_Energy>  (4) 
33.2704

>  <b_lp_Chiralities_Consistent>  (4) 
1

>  <s_lp_Variant>  (4) 
0:0-2

>  <s_i_glide_gridfile>  (4) 
pfpi4k_grid

>  <i_i_glide_lignum>  (4) 
2

>  <i_i_glide_rotatable_bonds>  (4) 
2

>  <r_i_docking_score>  (4) 
-3.95364

>  <r_i_glide_ligand_efficiency>  (4) 
-0.188268

>  <r_i_glide_ligand_efficiency_sa>  (4) 
-0.519418

>  <r_i_glide_ligand_efficiency_ln>  (4) 
-0.977529

>  <r_i_glide_gscore>  (4) 
-3.95364

>  <r_i_glide_lipo>  (4) 
-0.20625

>  <r_i_glide_hbond>  (4) 
-0.32

>  <r_i_glide_metal>  (4) 
-0

>  <r_i_glide_rewards>  (4) 
-1.47003

>  <r_i_glide_evdw>  (4) 
-17.1867

>  <r_i_glide_ecoul>  (4) 
-6.77001

>  <r_i_glide_erotb>  (4) 
0

>  <r_i_glide_esite>  (4) 
-0.0825232

>  <r_i_glide_emodel>  (4) 
-26.6891

>  <r_i_glide_energy>  (4) 
-23.9567

>  <r_i_glide_einternal>  (4) 
6.23214

>  <r_i_glide_intrahb_reward>  (4) 
-0

>  <i_i_glide_confnum>  (4) 
2

>  <i_i_glide_posenum>  (4) 
17

>  <r_i_glide_eff_state_penalty>  (4) 
0

>  <ligand_id>  (4) 
0

>  <original_smiles>  (4) 
CCC1Cc2c([nH]c3ccccc23)C2CC(OC)CN2C1

>  <smiles>  (4) 
[H]c1c([H])c([H])c2c(c1[H])c1c(n2[H])C2([H])N(C([H])([H])C([H])(OC([H])([H])[H])C2([H])[H])C([H])([H])C([H])(C([H])([H])C([H])([H])[H])C1([H])[H]

$$$$
0:1:1
     RDKit          3D

 45 48  0  0  1  0  0  0  0  0999 V2000
    4.3636   -4.4181    4.7124 C   0  0  0  0  0  0  0  0  0  0  0  0
    3.6554   -3.0500    4.6560 C   0  0  0  0  0  0  0  0  0  0  0  0
    4.5911   -1.9311    4.1983 C   0  0  2  0  0  0  0  0  0  0  0  0
    3.9780   -0.5176    4.3039 C   0  0  0  0  0  0  0  0  0  0  0  0
    2.8100   -0.2564    3.3971 C   0  0  0  0  0  0  0  0  0  0  0  0
    2.5813   -0.7429    2.1264 C   0  0  0  0  0  0  0  0  0  0  0  0
    1.3907   -0.1977    1.6724 N   0  0  0  0  0  0  0  0  0  0  0  0
    0.7977    0.5914    2.6212 C   0  0  0  0  0  0  0  0  0  0  0  0
   -0.4060    1.3093    2.6476 C   0  0  0  0  0  0  0  0  0  0  0  0
   -0.7484    2.0674    3.7754 C   0  0  0  0  0  0  0  0  0  0  0  0
    0.1162    2.0923    4.8858 C   0  0  0  0  0  0  0  0  0  0  0  0
    1.3253    1.3598    4.8562 C   0  0  0  0  0  0  0  0  0  0  0  0
    1.6908    0.5873    3.7294 C   0  0  0  0  0  0  0  0  0  0  0  0
    3.3385   -1.6419    1.1992 C   0  0  1  0  0  0  0  0  0  0  0  0
    4.0191   -0.9580    0.0018 C   0  0  0  0  0  0  0  0  0  0  0  0
    5.0400   -2.0111   -0.4726 C   0  0  1  0  0  0  0  0  0  0  0  0
    6.3732   -1.5284   -0.6923 O   0  0  0  0  0  0  0  0  0  0  0  0
    7.0855   -1.1124    0.4649 C   0  0  0  0  0  0  0  0  0  0  0  0
    4.8956   -3.1554    0.5458 C   0  0  0  0  0  0  0  0  0  0  0  0
    4.2484   -2.6325    1.7473 N   0  0  0  0  0  0  0  0  0  0  0  0
    5.1845   -2.1663    2.8028 C   0  0  0  0  0  0  0  0  0  0  0  0
    1.0135   -0.4351    0.7148 H   0  0  0  0  0  0  0  0  0  0  0  0
    3.6729   -5.1836    5.0720 H   0  0  0  0  0  0  0  0  0  0  0  0
    5.2253   -4.3835    5.3830 H   0  0  0  0  0  0  0  0  0  0  0  0
    4.7240   -4.7317    3.7280 H   0  0  0  0  0  0  0  0  0  0  0  0
    2.7981   -3.1168    3.9757 H   0  0  0  0  0  0  0  0  0  0  0  0
    3.2554   -2.8053    5.6466 H   0  0  0  0  0  0  0  0  0  0  0  0
    5.4449   -1.9161    4.8890 H   0  0  0  0  0  0  0  0  0  0  0  0
    3.6695   -0.3706    5.3463 H   0  0  0  0  0  0  0  0  0  0  0  0
    4.7595    0.2328    4.1435 H   0  0  0  0  0  0  0  0  0  0  0  0
   -1.0333    1.2957    1.7780 H   0  0  0  0  0  0  0  0  0  0  0  0
   -1.6643    2.6318    3.7849 H   0  0  0  0  0  0  0  0  0  0  0  0
   -0.1286    2.6748    5.7608 H   0  0  0  0  0  0  0  0  0  0  0  0
    1.9949    1.3867    5.7091 H   0  0  0  0  0  0  0  0  0  0  0  0
    2.5343   -2.2128    0.7113 H   0  0  0  0  0  0  0  0  0  0  0  0
    3.2841   -0.7272   -0.7730 H   0  0  0  0  0  0  0  0  0  0  0  0
    4.4859   -0.0119    0.2658 H   0  0  0  0  0  0  0  0  0  0  0  0
    4.7070   -2.3798   -1.4425 H   0  0  0  0  0  0  0  0  0  0  0  0
    8.1105   -0.7754    0.2722 H   0  0  0  0  0  0  0  0  0  0  0  0
    7.1857   -1.9469    1.1398 H   0  0  0  0  0  0  0  0  0  0  0  0
    6.5435   -0.3212    0.9733 H   0  0  0  0  0  0  0  0  0  0  0  0
    4.2198   -3.8919    0.0887 H   0  0  0  0  0  0  0  0  0  0  0  0
    5.8122   -3.6790    0.7562 H   0  0  0  0  0  0  0  0  0  0  0  0
    5.6040   -1.1969    2.5266 H   0  0  0  0  0  0  0  0  0  0  0  0
    5.9855   -2.9017    2.8990 H   0  0  0  0  0  0  0  0  0  0  0  0
  1  2  1  0
  1 23  1  0
  1 24  1  0
  1 25  1  0
  2  3  1  0
  2 26  1  0
  2 27  1  0
  3 21  1  0
  3  4  1  0
  3 28  1  1
  4  5  1  0
  4 29  1  0
  4 30  1  0
  5 13  1  0
  5  6  2  0
  6  7  1  0
  6 14  1  0
  7 22  1  0
  7  8  1  0
  8 13  2  0
  8  9  1  0
  9 10  2  0
  9 31  1  0
 10 11  1  0
 10 32  1  0
 11 12  2  0
 11 33  1  0
 12 13  1  0
 12 34  1  0
 14 20  1  0
 14 15  1  0
 14 35  1  6
 15 16  1  0
 15 36  1  0
 15 37  1  0
 16 17  1  0
 16 19  1  0
 16 38  1  6
 17 18  1  0
 18 39  1  0
 18 40  1  0
 18 41  1  0
 19 20  1  0
 19 42  1  0
 19 43  1  0
 20 21  1  0
 21 44  1  0
 21 45  1  0
M  END
>  <i_m_ct_stereo_status>  (5) 
1

>  <s_m_source_file>  (5) 
/var/tmp/pbs.5076255.sched01/tmpokz5906q/0mijyat0o.sdf

>  <i_m_source_file_index>  (5) 
2

>  <i_lp_mmshare_version>  (5) 
48012

>  <i_f3d_flags>  (5) 
0

>  <s_epik_input>  (5) 
W0NIM11bQ0gyXVtDQEhdKFtDSDJdMSlbQ0gyXU4oW0NIMl1bQ0BASF0oW0NIMl0yKU9bQ0gzXSlbQ0BIXTJjKGMxMylbbkhdYzRjM1tjSF1bY0hdW2NIXVtjSF00

>  <s_epik_cmdline>  (5) 
J2VwaWtfcHl0aG9uJywgJy1waHQnLCAnMi4wJywgJy1waCcsICc3LjAnLCAnLXRuJywgJzgnLCAnLW1hJywgJzIwMCcsICctaW1hZScsICc8aW5maWxlLm1hZT4nLCAnLW9tYWUnLCAnPG91dGZpbGUubWFlPic=

>  <r_epik_Ionization_Penalty>  (5) 
1.86159

>  <r_epik_Ionization_Penalty_Charging>  (5) 
0

>  <r_epik_Ionization_Penalty_Neutral>  (5) 
1.86159

>  <r_epik_State_Penalty>  (5) 
1.97989

>  <r_epik_Charging_Adjusted_Penalty>  (5) 
1.97989

>  <i_epik_Tot_Q>  (5) 
0

>  <i_epik_Tot_abs_Q>  (5) 
0

>  <s_lp_Force_Field>  (5) 
OPLS3e

>  <r_lp_Energy>  (5) 
33.2704

>  <b_lp_Chiralities_Consistent>  (5) 
1

>  <s_lp_Variant>  (5) 
0:0-2

>  <s_i_glide_gridfile>  (5) 
pfpi4k_grid

>  <i_i_glide_lignum>  (5) 
2

>  <i_i_glide_rotatable_bonds>  (5) 
2

>  <r_i_docking_score>  (5) 
-3.69659

>  <r_i_glide_ligand_efficiency>  (5) 
-0.176028

>  <r_i_glide_ligand_efficiency_sa>  (5) 
-0.485648

>  <r_i_glide_ligand_efficiency_ln>  (5) 
-0.913974

>  <r_i_glide_gscore>  (5) 
-3.69659

>  <r_i_glide_lipo>  (5) 
-0.122561

>  <r_i_glide_hbond>  (5) 
-0.284589

>  <r_i_glide_metal>  (5) 
-0

>  <r_i_glide_rewards>  (5) 
-1.47003

>  <r_i_glide_evdw>  (5) 
-15.6102

>  <r_i_glide_ecoul>  (5) 
-6.25931

>  <r_i_glide_erotb>  (5) 
0

>  <r_i_glide_esite>  (5) 
-0.1

>  <r_i_glide_emodel>  (5) 
-24.5717

>  <r_i_glide_energy>  (5) 
-21.8696

>  <r_i_glide_einternal>  (5) 
4.76113

>  <r_i_glide_intrahb_reward>  (5) 
-0

>  <i_i_glide_confnum>  (5) 
2

>  <i_i_glide_posenum>  (5) 
1

>  <r_i_glide_eff_state_penalty>  (5) 
0

>  <ligand_id>  (5) 
0

>  <original_smiles>  (5) 
CCC1Cc2c([nH]c3ccccc23)C2CC(OC)CN2C1

>  <smiles>  (5) 
[H]c1c([H])c([H])c2c(c1[H])c1c(n2[H])C2([H])N(C([H])([H])C([H])(OC([H])([H])[H])C2([H])[H])C([H])([H])C([H])(C([H])([H])C([H])([H])[H])C1([H])[H]

$$$$
0:1:2
     RDKit          3D

 45 48  0  0  1  0  0  0  0  0999 V2000
    1.0162   -4.5309    4.0945 C   0  0  0  0  0  0  0  0  0  0  0  0
    0.6316   -3.0932    4.4878 C   0  0  0  0  0  0  0  0  0  0  0  0
    1.8414   -2.2023    4.8489 C   0  0  2  0  0  0  0  0  0  0  0  0
    1.4140   -0.8657    5.4725 C   0  0  0  0  0  0  0  0  0  0  0  0
    0.6783    0.0598    4.5476 C   0  0  0  0  0  0  0  0  0  0  0  0
    0.8328    0.2254    3.1967 C   0  0  0  0  0  0  0  0  0  0  0  0
   -0.0489    1.2055    2.7708 N   0  0  0  0  0  0  0  0  0  0  0  0
   -0.7955    1.6987    3.8183 C   0  0  0  0  0  0  0  0  0  0  0  0
   -1.7972    2.6784    3.8936 C   0  0  0  0  0  0  0  0  0  0  0  0
   -2.3940    2.9825    5.1351 C   0  0  0  0  0  0  0  0  0  0  0  0
   -1.9747    2.2875    6.2979 C   0  0  0  0  0  0  0  0  0  0  0  0
   -0.9654    1.3060    6.2023 C   0  0  0  0  0  0  0  0  0  0  0  0
   -0.3448    0.9794    4.9630 C   0  0  0  0  0  0  0  0  0  0  0  0
    1.7172   -0.4087    2.1633 C   0  0  1  0  0  0  0  0  0  0  0  0
    2.8741    0.4500    1.6534 C   0  0  0  0  0  0  0  0  0  0  0  0
    3.8046   -0.5544    0.9560 C   0  0  1  0  0  0  0  0  0  0  0  0
    5.1264   -0.4100    1.4640 O   0  0  0  0  0  0  0  0  0  0  0  0
    6.1118   -1.1129    0.7262 C   0  0  0  0  0  0  0  0  0  0  0  0
    3.1733   -1.9227    1.2855 C   0  0  0  0  0  0  0  0  0  0  0  0
    2.2085   -1.7524    2.3820 N   0  0  0  0  0  0  0  0  0  0  0  0
    2.8598   -2.0039    3.6831 C   0  0  0  0  0  0  0  0  0  0  0  0
   -0.1066    1.5133    1.8100 H   0  0  0  0  0  0  0  0  0  0  0  0
    0.1303   -5.1267    3.8883 H   0  0  0  0  0  0  0  0  0  0  0  0
    1.5594   -5.0234    4.9042 H   0  0  0  0  0  0  0  0  0  0  0  0
    1.6444   -4.5420    3.2061 H   0  0  0  0  0  0  0  0  0  0  0  0
    0.0530   -2.6440    3.6767 H   0  0  0  0  0  0  0  0  0  0  0  0
   -0.0486   -3.1439    5.3345 H   0  0  0  0  0  0  0  0  0  0  0  0
    2.3824   -2.7179    5.6489 H   0  0  0  0  0  0  0  0  0  0  0  0
    0.7748   -1.0905    6.3323 H   0  0  0  0  0  0  0  0  0  0  0  0
    2.2838   -0.3645    5.8964 H   0  0  0  0  0  0  0  0  0  0  0  0
   -2.0956    3.1854    2.9938 H   0  0  0  0  0  0  0  0  0  0  0  0
   -3.1583    3.7259    5.2060 H   0  0  0  0  0  0  0  0  0  0  0  0
   -2.4195    2.5205    7.2441 H   0  0  0  0  0  0  0  0  0  0  0  0
   -0.6325    0.7958    7.0931 H   0  0  0  0  0  0  0  0  0  0  0  0
    1.0768   -0.5006    1.2833 H   0  0  0  0  0  0  0  0  0  0  0  0
    2.5172    1.2256    0.9852 H   0  0  0  0  0  0  0  0  0  0  0  0
    3.4134    0.9388    2.4706 H   0  0  0  0  0  0  0  0  0  0  0  0
    3.8024   -0.3899   -0.1265 H   0  0  0  0  0  0  0  0  0  0  0  0
    7.0826   -0.9326    1.1826 H   0  0  0  0  0  0  0  0  0  0  0  0
    6.1652   -0.7904   -0.3101 H   0  0  0  0  0  0  0  0  0  0  0  0
    5.9482   -2.1904    0.7476 H   0  0  0  0  0  0  0  0  0  0  0  0
    2.5783   -2.1983    0.4000 H   0  0  0  0  0  0  0  0  0  0  0  0
    3.8796   -2.7253    1.4567 H   0  0  0  0  0  0  0  0  0  0  0  0
    3.5594   -1.2109    3.9313 H   0  0  0  0  0  0  0  0  0  0  0  0
    3.4600   -2.9132    3.6311 H   0  0  0  0  0  0  0  0  0  0  0  0
  1  2  1  0
  1 23  1  0
  1 24  1  0
  1 25  1  0
  2  3  1  0
  2 26  1  0
  2 27  1  0
  3 21  1  0
  3  4  1  0
  3 28  1  1
  4  5  1  0
  4 29  1  0
  4 30  1  0
  5 13  1  0
  5  6  2  0
  6  7  1  0
  6 14  1  0
  7 22  1  0
  7  8  1  0
  8 13  2  0
  8  9  1  0
  9 10  2  0
  9 31  1  0
 10 11  1  0
 10 32  1  0
 11 12  2  0
 11 33  1  0
 12 13  1  0
 12 34  1  0
 14 20  1  0
 14 15  1  0
 14 35  1  6
 15 16  1  0
 15 36  1  0
 15 37  1  0
 16 17  1  0
 16 19  1  0
 16 38  1  6
 17 18  1  0
 18 39  1  0
 18 40  1  0
 18 41  1  0
 19 20  1  0
 19 42  1  0
 19 43  1  0
 20 21  1  0
 21 44  1  0
 21 45  1  0
M  END
>  <i_m_ct_stereo_status>  (6) 
1

>  <s_m_source_file>  (6) 
/var/tmp/pbs.5076255.sched01/tmpokz5906q/0mijyat0o.sdf

>  <i_m_source_file_index>  (6) 
2

>  <i_lp_mmshare_version>  (6) 
48012

>  <i_f3d_flags>  (6) 
0

>  <s_epik_input>  (6) 
W0NIM11bQ0gyXVtDQEhdKFtDSDJdMSlbQ0gyXU4oW0NIMl1bQ0BASF0oW0NIMl0yKU9bQ0gzXSlbQ0BIXTJjKGMxMylbbkhdYzRjM1tjSF1bY0hdW2NIXVtjSF00

>  <s_epik_cmdline>  (6) 
J2VwaWtfcHl0aG9uJywgJy1waHQnLCAnMi4wJywgJy1waCcsICc3LjAnLCAnLXRuJywgJzgnLCAnLW1hJywgJzIwMCcsICctaW1hZScsICc8aW5maWxlLm1hZT4nLCAnLW9tYWUnLCAnPG91dGZpbGUubWFlPic=

>  <r_epik_Ionization_Penalty>  (6) 
1.86159

>  <r_epik_Ionization_Penalty_Charging>  (6) 
0

>  <r_epik_Ionization_Penalty_Neutral>  (6) 
1.86159

>  <r_epik_State_Penalty>  (6) 
1.97989

>  <r_epik_Charging_Adjusted_Penalty>  (6) 
1.97989

>  <i_epik_Tot_Q>  (6) 
0

>  <i_epik_Tot_abs_Q>  (6) 
0

>  <s_lp_Force_Field>  (6) 
OPLS3e

>  <r_lp_Energy>  (6) 
33.2704

>  <b_lp_Chiralities_Consistent>  (6) 
1

>  <s_lp_Variant>  (6) 
0:0-2

>  <s_i_glide_gridfile>  (6) 
pfpi4k_grid

>  <i_i_glide_lignum>  (6) 
2

>  <i_i_glide_rotatable_bonds>  (6) 
2

>  <r_i_docking_score>  (6) 
-2.79089

>  <r_i_glide_ligand_efficiency>  (6) 
-0.1329

>  <r_i_glide_ligand_efficiency_sa>  (6) 
-0.36666

>  <r_i_glide_ligand_efficiency_ln>  (6) 
-0.690042

>  <r_i_glide_gscore>  (6) 
-2.79089

>  <r_i_glide_lipo>  (6) 
-0.233295

>  <r_i_glide_hbond>  (6) 
-0.0389176

>  <r_i_glide_metal>  (6) 
-0

>  <r_i_glide_rewards>  (6) 
-1.47003

>  <r_i_glide_evdw>  (6) 
-20.3401

>  <r_i_glide_ecoul>  (6) 
0.114936

>  <r_i_glide_erotb>  (6) 
0

>  <r_i_glide_esite>  (6) 
-0.0488837

>  <r_i_glide_emodel>  (6) 
-24.8114

>  <r_i_glide_energy>  (6) 
-20.2252

>  <r_i_glide_einternal>  (6) 
0.00653851

>  <r_i_glide_intrahb_reward>  (6) 
-0

>  <i_i_glide_confnum>  (6) 
2

>  <i_i_glide_posenum>  (6) 
14

>  <r_i_glide_eff_state_penalty>  (6) 
0

>  <ligand_id>  (6) 
0

>  <original_smiles>  (6) 
CCC1Cc2c([nH]c3ccccc23)C2CC(OC)CN2C1

>  <smiles>  (6) 
[H]c1c([H])c([H])c2c(c1[H])c1c(n2[H])C2([H])N(C([H])([H])C([H])(OC([H])([H])[H])C2([H])[H])C([H])([H])C([H])(C([H])([H])C([H])([H])[H])C1([H])[H]

$$$$
1:0:0
     RDKit          3D

 40 43  0  0  1  0  0  0  0  0999 V2000
    3.8254   -0.8158   -4.1624 C   0  0  0  0  0  0  0  0  0  0  0  0
    3.7780   -1.9717   -3.1635 C   0  0  0  0  0  0  0  0  0  0  0  0
    4.5520   -1.7163   -1.8613 C   0  0  0  0  0  0  0  0  0  0  0  0
    5.2566   -0.6962   -1.7841 O   0  0  0  0  0  0  0  0  0  0  0  0
    4.4220   -2.5601   -0.7729 N   0  0  0  0  0  0  0  0  0  0  0  0
    3.6930   -3.8474   -0.7056 C   0  0  0  0  0  0  0  0  0  0  0  0
    4.5899   -4.9756   -0.2833 C   0  0  0  0  0  0  0  0  0  0  0  0
    5.1537   -4.7133    1.1040 C   0  0  0  0  0  0  0  0  0  0  0  0
    6.1027   -5.8357    1.5070 C   0  0  0  0  0  0  0  0  0  0  0  0
    7.4166   -5.6029    1.8165 C   0  0  0  0  0  0  0  0  0  0  0  0
    8.2266   -6.6889    2.1703 C   0  0  0  0  0  0  0  0  0  0  0  0
    7.8077   -7.9572    2.2060 N   0  0  0  0  0  0  0  0  0  0  0  0
    6.5374   -8.1861    1.8804 C   0  0  0  0  0  0  0  0  0  0  0  0
    5.8645   -9.3430    1.8096 N   0  0  0  0  0  0  0  0  0  0  0  0
    4.6246   -8.9618    1.4371 C   0  0  0  0  0  0  0  0  0  0  0  0
    4.4257   -7.6572    1.2718 N   0  0  0  0  0  0  0  0  0  0  0  0
    5.6590   -7.1500    1.5359 N   0  0  0  0  0  0  0  0  0  0  0  0
    5.8526   -3.3359    1.0968 C   0  0  0  0  0  0  0  0  0  0  0  0
    4.9668   -2.2047    0.5543 C   0  0  0  0  0  0  0  0  0  0  0  0
    2.4803   -2.7585   -3.1171 C   0  0  0  0  0  0  0  0  0  0  0  0
    3.7501   -3.3820   -3.7220 C   0  0  0  0  0  0  0  0  0  0  0  0
    3.0483   -0.9586   -4.9138 H   0  0  0  0  0  0  0  0  0  0  0  0
    4.7792   -0.7817   -4.6942 H   0  0  0  0  0  0  0  0  0  0  0  0
    3.6428    0.1488   -3.6792 H   0  0  0  0  0  0  0  0  0  0  0  0
    2.7811   -3.7448   -0.1111 H   0  0  0  0  0  0  0  0  0  0  0  0
    3.3925   -4.2725   -1.6208 H   0  0  0  0  0  0  0  0  0  0  0  0
    3.9712   -5.8690   -0.3139 H   0  0  0  0  0  0  0  0  0  0  0  0
    5.3867   -5.1382   -1.0089 H   0  0  0  0  0  0  0  0  0  0  0  0
    4.3249   -4.7012    1.8100 H   0  0  0  0  0  0  0  0  0  0  0  0
    7.8502   -4.6075    1.8158 H   0  0  0  0  0  0  0  0  0  0  0  0
    9.2631   -6.5034    2.4202 H   0  0  0  0  0  0  0  0  0  0  0  0
    3.8227   -9.6737    1.2892 H   0  0  0  0  0  0  0  0  0  0  0  0
    6.1821   -3.0951    2.1039 H   0  0  0  0  0  0  0  0  0  0  0  0
    6.7306   -3.3811    0.4523 H   0  0  0  0  0  0  0  0  0  0  0  0
    5.5537   -1.2726    0.5635 H   0  0  0  0  0  0  0  0  0  0  0  0
    4.1311   -2.0343    1.2364 H   0  0  0  0  0  0  0  0  0  0  0  0
    2.1035   -2.9422   -2.1160 H   0  0  0  0  0  0  0  0  0  0  0  0
    1.7000   -2.4833   -3.8124 H   0  0  0  0  0  0  0  0  0  0  0  0
    3.7263   -3.5266   -4.7860 H   0  0  0  0  0  0  0  0  0  0  0  0
    4.3972   -4.1020   -3.2059 H   0  0  0  0  0  0  0  0  0  0  0  0
  1  2  1  0
  1 22  1  0
  1 23  1  0
  1 24  1  0
  2 21  1  0
  2  3  1  0
  2 20  1  0
  3  4  2  0
  3  5  1  0
  5 19  1  0
  5  6  1  0
  6  7  1  0
  6 25  1  0
  6 26  1  0
  7  8  1  0
  7 27  1  0
  7 28  1  0
  8  9  1  0
  8 18  1  0
  8 29  1  0
  9 17  1  0
  9 10  2  0
 10 11  1  0
 10 30  1  0
 11 12  2  0
 11 31  1  0
 12 13  1  0
 13 17  1  0
 13 14  2  0
 14 15  1  0
 15 16  2  0
 15 32  1  0
 16 17  1  0
 18 19  1  0
 18 33  1  0
 18 34  1  0
 19 35  1  0
 19 36  1  0
 20 21  1  0
 20 37  1  0
 20 38  1  0
 21 39  1  0
 21 40  1  0
M  END
>  <i_m_ct_stereo_status>  (7) 
1

>  <s_m_source_file>  (7) 
/var/tmp/pbs.5076255.sched01/tmpokz5906q/0mijyat0o.sdf

>  <i_m_source_file_index>  (7) 
3

>  <i_lp_mmshare_version>  (7) 
48012

>  <i_f3d_flags>  (7) 
0

>  <s_epik_input>  (7) 
W0NIMl0xW0NIMl1DMShbQ0gzXSlDKD1PKU4yW0NIMl1bQ0gyXVtDSF0oW0NIMl1bQ0gyXTIpYyhbY0hdW2NIXW4zKW4oYzM0KW5bY0hdbjQ=

>  <s_epik_cmdline>  (7) 
J2VwaWtfcHl0aG9uJywgJy1waHQnLCAnMi4wJywgJy1waCcsICc3LjAnLCAnLXRuJywgJzgnLCAnLW1hJywgJzIwMCcsICctaW1hZScsICc8aW5maWxlLm1hZT4nLCAnLW9tYWUnLCAnPG91dGZpbGUubWFlPic=

>  <r_lp_tautomer_probability>  (7) 
1

>  <r_epik_Ionization_Penalty>  (7) 
9.40392e-07

>  <r_epik_Ionization_Penalty_Charging>  (7) 
0

>  <r_epik_Ionization_Penalty_Neutral>  (7) 
9.40392e-07

>  <r_epik_State_Penalty>  (7) 
-0

>  <r_epik_Charging_Adjusted_Penalty>  (7) 
0

>  <i_epik_Tot_Q>  (7) 
0

>  <i_epik_Tot_abs_Q>  (7) 
0

>  <s_lp_Force_Field>  (7) 
OPLS3e

>  <r_lp_Energy>  (7) 
32.7734

>  <b_lp_Chiralities_Consistent>  (7) 
1

>  <s_lp_Variant>  (7) 
1:0-1

>  <s_i_glide_gridfile>  (7) 
pfpi4k_grid

>  <i_i_glide_lignum>  (7) 
3

>  <i_i_glide_rotatable_bonds>  (7) 
3

>  <r_i_docking_score>  (7) 
-3.83586

>  <r_i_glide_ligand_efficiency>  (7) 
-0.18266

>  <r_i_glide_ligand_efficiency_sa>  (7) 
-0.503945

>  <r_i_glide_ligand_efficiency_ln>  (7) 
-0.948409

>  <r_i_glide_gscore>  (7) 
-3.83586

>  <r_i_glide_lipo>  (7) 
-0.809713

>  <r_i_glide_hbond>  (7) 
0

>  <r_i_glide_metal>  (7) 
-0

>  <r_i_glide_rewards>  (7) 
-1.71683

>  <r_i_glide_evdw>  (7) 
-31.105

>  <r_i_glide_ecoul>  (7) 
-2.25745

>  <r_i_glide_erotb>  (7) 
0.668451

>  <r_i_glide_esite>  (7) 
-0.0839012

>  <r_i_glide_emodel>  (7) 
-32.185

>  <r_i_glide_energy>  (7) 
-33.3625

>  <r_i_glide_einternal>  (7) 
13.047

>  <r_i_glide_intrahb_reward>  (7) 
-0

>  <i_i_glide_confnum>  (7) 
1

>  <i_i_glide_posenum>  (7) 
35

>  <r_i_glide_eff_state_penalty>  (7) 
0

>  <ligand_id>  (7) 
1

>  <original_smiles>  (7) 
CC1(C(=O)N2CCC(c3ccnc4ncnn34)CC2)CC1

>  <smiles>  (7) 
[H]c1nc2nc([H])c([H])c(C3([H])C([H])([H])C([H])([H])N(C(=O)C4(C([H])([H])[H])C([H])([H])C4([H])[H])C([H])([H])C3([H])[H])n2n1

$$$$
1:0:1
     RDKit          3D

 40 43  0  0  1  0  0  0  0  0999 V2000
    5.0099   -3.6955   -3.5587 C   0  0  0  0  0  0  0  0  0  0  0  0
    4.3584   -2.4979   -2.8830 C   0  0  0  0  0  0  0  0  0  0  0  0
    4.7854   -2.3265   -1.4487 C   0  0  0  0  0  0  0  0  0  0  0  0
    5.8520   -1.7473   -1.2249 O   0  0  0  0  0  0  0  0  0  0  0  0
    3.9710   -2.7828   -0.4595 N   0  0  0  0  0  0  0  0  0  0  0  0
    2.6986   -3.4877   -0.6784 C   0  0  0  0  0  0  0  0  0  0  0  0
    2.6450   -4.8060    0.0897 C   0  0  0  0  0  0  0  0  0  0  0  0
    2.9098   -4.6365    1.5942 C   0  0  0  0  0  0  0  0  0  0  0  0
    2.9673   -5.9994    2.2997 C   0  0  0  0  0  0  0  0  0  0  0  0
    4.1070   -6.4761    2.9190 C   0  0  0  0  0  0  0  0  0  0  0  0
    4.0732   -7.7577    3.5081 C   0  0  0  0  0  0  0  0  0  0  0  0
    3.0091   -8.5516    3.5109 N   0  0  0  0  0  0  0  0  0  0  0  0
    1.8912   -8.0883    2.9131 C   0  0  0  0  0  0  0  0  0  0  0  0
    0.7020   -8.6625    2.7753 N   0  0  0  0  0  0  0  0  0  0  0  0
   -0.0076   -7.7358    2.0844 C   0  0  0  0  0  0  0  0  0  0  0  0
    0.6120   -6.5902    1.7976 N   0  0  0  0  0  0  0  0  0  0  0  0
    1.8566   -6.8158    2.3135 N   0  0  0  0  0  0  0  0  0  0  0  0
    4.2184   -3.8219    1.7651 C   0  0  0  0  0  0  0  0  0  0  0  0
    4.2324   -2.5112    0.9647 C   0  0  0  0  0  0  0  0  0  0  0  0
    4.2182   -1.2025   -3.6762 C   0  0  0  0  0  0  0  0  0  0  0  0
    2.9911   -1.9946   -3.3037 C   0  0  0  0  0  0  0  0  0  0  0  0
    4.8987   -3.6182   -4.6379 H   0  0  0  0  0  0  0  0  0  0  0  0
    4.5410   -4.6314   -3.2552 H   0  0  0  0  0  0  0  0  0  0  0  0
    6.0742   -3.7519   -3.3269 H   0  0  0  0  0  0  0  0  0  0  0  0
    1.8913   -2.8326   -0.3589 H   0  0  0  0  0  0  0  0  0  0  0  0
    2.5057   -3.7852   -1.7106 H   0  0  0  0  0  0  0  0  0  0  0  0
    1.6680   -5.2493   -0.1019 H   0  0  0  0  0  0  0  0  0  0  0  0
    3.3876   -5.4951   -0.3175 H   0  0  0  0  0  0  0  0  0  0  0  0
    2.0880   -4.0639    2.0365 H   0  0  0  0  0  0  0  0  0  0  0  0
    5.0305   -5.8957    2.9651 H   0  0  0  0  0  0  0  0  0  0  0  0
    4.9666   -8.1315    3.9939 H   0  0  0  0  0  0  0  0  0  0  0  0
   -1.0278   -7.9247    1.7843 H   0  0  0  0  0  0  0  0  0  0  0  0
    4.3855   -3.6094    2.8250 H   0  0  0  0  0  0  0  0  0  0  0  0
    5.0674   -4.4079    1.4058 H   0  0  0  0  0  0  0  0  0  0  0  0
    5.2034   -2.0433    1.1366 H   0  0  0  0  0  0  0  0  0  0  0  0
    3.4840   -1.8196    1.3580 H   0  0  0  0  0  0  0  0  0  0  0  0
    4.3867   -0.2608   -3.1560 H   0  0  0  0  0  0  0  0  0  0  0  0
    4.5259   -1.1990   -4.7202 H   0  0  0  0  0  0  0  0  0  0  0  0
    2.4824   -2.5591   -4.0847 H   0  0  0  0  0  0  0  0  0  0  0  0
    2.3428   -1.5368   -2.5546 H   0  0  0  0  0  0  0  0  0  0  0  0
  1  2  1  0
  1 22  1  0
  1 23  1  0
  1 24  1  0
  2 21  1  0
  2  3  1  0
  2 20  1  0
  3  4  2  0
  3  5  1  0
  5 19  1  0
  5  6  1  0
  6  7  1  0
  6 25  1  0
  6 26  1  0
  7  8  1  0
  7 27  1  0
  7 28  1  0
  8  9  1  0
  8 18  1  0
  8 29  1  0
  9 17  1  0
  9 10  2  0
 10 11  1  0
 10 30  1  0
 11 12  2  0
 11 31  1  0
 12 13  1  0
 13 17  1  0
 13 14  2  0
 14 15  1  0
 15 16  2  0
 15 32  1  0
 16 17  1  0
 18 19  1  0
 18 33  1  0
 18 34  1  0
 19 35  1  0
 19 36  1  0
 20 21  1  0
 20 37  1  0
 20 38  1  0
 21 39  1  0
 21 40  1  0
M  END
>  <i_m_ct_stereo_status>  (8) 
1

>  <s_m_source_file>  (8) 
/var/tmp/pbs.5076255.sched01/tmpokz5906q/0mijyat0o.sdf

>  <i_m_source_file_index>  (8) 
3

>  <i_lp_mmshare_version>  (8) 
48012

>  <i_f3d_flags>  (8) 
0

>  <s_epik_input>  (8) 
W0NIMl0xW0NIMl1DMShbQ0gzXSlDKD1PKU4yW0NIMl1bQ0gyXVtDSF0oW0NIMl1bQ0gyXTIpYyhbY0hdW2NIXW4zKW4oYzM0KW5bY0hdbjQ=

>  <s_epik_cmdline>  (8) 
J2VwaWtfcHl0aG9uJywgJy1waHQnLCAnMi4wJywgJy1waCcsICc3LjAnLCAnLXRuJywgJzgnLCAnLW1hJywgJzIwMCcsICctaW1hZScsICc8aW5maWxlLm1hZT4nLCAnLW9tYWUnLCAnPG91dGZpbGUubWFlPic=

>  <r_lp_tautomer_probability>  (8) 
1

>  <r_epik_Ionization_Penalty>  (8) 
9.40392e-07

>  <r_epik_Ionization_Penalty_Charging>  (8) 
0

>  <r_epik_Ionization_Penalty_Neutral>  (8) 
9.40392e-07

>  <r_epik_State_Penalty>  (8) 
-0

>  <r_epik_Charging_Adjusted_Penalty>  (8) 
0

>  <i_epik_Tot_Q>  (8) 
0

>  <i_epik_Tot_abs_Q>  (8) 
0

>  <s_lp_Force_Field>  (8) 
OPLS3e

>  <r_lp_Energy>  (8) 
32.7734

>  <b_lp_Chiralities_Consistent>  (8) 
1

>  <s_lp_Variant>  (8) 
1:0-1

>  <s_i_glide_gridfile>  (8) 
pfpi4k_grid

>  <i_i_glide_lignum>  (8) 
3

>  <i_i_glide_rotatable_bonds>  (8) 
3

>  <r_i_docking_score>  (8) 
-3.53381

>  <r_i_glide_ligand_efficiency>  (8) 
-0.168277

>  <r_i_glide_ligand_efficiency_sa>  (8) 
-0.464263

>  <r_i_glide_ligand_efficiency_ln>  (8) 
-0.873728

>  <r_i_glide_gscore>  (8) 
-3.53381

>  <r_i_glide_lipo>  (8) 
-0.571399

>  <r_i_glide_hbond>  (8) 
-0.0986287

>  <r_i_glide_metal>  (8) 
-0

>  <r_i_glide_rewards>  (8) 
-1.46356

>  <r_i_glide_evdw>  (8) 
-28.5801

>  <r_i_glide_ecoul>  (8) 
-3.39191

>  <r_i_glide_erotb>  (8) 
0.668451

>  <r_i_glide_esite>  (8) 
-0.130883

>  <r_i_glide_emodel>  (8) 
-37.8363

>  <r_i_glide_energy>  (8) 
-31.972

>  <r_i_glide_einternal>  (8) 
1.94704

>  <r_i_glide_intrahb_reward>  (8) 
-0

>  <i_i_glide_confnum>  (8) 
1

>  <i_i_glide_posenum>  (8) 
1

>  <r_i_glide_eff_state_penalty>  (8) 
0

>  <ligand_id>  (8) 
1

>  <original_smiles>  (8) 
CC1(C(=O)N2CCC(c3ccnc4ncnn34)CC2)CC1

>  <smiles>  (8) 
[H]c1nc2nc([H])c([H])c(C3([H])C([H])([H])C([H])([H])N(C(=O)C4(C([H])([H])[H])C([H])([H])C4([H])[H])C([H])([H])C3([H])[H])n2n1

$$$$
1:0:2
     RDKit          3D

 40 43  0  0  1  0  0  0  0  0999 V2000
    2.2266   -3.0418   -3.5734 C   0  0  0  0  0  0  0  0  0  0  0  0
    3.4501   -2.1999   -3.1983 C   0  0  0  0  0  0  0  0  0  0  0  0
    4.5687   -2.9610   -2.5126 C   0  0  0  0  0  0  0  0  0  0  0  0
    5.6351   -3.1154   -3.1147 O   0  0  0  0  0  0  0  0  0  0  0  0
    4.4072   -3.3332   -1.2122 N   0  0  0  0  0  0  0  0  0  0  0  0
    3.1655   -3.1846   -0.4340 C   0  0  0  0  0  0  0  0  0  0  0  0
    2.7399   -4.5696    0.1096 C   0  0  0  0  0  0  0  0  0  0  0  0
    3.8326   -5.2652    0.9460 C   0  0  0  0  0  0  0  0  0  0  0  0
    3.4221   -6.6806    1.3950 C   0  0  0  0  0  0  0  0  0  0  0  0
    4.1497   -7.8235    1.0770 C   0  0  0  0  0  0  0  0  0  0  0  0
    3.6744   -9.0830    1.5021 C   0  0  0  0  0  0  0  0  0  0  0  0
    2.5621   -9.2638    2.2051 N   0  0  0  0  0  0  0  0  0  0  0  0
    1.8545   -8.1559    2.5349 C   0  0  0  0  0  0  0  0  0  0  0  0
    0.7228   -8.0418    3.2243 N   0  0  0  0  0  0  0  0  0  0  0  0
    0.5112   -6.7072    3.2486 C   0  0  0  0  0  0  0  0  0  0  0  0
    1.3911   -5.9520    2.6077 N   0  0  0  0  0  0  0  0  0  0  0  0
    2.2840   -6.8754    2.1379 N   0  0  0  0  0  0  0  0  0  0  0  0
    5.1502   -5.2575    0.1375 C   0  0  0  0  0  0  0  0  0  0  0  0
    5.5270   -3.8818   -0.4164 C   0  0  0  0  0  0  0  0  0  0  0  0
    3.9174   -1.1866   -4.2410 C   0  0  0  0  0  0  0  0  0  0  0  0
    3.3851   -0.7074   -2.9200 C   0  0  0  0  0  0  0  0  0  0  0  0
    1.6750   -2.5168   -4.3581 H   0  0  0  0  0  0  0  0  0  0  0  0
    1.5324   -3.1716   -2.7495 H   0  0  0  0  0  0  0  0  0  0  0  0
    2.5238   -4.0230   -3.9688 H   0  0  0  0  0  0  0  0  0  0  0  0
    3.4028   -2.5129    0.4208 H   0  0  0  0  0  0  0  0  0  0  0  0
    2.3171   -2.7596   -0.9494 H   0  0  0  0  0  0  0  0  0  0  0  0
    1.8242   -4.4112    0.6627 H   0  0  0  0  0  0  0  0  0  0  0  0
    2.4614   -5.2552   -0.6916 H   0  0  0  0  0  0  0  0  0  0  0  0
    3.9791   -4.6684    1.8480 H   0  0  0  0  0  0  0  0  0  0  0  0
    5.0666   -7.7875    0.4976 H   0  0  0  0  0  0  0  0  0  0  0  0
    4.2429   -9.9703    1.2333 H   0  0  0  0  0  0  0  0  0  0  0  0
   -0.3463   -6.2822    3.7405 H   0  0  0  0  0  0  0  0  0  0  0  0
    5.9722   -5.6279    0.7583 H   0  0  0  0  0  0  0  0  0  0  0  0
    5.0570   -5.9141   -0.7287 H   0  0  0  0  0  0  0  0  0  0  0  0
    6.4496   -4.0060   -0.9851 H   0  0  0  0  0  0  0  0  0  0  0  0
    5.7619   -3.1957    0.3955 H   0  0  0  0  0  0  0  0  0  0  0  0
    4.9828   -1.0448   -4.4195 H   0  0  0  0  0  0  0  0  0  0  0  0
    3.2945   -1.0360   -5.1169 H   0  0  0  0  0  0  0  0  0  0  0  0
    2.4008   -0.2507   -2.9062 H   0  0  0  0  0  0  0  0  0  0  0  0
    4.1043   -0.2748   -2.2232 H   0  0  0  0  0  0  0  0  0  0  0  0
  1  2  1  0
  1 22  1  0
  1 23  1  0
  1 24  1  0
  2 21  1  0
  2  3  1  0
  2 20  1  0
  3  4  2  0
  3  5  1  0
  5 19  1  0
  5  6  1  0
  6  7  1  0
  6 25  1  0
  6 26  1  0
  7  8  1  0
  7 27  1  0
  7 28  1  0
  8  9  1  0
  8 18  1  0
  8 29  1  0
  9 17  1  0
  9 10  2  0
 10 11  1  0
 10 30  1  0
 11 12  2  0
 11 31  1  0
 12 13  1  0
 13 17  1  0
 13 14  2  0
 14 15  1  0
 15 16  2  0
 15 32  1  0
 16 17  1  0
 18 19  1  0
 18 33  1  0
 18 34  1  0
 19 35  1  0
 19 36  1  0
 20 21  1  0
 20 37  1  0
 20 38  1  0
 21 39  1  0
 21 40  1  0
M  END
>  <i_m_ct_stereo_status>  (9) 
1

>  <s_m_source_file>  (9) 
/var/tmp/pbs.5076255.sched01/tmpokz5906q/0mijyat0o.sdf

>  <i_m_source_file_index>  (9) 
3

>  <i_lp_mmshare_version>  (9) 
48012

>  <i_f3d_flags>  (9) 
0

>  <s_epik_input>  (9) 
W0NIMl0xW0NIMl1DMShbQ0gzXSlDKD1PKU4yW0NIMl1bQ0gyXVtDSF0oW0NIMl1bQ0gyXTIpYyhbY0hdW2NIXW4zKW4oYzM0KW5bY0hdbjQ=

>  <s_epik_cmdline>  (9) 
J2VwaWtfcHl0aG9uJywgJy1waHQnLCAnMi4wJywgJy1waCcsICc3LjAnLCAnLXRuJywgJzgnLCAnLW1hJywgJzIwMCcsICctaW1hZScsICc8aW5maWxlLm1hZT4nLCAnLW9tYWUnLCAnPG91dGZpbGUubWFlPic=

>  <r_lp_tautomer_probability>  (9) 
1

>  <r_epik_Ionization_Penalty>  (9) 
9.40392e-07

>  <r_epik_Ionization_Penalty_Charging>  (9) 
0

>  <r_epik_Ionization_Penalty_Neutral>  (9) 
9.40392e-07

>  <r_epik_State_Penalty>  (9) 
-0

>  <r_epik_Charging_Adjusted_Penalty>  (9) 
0

>  <i_epik_Tot_Q>  (9) 
0

>  <i_epik_Tot_abs_Q>  (9) 
0

>  <s_lp_Force_Field>  (9) 
OPLS3e

>  <r_lp_Energy>  (9) 
32.7734

>  <b_lp_Chiralities_Consistent>  (9) 
1

>  <s_lp_Variant>  (9) 
1:0-1

>  <s_i_glide_gridfile>  (9) 
pfpi4k_grid

>  <i_i_glide_lignum>  (9) 
3

>  <i_i_glide_rotatable_bonds>  (9) 
3

>  <r_i_docking_score>  (9) 
-3.2092

>  <r_i_glide_ligand_efficiency>  (9) 
-0.152819

>  <r_i_glide_ligand_efficiency_sa>  (9) 
-0.421616

>  <r_i_glide_ligand_efficiency_ln>  (9) 
-0.793467

>  <r_i_glide_gscore>  (9) 
-3.2092

>  <r_i_glide_lipo>  (9) 
-0.584252

>  <r_i_glide_hbond>  (9) 
0

>  <r_i_glide_metal>  (9) 
-0

>  <r_i_glide_rewards>  (9) 
-1.55362

>  <r_i_glide_evdw>  (9) 
-32.009

>  <r_i_glide_ecoul>  (9) 
-0.443086

>  <r_i_glide_erotb>  (9) 
0.668451

>  <r_i_glide_esite>  (9) 
-0.0728579

>  <r_i_glide_emodel>  (9) 
-37.4176

>  <r_i_glide_energy>  (9) 
-32.4521

>  <r_i_glide_einternal>  (9) 
2.10279

>  <r_i_glide_intrahb_reward>  (9) 
-0

>  <i_i_glide_confnum>  (9) 
5

>  <i_i_glide_posenum>  (9) 
31

>  <r_i_glide_eff_state_penalty>  (9) 
0

>  <ligand_id>  (9) 
1

>  <original_smiles>  (9) 
CC1(C(=O)N2CCC(c3ccnc4ncnn34)CC2)CC1

>  <smiles>  (9) 
[H]c1nc2nc([H])c([H])c(C3([H])C([H])([H])C([H])([H])N(C(=O)C4(C([H])([H])[H])C([H])([H])C4([H])[H])C([H])([H])C3([H])[H])n2n1

$$$$
2:0:0
     RDKit          3D

 66 71  0  0  1  0  0  0  0  0999 V2000
    0.1019    0.5906    3.4810 C   0  0  0  0  0  0  0  0  0  0  0  0
    0.6292   -0.4886    4.4094 C   0  0  0  0  0  0  0  0  0  0  0  0
    1.8352   -1.0959    4.3606 C   0  0  0  0  0  0  0  0  0  0  0  0
    2.1717   -2.2297    5.4665 C   0  0  0  0  0  0  0  0  0  0  0  0
    2.9073   -3.6120    4.9691 C   0  0  2  0  0  0  0  0  0  0  0  0
    2.1523   -4.7303    5.4020 O   0  0  0  0  0  0  0  0  0  0  0  0
    4.4453   -3.8975    5.2453 C   0  0  2  0  0  0  0  0  0  0  0  0
    5.0133   -2.5592    5.1569 C   0  0  0  0  0  0  0  0  0  0  0  0
    4.2337   -2.2293    3.9056 C   0  0  2  0  0  0  0  0  0  0  0  0
    4.0405   -0.8728    4.0457 O   0  0  0  0  0  0  0  0  0  0  0  0
    2.9415   -0.6625    3.3161 C   0  0  1  0  0  0  0  0  0  0  0  0
    3.2559   -1.1583    1.7324 C   0  0  1  0  0  0  0  0  0  0  0  0
    3.7435    0.1047    1.3071 O   0  0  0  0  0  0  0  0  0  0  0  0
    4.1866   -2.4284    0.9616 C   0  0  2  0  0  0  0  0  0  0  0  0
    3.1847   -3.4766    0.3844 C   0  0  0  0  0  0  0  0  0  0  0  0
    3.0045   -4.7692    1.2033 C   0  0  1  0  0  0  0  0  0  0  0  0
    3.5271   -5.8747    0.4937 O   0  0  0  0  0  0  0  0  0  0  0  0
    3.5278   -4.6546    2.6874 C   0  0  1  0  0  0  0  0  0  0  0  0
    5.0174   -4.5588    2.7349 C   0  0  2  0  0  0  0  0  0  0  0  0
    5.7051   -5.9454    2.5439 C   0  0  0  0  0  0  0  0  0  0  0  0
    5.2890   -4.5227    4.1927 O   0  0  0  0  0  0  0  0  0  0  0  0
    5.4192   -3.4000    1.6201 C   0  0  1  0  0  0  0  0  0  0  0  0
    6.3334   -4.0464    0.5371 C   0  0  0  0  0  0  0  0  0  0  0  0
    6.9216   -3.0491   -0.4520 C   0  0  0  0  0  0  0  0  0  0  0  0
    5.8019   -2.4362   -1.2780 C   0  0  1  0  0  0  0  0  0  0  0  0
    5.2621   -3.4105   -2.3548 C   0  0  0  0  0  0  0  0  0  0  0  0
    4.7952   -1.7162   -0.3361 C   0  0  1  0  0  0  0  0  0  0  0  0
    3.8165   -1.1193   -1.1843 O   0  0  0  0  0  0  0  0  0  0  0  0
    3.0199   -3.4186    3.5155 C   0  0  1  0  0  0  0  0  0  0  0  0
    1.4888   -3.3805    3.0324 C   0  0  0  0  0  0  0  0  0  0  0  0
   -0.8830    0.3061    3.1065 H   0  0  0  0  0  0  0  0  0  0  0  0
    0.7469    0.7599    2.6156 H   0  0  0  0  0  0  0  0  0  0  0  0
   -0.0003    1.5308    4.0262 H   0  0  0  0  0  0  0  0  0  0  0  0
   -0.0641   -0.7893    5.1816 H   0  0  0  0  0  0  0  0  0  0  0  0
    2.7048   -1.7631    6.2952 H   0  0  0  0  0  0  0  0  0  0  0  0
    1.2194   -2.5167    5.9154 H   0  0  0  0  0  0  0  0  0  0  0  0
    2.5845   -5.5134    5.0964 H   0  0  0  0  0  0  0  0  0  0  0  0
    4.6410   -4.3247    6.2303 H   0  0  0  0  0  0  0  0  0  0  0  0
    4.7714   -1.9377    6.0158 H   0  0  0  0  0  0  0  0  0  0  0  0
    6.0935   -2.5636    5.0354 H   0  0  0  0  0  0  0  0  0  0  0  0
    5.0248   -1.9689    3.2574 H   0  0  0  0  0  0  0  0  0  0  0  0
    2.8267    0.4250    3.3216 H   0  0  0  0  0  0  0  0  0  0  0  0
    2.2801   -1.1512    1.2526 H   0  0  0  0  0  0  0  0  0  0  0  0
    3.6601    0.1621    0.3609 H   0  0  0  0  0  0  0  0  0  0  0  0
    2.2134   -3.0165    0.2110 H   0  0  0  0  0  0  0  0  0  0  0  0
    3.4424   -3.7667   -0.6245 H   0  0  0  0  0  0  0  0  0  0  0  0
    1.9498   -5.0213    1.1527 H   0  0  0  0  0  0  0  0  0  0  0  0
    3.2760   -5.8086   -0.4203 H   0  0  0  0  0  0  0  0  0  0  0  0
    3.2135   -5.5693    3.1909 H   0  0  0  0  0  0  0  0  0  0  0  0
    5.6595   -6.3595    1.5384 H   0  0  0  0  0  0  0  0  0  0  0  0
    5.2530   -6.6989    3.1949 H   0  0  0  0  0  0  0  0  0  0  0  0
    6.7604   -5.8912    2.8149 H   0  0  0  0  0  0  0  0  0  0  0  0
    6.2138   -2.7861    2.0378 H   0  0  0  0  0  0  0  0  0  0  0  0
    7.1876   -4.5256    1.0201 H   0  0  0  0  0  0  0  0  0  0  0  0
    5.8184   -4.8312   -0.0110 H   0  0  0  0  0  0  0  0  0  0  0  0
    7.4677   -2.2747    0.0896 H   0  0  0  0  0  0  0  0  0  0  0  0
    7.6495   -3.5424   -1.0998 H   0  0  0  0  0  0  0  0  0  0  0  0
    6.2570   -1.6440   -1.8669 H   0  0  0  0  0  0  0  0  0  0  0  0
    4.9403   -4.3771   -1.9648 H   0  0  0  0  0  0  0  0  0  0  0  0
    6.0435   -3.6373   -3.0821 H   0  0  0  0  0  0  0  0  0  0  0  0
    4.4279   -2.9756   -2.9076 H   0  0  0  0  0  0  0  0  0  0  0  0
    5.4197   -0.9055    0.0392 H   0  0  0  0  0  0  0  0  0  0  0  0
    2.9458   -1.1778   -0.7970 H   0  0  0  0  0  0  0  0  0  0  0  0
    1.3100   -2.7970    2.1441 H   0  0  0  0  0  0  0  0  0  0  0  0
    0.7107   -3.0941    3.7323 H   0  0  0  0  0  0  0  0  0  0  0  0
    1.0973   -4.3826    2.8816 H   0  0  0  0  0  0  0  0  0  0  0  0
  1  2  1  0
  1 31  1  0
  1 32  1  0
  1 33  1  0
  2  3  2  3
  2 34  1  0
  3 11  1  0
  3  4  1  0
  4  5  1  0
  4 35  1  0
  4 36  1  0
  5 29  1  0
  5  6  1  6
  5  7  1  0
  6 37  1  0
  7 21  1  0
  7  8  1  0
  7 38  1  1
  8  9  1  0
  8 39  1  0
  8 40  1  0
  9 29  1  0
  9 10  1  0
  9 41  1  6
 10 11  1  0
 11 12  1  0
 11 42  1  6
 12 13  1  0
 12 14  1  0
 12 43  1  6
 13 44  1  0
 14 22  1  0
 14 27  1  0
 14 15  1  6
 15 16  1  0
 15 45  1  0
 15 46  1  0
 16 17  1  0
 16 18  1  0
 16 47  1  1
 17 48  1  0
 18 19  1  0
 18 29  1  0
 18 49  1  1
 19 20  1  6
 19 21  1  0
 19 22  1  0
 20 50  1  0
 20 51  1  0
 20 52  1  0
 22 23  1  0
 22 53  1  1
 23 24  1  0
 23 54  1  0
 23 55  1  0
 24 25  1  0
 24 56  1  0
 24 57  1  0
 25 26  1  0
 25 27  1  0
 25 58  1  6
 26 59  1  0
 26 60  1  0
 26 61  1  0
 27 28  1  0
 27 62  1  1
 28 63  1  0
 29 30  1  6
 30 64  1  0
 30 65  1  0
 30 66  1  0
M  END
>  <i_m_ct_stereo_status>  (10) 
1

>  <s_m_source_file>  (10) 
/var/tmp/pbs.5076255.sched01/tmpokz5906q/0mijyat0o.sdf

>  <i_m_source_file_index>  (10) 
4

>  <i_lp_mmshare_version>  (10) 
48012

>  <i_f3d_flags>  (10) 
0

>  <s_epik_input>  (10) 
W0NIM10vW0NIXT1DKC9bQ0gyXTEpW0NASF0oW0NASF0yW09IXSlPW0NASF0zW0NIMl1bQ0BIXShPNClbQ0BdMShbT0hdKVtDQF0zKFtDSDNdKVtDQEBIXShbQ0BASF0oW0NIMl01KVtPSF0pW0NAQF00KFtDSDNdKVtDQEhdKFtDQF0yNTYpW0NIMl1bQ0gyXVtDQEBIXShbQ0gzXSlbQ0BIXTZbT0hd

>  <s_epik_cmdline>  (10) 
J2VwaWtfcHl0aG9uJywgJy1waHQnLCAnMi4wJywgJy1waCcsICc3LjAnLCAnLXRuJywgJzgnLCAnLW1hJywgJzIwMCcsICctaW1hZScsICc8aW5maWxlLm1hZT4nLCAnLW9tYWUnLCAnPG91dGZpbGUubWFlPic=

>  <r_lp_tautomer_probability>  (10) 
1

>  <r_epik_Ionization_Penalty>  (10) 
5.15479e-07

>  <r_epik_Ionization_Penalty_Charging>  (10) 
0

>  <r_epik_Ionization_Penalty_Neutral>  (10) 
5.15479e-07

>  <r_epik_State_Penalty>  (10) 
-0

>  <r_epik_Charging_Adjusted_Penalty>  (10) 
0

>  <i_epik_Tot_Q>  (10) 
0

>  <i_epik_Tot_abs_Q>  (10) 
0

>  <s_lp_Force_Field>  (10) 
OPLS3e

>  <r_lp_Energy>  (10) 
317.105

>  <b_lp_Chiralities_Consistent>  (10) 
1

>  <s_lp_Variant>  (10) 
2:0-1

>  <s_i_glide_gridfile>  (10) 
pfpi4k_grid

>  <i_i_glide_lignum>  (10) 
4

>  <i_i_glide_rotatable_bonds>  (10) 
4

>  <r_i_docking_score>  (10) 
-3.1397

>  <r_i_glide_ligand_efficiency>  (10) 
-0.104657

>  <r_i_glide_ligand_efficiency_sa>  (10) 
-0.325193

>  <r_i_glide_ligand_efficiency_ln>  (10) 
-0.713375

>  <r_i_glide_gscore>  (10) 
-3.1397

>  <r_i_glide_lipo>  (10) 
-0.489235

>  <r_i_glide_hbond>  (10) 
-0.178837

>  <r_i_glide_metal>  (10) 
-0

>  <r_i_glide_rewards>  (10) 
-0.541779

>  <r_i_glide_evdw>  (10) 
-26.3746

>  <r_i_glide_ecoul>  (10) 
-4.07415

>  <r_i_glide_erotb>  (10) 
0

>  <r_i_glide_esite>  (10) 
0

>  <r_i_glide_emodel>  (10) 
-35.0153

>  <r_i_glide_energy>  (10) 
-30.4488

>  <r_i_glide_einternal>  (10) 
2.07683

>  <r_i_glide_intrahb_reward>  (10) 
-0

>  <i_i_glide_confnum>  (10) 
2

>  <i_i_glide_posenum>  (10) 
40

>  <r_i_glide_eff_state_penalty>  (10) 
0

>  <ligand_id>  (10) 
2

>  <original_smiles>  (10) 
CC=C1CC2(O)C3CC4OC1C(O)C15CC(O)C(C(C)(O3)C1CCC(C)C5O)C42C

>  <smiles>  (10) 
[H]OC1([H])C([H])([H])C23C([H])(O[H])C4([H])OC5([H])C([H])([H])C6([H])OC(C([H])([H])[H])(C2([H])C([H])([H])C([H])([H])C([H])(C([H])([H])[H])C3([H])O[H])C1([H])C5(C([H])([H])[H])C6(O[H])C([H])([H])C4=C([H])C([H])([H])[H]

$$$$
2:0:1
     RDKit          3D

 66 71  0  0  1  0  0  0  0  0999 V2000
    2.2699   -0.8958    6.6110 C   0  0  0  0  0  0  0  0  0  0  0  0
    2.6241   -2.3643    6.7646 C   0  0  0  0  0  0  0  0  0  0  0  0
    3.4550   -3.0909    5.9869 C   0  0  0  0  0  0  0  0  0  0  0  0
    3.6747   -4.6535    6.3495 C   0  0  0  0  0  0  0  0  0  0  0  0
    3.6860   -5.7432    5.1233 C   0  0  2  0  0  0  0  0  0  0  0  0
    2.7453   -6.7661    5.3996 O   0  0  0  0  0  0  0  0  0  0  0  0
    5.0278   -6.4109    4.5971 C   0  0  2  0  0  0  0  0  0  0  0  0
    5.9859   -5.3252    4.7607 C   0  0  0  0  0  0  0  0  0  0  0  0
    5.0342   -4.3016    4.1815 C   0  0  2  0  0  0  0  0  0  0  0  0
    5.3943   -3.1669    4.8738 O   0  0  0  0  0  0  0  0  0  0  0  0
    4.2816   -2.4325    4.8087 C   0  0  1  0  0  0  0  0  0  0  0  0
    3.9148   -2.1723    3.1811 C   0  0  1  0  0  0  0  0  0  0  0  0
    4.6376   -0.9575    3.0640 O   0  0  0  0  0  0  0  0  0  0  0  0
    4.0573   -3.0754    1.6877 C   0  0  2  0  0  0  0  0  0  0  0  0
    2.6215   -3.5212    1.2620 C   0  0  0  0  0  0  0  0  0  0  0  0
    2.2489   -4.9879    1.5589 C   0  0  1  0  0  0  0  0  0  0  0  0
    2.0534   -5.6999    0.3582 O   0  0  0  0  0  0  0  0  0  0  0  0
    3.1902   -5.6866    2.5965 C   0  0  1  0  0  0  0  0  0  0  0  0
    4.5553   -5.9058    2.0325 C   0  0  2  0  0  0  0  0  0  0  0  0
    4.6056   -7.1370    1.0764 C   0  0  0  0  0  0  0  0  0  0  0  0
    5.2412   -6.6113    3.1398 O   0  0  0  0  0  0  0  0  0  0  0  0
    4.9935   -4.4562    1.3560 C   0  0  1  0  0  0  0  0  0  0  0  0
    5.2442   -4.6686   -0.1655 C   0  0  0  0  0  0  0  0  0  0  0  0
    5.8303   -3.4562   -0.8751 C   0  0  0  0  0  0  0  0  0  0  0  0
    4.8164   -2.3205   -0.8662 C   0  0  1  0  0  0  0  0  0  0  0  0
    3.6679   -2.5502   -1.8807 C   0  0  0  0  0  0  0  0  0  0  0  0
    4.4610   -1.9640    0.6051 C   0  0  1  0  0  0  0  0  0  0  0  0
    3.5404   -0.8750    0.5637 O   0  0  0  0  0  0  0  0  0  0  0  0
    3.4177   -4.9069    3.9418 C   0  0  1  0  0  0  0  0  0  0  0  0
    1.9193   -4.3496    4.2005 C   0  0  0  0  0  0  0  0  0  0  0  0
    1.1847   -0.7804    6.6103 H   0  0  0  0  0  0  0  0  0  0  0  0
    2.6476   -0.4624    5.6843 H   0  0  0  0  0  0  0  0  0  0  0  0
    2.6719   -0.3270    7.4506 H   0  0  0  0  0  0  0  0  0  0  0  0
    2.1327   -2.8556    7.5918 H   0  0  0  0  0  0  0  0  0  0  0  0
    4.5591   -4.7446    6.9793 H   0  0  0  0  0  0  0  0  0  0  0  0
    2.8654   -4.9329    7.0258 H   0  0  0  0  0  0  0  0  0  0  0  0
    2.7687   -7.3942    4.6950 H   0  0  0  0  0  0  0  0  0  0  0  0
    5.3420   -7.2829    5.1744 H   0  0  0  0  0  0  0  0  0  0  0  0
    6.2552   -5.1554    5.8005 H   0  0  0  0  0  0  0  0  0  0  0  0
    6.9078   -5.4572    4.1925 H   0  0  0  0  0  0  0  0  0  0  0  0
    5.6336   -3.9187    3.4022 H   0  0  0  0  0  0  0  0  0  0  0  0
    4.5740   -1.4779    5.2534 H   0  0  0  0  0  0  0  0  0  0  0  0
    2.9113   -1.7605    3.1963 H   0  0  0  0  0  0  0  0  0  0  0  0
    4.2929   -0.5055    2.2990 H   0  0  0  0  0  0  0  0  0  0  0  0
    1.8750   -2.8571    1.6947 H   0  0  0  0  0  0  0  0  0  0  0  0
    2.4481   -3.3471    0.2102 H   0  0  0  0  0  0  0  0  0  0  0  0
    1.2205   -5.0101    1.8952 H   0  0  0  0  0  0  0  0  0  0  0  0
    2.8564   -5.6675   -0.1405 H   0  0  0  0  0  0  0  0  0  0  0  0
    2.7354   -6.6505    2.8185 H   0  0  0  0  0  0  0  0  0  0  0  0
    4.1279   -7.0077    0.1083 H   0  0  0  0  0  0  0  0  0  0  0  0
    4.1232   -8.0062    1.5322 H   0  0  0  0  0  0  0  0  0  0  0  0
    5.6397   -7.4245    0.8867 H   0  0  0  0  0  0  0  0  0  0  0  0
    6.0434   -4.2730    1.5883 H   0  0  0  0  0  0  0  0  0  0  0  0
    5.9725   -5.4694   -0.3011 H   0  0  0  0  0  0  0  0  0  0  0  0
    4.3476   -4.9866   -0.6903 H   0  0  0  0  0  0  0  0  0  0  0  0
    6.7508   -3.1455   -0.3767 H   0  0  0  0  0  0  0  0  0  0  0  0
    6.1045   -3.7140   -1.8985 H   0  0  0  0  0  0  0  0  0  0  0  0
    5.3390   -1.4480   -1.2617 H   0  0  0  0  0  0  0  0  0  0  0  0
    3.1492   -3.5022   -1.7628 H   0  0  0  0  0  0  0  0  0  0  0  0
    4.0619   -2.5594   -2.8979 H   0  0  0  0  0  0  0  0  0  0  0  0
    2.9228   -1.7533   -1.8371 H   0  0  0  0  0  0  0  0  0  0  0  0
    5.4162   -1.5532    0.9380 H   0  0  0  0  0  0  0  0  0  0  0  0
    2.7632   -1.1284    0.0805 H   0  0  0  0  0  0  0  0  0  0  0  0
    1.6754   -3.3986    3.7481 H   0  0  0  0  0  0  0  0  0  0  0  0
    1.5492   -4.2909    5.2177 H   0  0  0  0  0  0  0  0  0  0  0  0
    1.1699   -5.0708    3.8894 H   0  0  0  0  0  0  0  0  0  0  0  0
  1  2  1  0
  1 31  1  0
  1 32  1  0
  1 33  1  0
  2  3  2  3
  2 34  1  0
  3 11  1  0
  3  4  1  0
  4  5  1  0
  4 35  1  0
  4 36  1  0
  5 29  1  0
  5  6  1  1
  5  7  1  0
  6 37  1  0
  7 21  1  0
  7  8  1  0
  7 38  1  1
  8  9  1  0
  8 39  1  0
  8 40  1  0
  9 29  1  0
  9 10  1  0
  9 41  1  6
 10 11  1  0
 11 12  1  0
 11 42  1  1
 12 13  1  0
 12 14  1  0
 12 43  1  1
 13 44  1  0
 14 22  1  0
 14 27  1  0
 14 15  1  6
 15 16  1  0
 15 45  1  0
 15 46  1  0
 16 17  1  0
 16 18  1  0
 16 47  1  1
 17 48  1  0
 18 19  1  0
 18 29  1  0
 18 49  1  1
 19 20  1  6
 19 21  1  0
 19 22  1  0
 20 50  1  0
 20 51  1  0
 20 52  1  0
 22 23  1  0
 22 53  1  1
 23 24  1  0
 23 54  1  0
 23 55  1  0
 24 25  1  0
 24 56  1  0
 24 57  1  0
 25 26  1  0
 25 27  1  0
 25 58  1  6
 26 59  1  0
 26 60  1  0
 26 61  1  0
 27 28  1  0
 27 62  1  1
 28 63  1  0
 29 30  1  1
 30 64  1  0
 30 65  1  0
 30 66  1  0
M  END
>  <i_m_ct_stereo_status>  (11) 
1

>  <s_m_source_file>  (11) 
/var/tmp/pbs.5076255.sched01/tmpokz5906q/0mijyat0o.sdf

>  <i_m_source_file_index>  (11) 
4

>  <i_lp_mmshare_version>  (11) 
48012

>  <i_f3d_flags>  (11) 
0

>  <s_epik_input>  (11) 
W0NIM10vW0NIXT1DKC9bQ0gyXTEpW0NASF0oW0NASF0yW09IXSlPW0NASF0zW0NIMl1bQ0BIXShPNClbQ0BdMShbT0hdKVtDQF0zKFtDSDNdKVtDQEBIXShbQ0BASF0oW0NIMl01KVtPSF0pW0NAQF00KFtDSDNdKVtDQEhdKFtDQF0yNTYpW0NIMl1bQ0gyXVtDQEBIXShbQ0gzXSlbQ0BIXTZbT0hd

>  <s_epik_cmdline>  (11) 
J2VwaWtfcHl0aG9uJywgJy1waHQnLCAnMi4wJywgJy1waCcsICc3LjAnLCAnLXRuJywgJzgnLCAnLW1hJywgJzIwMCcsICctaW1hZScsICc8aW5maWxlLm1hZT4nLCAnLW9tYWUnLCAnPG91dGZpbGUubWFlPic=

>  <r_lp_tautomer_probability>  (11) 
1

>  <r_epik_Ionization_Penalty>  (11) 
5.15479e-07

>  <r_epik_Ionization_Penalty_Charging>  (11) 
0

>  <r_epik_Ionization_Penalty_Neutral>  (11) 
5.15479e-07

>  <r_epik_State_Penalty>  (11) 
-0

>  <r_epik_Charging_Adjusted_Penalty>  (11) 
0

>  <i_epik_Tot_Q>  (11) 
0

>  <i_epik_Tot_abs_Q>  (11) 
0

>  <s_lp_Force_Field>  (11) 
OPLS3e

>  <r_lp_Energy>  (11) 
317.105

>  <b_lp_Chiralities_Consistent>  (11) 
1

>  <s_lp_Variant>  (11) 
2:0-1

>  <s_i_glide_gridfile>  (11) 
pfpi4k_grid

>  <i_i_glide_lignum>  (11) 
4

>  <i_i_glide_rotatable_bonds>  (11) 
4

>  <r_i_docking_score>  (11) 
-2.72359

>  <r_i_glide_ligand_efficiency>  (11) 
-0.0907864

>  <r_i_glide_ligand_efficiency_sa>  (11) 
-0.282095

>  <r_i_glide_ligand_efficiency_ln>  (11) 
-0.61883

>  <r_i_glide_gscore>  (11) 
-2.72359

>  <r_i_glide_lipo>  (11) 
-0.29566

>  <r_i_glide_hbond>  (11) 
-0.011986

>  <r_i_glide_metal>  (11) 
-0

>  <r_i_glide_rewards>  (11) 
-0.541779

>  <r_i_glide_evdw>  (11) 
-22.2178

>  <r_i_glide_ecoul>  (11) 
-5.08853

>  <r_i_glide_erotb>  (11) 
0

>  <r_i_glide_esite>  (11) 
0

>  <r_i_glide_emodel>  (11) 
-32.0033

>  <r_i_glide_energy>  (11) 
-27.3063

>  <r_i_glide_einternal>  (11) 
0.455141

>  <r_i_glide_intrahb_reward>  (11) 
-0

>  <i_i_glide_confnum>  (11) 
1

>  <i_i_glide_posenum>  (11) 
11

>  <r_i_glide_eff_state_penalty>  (11) 
0

>  <ligand_id>  (11) 
2

>  <original_smiles>  (11) 
CC=C1CC2(O)C3CC4OC1C(O)C15CC(O)C(C(C)(O3)C1CCC(C)C5O)C42C

>  <smiles>  (11) 
[H]OC1([H])C([H])([H])C23C([H])(O[H])C4([H])OC5([H])C([H])([H])C6([H])OC(C([H])([H])[H])(C2([H])C([H])([H])C([H])([H])C([H])(C([H])([H])[H])C3([H])O[H])C1([H])C5(C([H])([H])[H])C6(O[H])C([H])([H])C4=C([H])C([H])([H])[H]

$$$$
2:0:2
     RDKit          3D

 66 71  0  0  1  0  0  0  0  0999 V2000
    2.4533   -0.3436    6.5832 C   0  0  0  0  0  0  0  0  0  0  0  0
    2.7729   -1.7975    6.8840 C   0  0  0  0  0  0  0  0  0  0  0  0
    3.5413   -2.6336    6.1566 C   0  0  0  0  0  0  0  0  0  0  0  0
    3.7383   -4.1530    6.6773 C   0  0  0  0  0  0  0  0  0  0  0  0
    3.6566   -5.3745    5.5810 C   0  0  2  0  0  0  0  0  0  0  0  0
    2.7116   -6.3362    6.0095 O   0  0  0  0  0  0  0  0  0  0  0  0
    4.9499   -6.1375    5.0658 C   0  0  2  0  0  0  0  0  0  0  0  0
    5.9418   -5.0699    5.0629 C   0  0  0  0  0  0  0  0  0  0  0  0
    4.9901   -4.0881    4.4186 C   0  0  2  0  0  0  0  0  0  0  0  0
    5.4103   -2.8981    4.9655 O   0  0  0  0  0  0  0  0  0  0  0  0
    4.3220   -2.1367    4.8686 C   0  0  1  0  0  0  0  0  0  0  0  0
    3.8829   -2.0473    3.2424 C   0  0  1  0  0  0  0  0  0  0  0  0
    4.6297   -0.8774    2.9533 O   0  0  0  0  0  0  0  0  0  0  0  0
    3.9292   -3.1170    1.8540 C   0  0  2  0  0  0  0  0  0  0  0  0
    2.4702   -3.5629    1.5556 C   0  0  0  0  0  0  0  0  0  0  0  0
    2.0591   -4.9734    2.0257 C   0  0  1  0  0  0  0  0  0  0  0  0
    1.7922   -5.8032    0.9099 O   0  0  0  0  0  0  0  0  0  0  0  0
    3.0291   -5.5842    3.0946 C   0  0  1  0  0  0  0  0  0  0  0  0
    4.3563   -5.9085    2.4902 C   0  0  2  0  0  0  0  0  0  0  0  0
    4.3195   -7.2398    1.6762 C   0  0  0  0  0  0  0  0  0  0  0  0
    5.0875   -6.5040    3.6307 O   0  0  0  0  0  0  0  0  0  0  0  0
    4.8010   -4.5608    1.6345 C   0  0  1  0  0  0  0  0  0  0  0  0
    4.9645   -4.9509    0.1343 C   0  0  0  0  0  0  0  0  0  0  0  0
    5.5420   -3.8423   -0.7323 C   0  0  0  0  0  0  0  0  0  0  0  0
    4.5631   -2.6815   -0.8030 C   0  0  1  0  0  0  0  0  0  0  0  0
    3.3538   -2.9785   -1.7257 C   0  0  0  0  0  0  0  0  0  0  0  0
    4.2994   -2.1465    0.6324 C   0  0  1  0  0  0  0  0  0  0  0  0
    3.4170   -1.0340    0.5122 O   0  0  0  0  0  0  0  0  0  0  0  0
    3.3463   -4.6633    4.3286 C   0  0  1  0  0  0  0  0  0  0  0  0
    1.8799   -4.0309    4.5956 C   0  0  0  0  0  0  0  0  0  0  0  0
    1.3731   -0.1914    6.6228 H   0  0  0  0  0  0  0  0  0  0  0  0
    2.7944   -0.0302    5.5956 H   0  0  0  0  0  0  0  0  0  0  0  0
    2.9156    0.3017    7.3323 H   0  0  0  0  0  0  0  0  0  0  0  0
    2.3118   -2.1734    7.7868 H   0  0  0  0  0  0  0  0  0  0  0  0
    4.6517   -4.2020    7.2691 H   0  0  0  0  0  0  0  0  0  0  0  0
    2.9617   -4.3262    7.4248 H   0  0  0  0  0  0  0  0  0  0  0  0
    1.9011   -5.8928    6.2013 H   0  0  0  0  0  0  0  0  0  0  0  0
    5.2651   -6.9503    5.7229 H   0  0  0  0  0  0  0  0  0  0  0  0
    6.2690   -4.7957    6.0647 H   0  0  0  0  0  0  0  0  0  0  0  0
    6.8281   -5.2917    4.4696 H   0  0  0  0  0  0  0  0  0  0  0  0
    5.5561   -3.8190    3.5735 H   0  0  0  0  0  0  0  0  0  0  0  0
    4.6659   -1.1501    5.1889 H   0  0  0  0  0  0  0  0  0  0  0  0
    2.8927   -1.6021    3.2582 H   0  0  0  0  0  0  0  0  0  0  0  0
    4.2588   -0.5001    2.1635 H   0  0  0  0  0  0  0  0  0  0  0  0
    1.7684   -2.8316    1.9501 H   0  0  0  0  0  0  0  0  0  0  0  0
    2.2409   -3.4976    0.5007 H   0  0  0  0  0  0  0  0  0  0  0  0
    1.0449   -4.9044    2.4014 H   0  0  0  0  0  0  0  0  0  0  0  0
    2.5971   -5.8939    0.4208 H   0  0  0  0  0  0  0  0  0  0  0  0
    2.5595   -6.5025    3.4510 H   0  0  0  0  0  0  0  0  0  0  0  0
    3.7923   -7.2055    0.7261 H   0  0  0  0  0  0  0  0  0  0  0  0
    3.8411   -8.0368    2.2505 H   0  0  0  0  0  0  0  0  0  0  0  0
    5.3317   -7.5827    1.4607 H   0  0  0  0  0  0  0  0  0  0  0  0
    5.8639   -4.3880    1.7945 H   0  0  0  0  0  0  0  0  0  0  0  0
    5.6620   -5.7847    0.0537 H   0  0  0  0  0  0  0  0  0  0  0  0
    4.0325   -5.2925   -0.3084 H   0  0  0  0  0  0  0  0  0  0  0  0
    6.4954   -3.5101   -0.3180 H   0  0  0  0  0  0  0  0  0  0  0  0
    5.7539   -4.2206   -1.7332 H   0  0  0  0  0  0  0  0  0  0  0  0
    5.0899   -1.8780   -1.3196 H   0  0  0  0  0  0  0  0  0  0  0  0
    2.8147   -3.8892   -1.4716 H   0  0  0  0  0  0  0  0  0  0  0  0
    3.6922   -3.1192   -2.7535 H   0  0  0  0  0  0  0  0  0  0  0  0
    2.6362   -2.1570   -1.7367 H   0  0  0  0  0  0  0  0  0  0  0  0
    5.2801   -1.7352    0.8710 H   0  0  0  0  0  0  0  0  0  0  0  0
    2.5964   -1.3029    0.1046 H   0  0  0  0  0  0  0  0  0  0  0  0
    1.6434   -3.1267    4.0508 H   0  0  0  0  0  0  0  0  0  0  0  0
    1.5637   -3.8418    5.6159 H   0  0  0  0  0  0  0  0  0  0  0  0
    1.0931   -4.7543    4.3969 H   0  0  0  0  0  0  0  0  0  0  0  0
  1  2  1  0
  1 31  1  0
  1 32  1  0
  1 33  1  0
  2  3  2  3
  2 34  1  0
  3 11  1  0
  3  4  1  0
  4  5  1  0
  4 35  1  0
  4 36  1  0
  5 29  1  0
  5  6  1  1
  5  7  1  0
  6 37  1  0
  7 21  1  0
  7  8  1  0
  7 38  1  1
  8  9  1  0
  8 39  1  0
  8 40  1  0
  9 29  1  0
  9 10  1  0
  9 41  1  6
 10 11  1  0
 11 12  1  0
 11 42  1  1
 12 13  1  0
 12 14  1  0
 12 43  1  1
 13 44  1  0
 14 22  1  0
 14 27  1  0
 14 15  1  6
 15 16  1  0
 15 45  1  0
 15 46  1  0
 16 17  1  0
 16 18  1  0
 16 47  1  1
 17 48  1  0
 18 19  1  0
 18 29  1  0
 18 49  1  1
 19 20  1  6
 19 21  1  0
 19 22  1  0
 20 50  1  0
 20 51  1  0
 20 52  1  0
 22 23  1  0
 22 53  1  1
 23 24  1  0
 23 54  1  0
 23 55  1  0
 24 25  1  0
 24 56  1  0
 24 57  1  0
 25 26  1  0
 25 27  1  0
 25 58  1  6
 26 59  1  0
 26 60  1  0
 26 61  1  0
 27 28  1  0
 27 62  1  1
 28 63  1  0
 29 30  1  1
 30 64  1  0
 30 65  1  0
 30 66  1  0
M  END
>  <i_m_ct_stereo_status>  (12) 
1

>  <s_m_source_file>  (12) 
/var/tmp/pbs.5076255.sched01/tmpokz5906q/0mijyat0o.sdf

>  <i_m_source_file_index>  (12) 
4

>  <i_lp_mmshare_version>  (12) 
48012

>  <i_f3d_flags>  (12) 
0

>  <s_epik_input>  (12) 
W0NIM10vW0NIXT1DKC9bQ0gyXTEpW0NASF0oW0NASF0yW09IXSlPW0NASF0zW0NIMl1bQ0BIXShPNClbQ0BdMShbT0hdKVtDQF0zKFtDSDNdKVtDQEBIXShbQ0BASF0oW0NIMl01KVtPSF0pW0NAQF00KFtDSDNdKVtDQEhdKFtDQF0yNTYpW0NIMl1bQ0gyXVtDQEBIXShbQ0gzXSlbQ0BIXTZbT0hd

>  <s_epik_cmdline>  (12) 
J2VwaWtfcHl0aG9uJywgJy1waHQnLCAnMi4wJywgJy1waCcsICc3LjAnLCAnLXRuJywgJzgnLCAnLW1hJywgJzIwMCcsICctaW1hZScsICc8aW5maWxlLm1hZT4nLCAnLW9tYWUnLCAnPG91dGZpbGUubWFlPic=

>  <r_lp_tautomer_probability>  (12) 
1

>  <r_epik_Ionization_Penalty>  (12) 
5.15479e-07

>  <r_epik_Ionization_Penalty_Charging>  (12) 
0

>  <r_epik_Ionization_Penalty_Neutral>  (12) 
5.15479e-07

>  <r_epik_State_Penalty>  (12) 
-0

>  <r_epik_Charging_Adjusted_Penalty>  (12) 
0

>  <i_epik_Tot_Q>  (12) 
0

>  <i_epik_Tot_abs_Q>  (12) 
0

>  <s_lp_Force_Field>  (12) 
OPLS3e

>  <r_lp_Energy>  (12) 
317.105

>  <b_lp_Chiralities_Consistent>  (12) 
1

>  <s_lp_Variant>  (12) 
2:0-1

>  <s_i_glide_gridfile>  (12) 
pfpi4k_grid

>  <i_i_glide_lignum>  (12) 
4

>  <i_i_glide_rotatable_bonds>  (12) 
4

>  <r_i_docking_score>  (12) 
-2.61319

>  <r_i_glide_ligand_efficiency>  (12) 
-0.0871062

>  <r_i_glide_ligand_efficiency_sa>  (12) 
-0.270659

>  <r_i_glide_ligand_efficiency_ln>  (12) 
-0.593744

>  <r_i_glide_gscore>  (12) 
-2.61319

>  <r_i_glide_lipo>  (12) 
-0.207892

>  <r_i_glide_hbond>  (12) 
-0.0773954

>  <r_i_glide_metal>  (12) 
-0

>  <r_i_glide_rewards>  (12) 
-0.541779

>  <r_i_glide_evdw>  (12) 
-20.1287

>  <r_i_glide_ecoul>  (12) 
-5.19789

>  <r_i_glide_erotb>  (12) 
0

>  <r_i_glide_esite>  (12) 
0

>  <r_i_glide_emodel>  (12) 
-29.8735

>  <r_i_glide_energy>  (12) 
-25.3266

>  <r_i_glide_einternal>  (12) 
0.402841

>  <r_i_glide_intrahb_reward>  (12) 
-0

>  <i_i_glide_confnum>  (12) 
1

>  <i_i_glide_posenum>  (12) 
5

>  <r_i_glide_eff_state_penalty>  (12) 
0

>  <ligand_id>  (12) 
2

>  <original_smiles>  (12) 
CC=C1CC2(O)C3CC4OC1C(O)C15CC(O)C(C(C)(O3)C1CCC(C)C5O)C42C

>  <smiles>  (12) 
[H]OC1([H])C([H])([H])C23C([H])(O[H])C4([H])OC5([H])C([H])([H])C6([H])OC(C([H])([H])[H])(C2([H])C([H])([H])C([H])([H])C([H])(C([H])([H])[H])C3([H])O[H])C1([H])C5(C([H])([H])[H])C6(O[H])C([H])([H])C4=C([H])C([H])([H])[H]

$$$$
2:1:0
     RDKit          3D

 66 71  0  0  1  0  0  0  0  0999 V2000
    6.0759   -2.3529    0.7920 C   0  0  0  0  0  0  0  0  0  0  0  0
    5.0250   -3.4385    0.5944 C   0  0  0  0  0  0  0  0  0  0  0  0
    5.0346   -4.7040    1.0532 C   0  0  0  0  0  0  0  0  0  0  0  0
    6.2830   -5.3087    1.8988 C   0  0  0  0  0  0  0  0  0  0  0  0
    5.9626   -6.3024    3.1693 C   0  0  2  0  0  0  0  0  0  0  0  0
    6.6374   -5.8332    4.3210 O   0  0  0  0  0  0  0  0  0  0  0  0
    6.1665   -7.8722    3.0863 C   0  0  2  0  0  0  0  0  0  0  0  0
    5.8070   -8.1468    1.7024 C   0  0  0  0  0  0  0  0  0  0  0  0
    4.5833   -7.2609    1.7701 C   0  0  2  0  0  0  0  0  0  0  0  0
    4.4889   -6.8046    0.4724 O   0  0  0  0  0  0  0  0  0  0  0  0
    3.8375   -5.6535    0.6345 C   0  0  1  0  0  0  0  0  0  0  0  0
    2.3409   -5.9810    1.3430 C   0  0  1  0  0  0  0  0  0  0  0  0
    1.6007   -6.0377    0.1225 O   0  0  0  0  0  0  0  0  0  0  0  0
    1.7364   -7.1375    2.5208 C   0  0  2  0  0  0  0  0  0  0  0  0
    1.4258   -6.3517    3.8353 C   0  0  0  0  0  0  0  0  0  0  0  0
    2.4748   -6.4628    4.9584 C   0  0  1  0  0  0  0  0  0  0  0  0
    1.9434   -7.1544    6.0634 O   0  0  0  0  0  0  0  0  0  0  0  0
    3.8653   -7.0167    4.4711 C   0  0  1  0  0  0  0  0  0  0  0  0
    3.7801   -8.4582    4.0829 C   0  0  2  0  0  0  0  0  0  0  0  0
    3.7790   -9.4035    5.3228 C   0  0  0  0  0  0  0  0  0  0  0  0
    5.1779   -8.7848    3.7174 O   0  0  0  0  0  0  0  0  0  0  0  0
    2.4555   -8.5667    3.0971 C   0  0  1  0  0  0  0  0  0  0  0  0
    1.4350   -9.5477    3.7536 C   0  0  0  0  0  0  0  0  0  0  0  0
    0.2445   -9.8859    2.8763 C   0  0  0  0  0  0  0  0  0  0  0  0
   -0.5822   -8.6412    2.6327 C   0  0  1  0  0  0  0  0  0  0  0  0
   -1.4337   -8.2523    3.8675 C   0  0  0  0  0  0  0  0  0  0  0  0
    0.3083   -7.5653    1.9521 C   0  0  1  0  0  0  0  0  0  0  0  0
   -0.5808   -6.4950    1.7451 O   0  0  0  0  0  0  0  0  0  0  0  0
    4.4915   -6.2958    3.2239 C   0  0  1  0  0  0  0  0  0  0  0  0
    4.1264   -4.7597    3.5736 C   0  0  0  0  0  0  0  0  0  0  0  0
    5.7311   -1.6300    1.5338 H   0  0  0  0  0  0  0  0  0  0  0  0
    6.2224   -1.8179   -0.1479 H   0  0  0  0  0  0  0  0  0  0  0  0
    7.0497   -2.7323    1.1021 H   0  0  0  0  0  0  0  0  0  0  0  0
    4.1642   -3.1035    0.0323 H   0  0  0  0  0  0  0  0  0  0  0  0
    6.9916   -5.7565    1.2021 H   0  0  0  0  0  0  0  0  0  0  0  0
    6.8271   -4.4619    2.3035 H   0  0  0  0  0  0  0  0  0  0  0  0
    7.5700   -5.9138    4.1720 H   0  0  0  0  0  0  0  0  0  0  0  0
    7.1935   -8.1900    3.2854 H   0  0  0  0  0  0  0  0  0  0  0  0
    6.5711   -7.8153    1.0045 H   0  0  0  0  0  0  0  0  0  0  0  0
    5.5875   -9.1948    1.4976 H   0  0  0  0  0  0  0  0  0  0  0  0
    3.8427   -7.9554    1.4935 H   0  0  0  0  0  0  0  0  0  0  0  0
    3.6561   -5.3002   -0.3832 H   0  0  0  0  0  0  0  0  0  0  0  0
    1.9732   -5.0130    1.6599 H   0  0  0  0  0  0  0  0  0  0  0  0
    2.2082   -5.8784   -0.5921 H   0  0  0  0  0  0  0  0  0  0  0  0
    1.2504   -5.3034    3.6133 H   0  0  0  0  0  0  0  0  0  0  0  0
    0.4647   -6.6212    4.2564 H   0  0  0  0  0  0  0  0  0  0  0  0
    2.5530   -5.4776    5.4058 H   0  0  0  0  0  0  0  0  0  0  0  0
    1.7963   -8.0521    5.7975 H   0  0  0  0  0  0  0  0  0  0  0  0
    4.5487   -6.9155    5.3139 H   0  0  0  0  0  0  0  0  0  0  0  0
    2.8696   -9.4104    5.9193 H   0  0  0  0  0  0  0  0  0  0  0  0
    4.5856   -9.1403    6.0124 H   0  0  0  0  0  0  0  0  0  0  0  0
    3.9572  -10.4339    5.0127 H   0  0  0  0  0  0  0  0  0  0  0  0
    2.6931   -9.2382    2.2730 H   0  0  0  0  0  0  0  0  0  0  0  0
    1.9244  -10.5044    3.9479 H   0  0  0  0  0  0  0  0  0  0  0  0
    1.0718   -9.1888    4.7124 H   0  0  0  0  0  0  0  0  0  0  0  0
    0.5974  -10.2874    1.9268 H   0  0  0  0  0  0  0  0  0  0  0  0
   -0.3673  -10.6533    3.3449 H   0  0  0  0  0  0  0  0  0  0  0  0
   -1.3283   -8.9161    1.8844 H   0  0  0  0  0  0  0  0  0  0  0  0
   -0.8613   -8.1563    4.7897 H   0  0  0  0  0  0  0  0  0  0  0  0
   -2.1644   -9.0373    4.0638 H   0  0  0  0  0  0  0  0  0  0  0  0
   -1.9961   -7.3273    3.7203 H   0  0  0  0  0  0  0  0  0  0  0  0
    0.4998   -7.9854    0.9686 H   0  0  0  0  0  0  0  0  0  0  0  0
   -1.2722   -6.8262    1.1846 H   0  0  0  0  0  0  0  0  0  0  0  0
    3.1572   -4.4127    3.2527 H   0  0  0  0  0  0  0  0  0  0  0  0
    4.8184   -3.9699    3.3014 H   0  0  0  0  0  0  0  0  0  0  0  0
    4.1980   -4.5795    4.6420 H   0  0  0  0  0  0  0  0  0  0  0  0
  1  2  1  0
  1 31  1  0
  1 32  1  0
  1 33  1  0
  2  3  2  3
  2 34  1  0
  3 11  1  0
  3  4  1  0
  4  5  1  0
  4 35  1  0
  4 36  1  0
  5 29  1  0
  5  6  1  1
  5  7  1  0
  6 37  1  0
  7 21  1  0
  7  8  1  0
  7 38  1  6
  8  9  1  0
  8 39  1  0
  8 40  1  0
  9 29  1  0
  9 10  1  0
  9 41  1  1
 10 11  1  0
 11 12  1  0
 11 42  1  6
 12 13  1  0
 12 14  1  0
 12 43  1  1
 13 44  1  0
 14 22  1  0
 14 27  1  0
 14 15  1  1
 15 16  1  0
 15 45  1  0
 15 46  1  0
 16 17  1  0
 16 18  1  0
 16 47  1  1
 17 48  1  0
 18 19  1  0
 18 29  1  0
 18 49  1  1
 19 20  1  1
 19 21  1  0
 19 22  1  0
 20 50  1  0
 20 51  1  0
 20 52  1  0
 22 23  1  0
 22 53  1  6
 23 24  1  0
 23 54  1  0
 23 55  1  0
 24 25  1  0
 24 56  1  0
 24 57  1  0
 25 26  1  0
 25 27  1  0
 25 58  1  6
 26 59  1  0
 26 60  1  0
 26 61  1  0
 27 28  1  0
 27 62  1  6
 28 63  1  0
 29 30  1  6
 30 64  1  0
 30 65  1  0
 30 66  1  0
M  END
>  <i_m_ct_stereo_status>  (13) 
1

>  <s_m_source_file>  (13) 
/var/tmp/pbs.5076255.sched01/tmpokz5906q/0mijyat0o.sdf

>  <i_m_source_file_index>  (13) 
5

>  <i_lp_mmshare_version>  (13) 
48012

>  <i_f3d_flags>  (13) 
0

>  <s_epik_input>  (13) 
W0NIM10vW0NIXT1DKC9bQ0gyXTEpW0NASF0oW0NASF0yW09IXSlPW0NASF0zW0NIMl1bQ0BIXShPNClbQ0BdMShbT0hdKVtDQF0zKFtDSDNdKVtDQEBIXShbQ0BASF0oW0NIMl01KVtPSF0pW0NAQF00KFtDSDNdKVtDQEhdKFtDQF0yNTYpW0NIMl1bQ0gyXVtDQEBIXShbQ0gzXSlbQ0BIXTZbT0hd

>  <s_epik_cmdline>  (13) 
J2VwaWtfcHl0aG9uJywgJy1waHQnLCAnMi4wJywgJy1waCcsICc3LjAnLCAnLXRuJywgJzgnLCAnLW1hJywgJzIwMCcsICctaW1hZScsICc8aW5maWxlLm1hZT4nLCAnLW9tYWUnLCAnPG91dGZpbGUubWFlPic=

>  <r_lp_tautomer_probability>  (13) 
1

>  <r_epik_Ionization_Penalty>  (13) 
5.15479e-07

>  <r_epik_Ionization_Penalty_Charging>  (13) 
0

>  <r_epik_Ionization_Penalty_Neutral>  (13) 
5.15479e-07

>  <r_epik_State_Penalty>  (13) 
-0

>  <r_epik_Charging_Adjusted_Penalty>  (13) 
0

>  <i_epik_Tot_Q>  (13) 
0

>  <i_epik_Tot_abs_Q>  (13) 
0

>  <s_lp_Force_Field>  (13) 
OPLS3e

>  <r_lp_Energy>  (13) 
318.297

>  <b_lp_Chiralities_Consistent>  (13) 
1

>  <s_lp_Variant>  (13) 
2:0-2

>  <s_i_glide_gridfile>  (13) 
pfpi4k_grid

>  <i_i_glide_lignum>  (13) 
5

>  <i_i_glide_rotatable_bonds>  (13) 
4

>  <r_i_docking_score>  (13) 
-3.70956

>  <r_i_glide_ligand_efficiency>  (13) 
-0.123652

>  <r_i_glide_ligand_efficiency_sa>  (13) 
-0.384215

>  <r_i_glide_ligand_efficiency_ln>  (13) 
-0.842852

>  <r_i_glide_gscore>  (13) 
-3.70956

>  <r_i_glide_lipo>  (13) 
-0.403225

>  <r_i_glide_hbond>  (13) 
0

>  <r_i_glide_metal>  (13) 
-0

>  <r_i_glide_rewards>  (13) 
-0.541779

>  <r_i_glide_evdw>  (13) 
-23.5265

>  <r_i_glide_ecoul>  (13) 
-10.5882

>  <r_i_glide_erotb>  (13) 
0

>  <r_i_glide_esite>  (13) 
0

>  <r_i_glide_emodel>  (13) 
-41.5522

>  <r_i_glide_energy>  (13) 
-34.1147

>  <r_i_glide_einternal>  (13) 
1.42909

>  <r_i_glide_intrahb_reward>  (13) 
-0

>  <i_i_glide_confnum>  (13) 
1

>  <i_i_glide_posenum>  (13) 
1

>  <r_i_glide_eff_state_penalty>  (13) 
0

>  <ligand_id>  (13) 
2

>  <original_smiles>  (13) 
CC=C1CC2(O)C3CC4OC1C(O)C15CC(O)C(C(C)(O3)C1CCC(C)C5O)C42C

>  <smiles>  (13) 
[H]OC1([H])C([H])([H])C23C([H])(O[H])C4([H])OC5([H])C([H])([H])C6([H])OC(C([H])([H])[H])(C2([H])C([H])([H])C([H])([H])C([H])(C([H])([H])[H])C3([H])O[H])C1([H])C5(C([H])([H])[H])C6(O[H])C([H])([H])C4=C([H])C([H])([H])[H]

$$$$
2:1:1
     RDKit          3D

 66 71  0  0  1  0  0  0  0  0999 V2000
    7.1634   -3.4776    0.8311 C   0  0  0  0  0  0  0  0  0  0  0  0
    5.8996   -4.3097    0.7002 C   0  0  0  0  0  0  0  0  0  0  0  0
    5.7047   -5.6024    1.0517 C   0  0  0  0  0  0  0  0  0  0  0  0
    6.8999   -6.5234    1.6461 C   0  0  0  0  0  0  0  0  0  0  0  0
    6.5527   -7.5701    2.8630 C   0  0  2  0  0  0  0  0  0  0  0  0
    7.4636   -7.3608    3.9296 O   0  0  0  0  0  0  0  0  0  0  0  0
    6.4151   -9.1313    2.6242 C   0  0  2  0  0  0  0  0  0  0  0  0
    5.8246   -9.1761    1.2915 C   0  0  0  0  0  0  0  0  0  0  0  0
    4.8322   -8.0778    1.6152 C   0  0  2  0  0  0  0  0  0  0  0  0
    4.6517   -7.4781    0.3913 O   0  0  0  0  0  0  0  0  0  0  0  0
    4.2888   -6.2457    0.7349 C   0  0  1  0  0  0  0  0  0  0  0  0
    2.8591   -6.3671    1.6220 C   0  0  1  0  0  0  0  0  0  0  0  0
    1.9912   -6.2417    0.4957 O   0  0  0  0  0  0  0  0  0  0  0  0
    2.1840   -7.5007    2.7802 C   0  0  2  0  0  0  0  0  0  0  0  0
    2.2242   -6.8256    4.1915 C   0  0  0  0  0  0  0  0  0  0  0  0
    3.3670   -7.2596    5.1315 C   0  0  1  0  0  0  0  0  0  0  0  0
    2.8496   -7.9586    6.2459 O   0  0  0  0  0  0  0  0  0  0  0  0
    4.5391   -8.0117    4.3983 C   0  0  1  0  0  0  0  0  0  0  0  0
    4.1035   -9.3541    3.9050 C   0  0  2  0  0  0  0  0  0  0  0  0
    4.0662  -10.4167    5.0481 C   0  0  0  0  0  0  0  0  0  0  0  0
    5.3478   -9.8993    3.3139 O   0  0  0  0  0  0  0  0  0  0  0  0
    2.6632   -9.0943    3.1247 C   0  0  1  0  0  0  0  0  0  0  0  0
    1.5555   -9.9286    3.8324 C   0  0  0  0  0  0  0  0  0  0  0  0
    0.2206   -9.9175    3.1071 C   0  0  0  0  0  0  0  0  0  0  0  0
   -0.3594   -8.5150    3.1158 C   0  0  1  0  0  0  0  0  0  0  0  0
   -0.9350   -8.1152    4.4975 C   0  0  0  0  0  0  0  0  0  0  0  0
    0.6289   -7.5479    2.4064 C   0  0  1  0  0  0  0  0  0  0  0  0
    0.0241   -6.2581    2.4652 O   0  0  0  0  0  0  0  0  0  0  0  0
    5.1322   -7.2874    3.1358 C   0  0  1  0  0  0  0  0  0  0  0  0
    5.1383   -5.7588    3.6647 C   0  0  0  0  0  0  0  0  0  0  0  0
    7.0416   -2.7929    1.6704 H   0  0  0  0  0  0  0  0  0  0  0  0
    7.3001   -2.8772   -0.0696 H   0  0  0  0  0  0  0  0  0  0  0  0
    8.0723   -4.0617    0.9720 H   0  0  0  0  0  0  0  0  0  0  0  0
    5.0589   -3.7566    0.3070 H   0  0  0  0  0  0  0  0  0  0  0  0
    7.4147   -7.0217    0.8225 H   0  0  0  0  0  0  0  0  0  0  0  0
    7.6571   -5.8463    2.0405 H   0  0  0  0  0  0  0  0  0  0  0  0
    8.3303   -7.5604    3.6146 H   0  0  0  0  0  0  0  0  0  0  0  0
    7.3691   -9.6599    2.6335 H   0  0  0  0  0  0  0  0  0  0  0  0
    6.5490   -8.9371    0.5117 H   0  0  0  0  0  0  0  0  0  0  0  0
    5.3662  -10.1366    1.0390 H   0  0  0  0  0  0  0  0  0  0  0  0
    3.9410   -8.5896    1.4000 H   0  0  0  0  0  0  0  0  0  0  0  0
    4.0572   -5.7520   -0.2131 H   0  0  0  0  0  0  0  0  0  0  0  0
    2.7218   -5.3742    2.0434 H   0  0  0  0  0  0  0  0  0  0  0  0
    2.4733   -5.8562   -0.2187 H   0  0  0  0  0  0  0  0  0  0  0  0
    2.2555   -5.7433    4.0941 H   0  0  0  0  0  0  0  0  0  0  0  0
    1.2985   -6.9498    4.7333 H   0  0  0  0  0  0  0  0  0  0  0  0
    3.7118   -6.3696    5.6496 H   0  0  0  0  0  0  0  0  0  0  0  0
    2.5034   -8.7755    5.9313 H   0  0  0  0  0  0  0  0  0  0  0  0
    5.3347   -8.1419    5.1343 H   0  0  0  0  0  0  0  0  0  0  0  0
    3.2605  -10.3204    5.7735 H   0  0  0  0  0  0  0  0  0  0  0  0
    4.9913  -10.3970    5.6304 H   0  0  0  0  0  0  0  0  0  0  0  0
    3.9871  -11.4217    4.6306 H   0  0  0  0  0  0  0  0  0  0  0  0
    2.6553   -9.6997    2.2196 H   0  0  0  0  0  0  0  0  0  0  0  0
    1.8623  -10.9753    3.8738 H   0  0  0  0  0  0  0  0  0  0  0  0
    1.4006   -9.6180    4.8616 H   0  0  0  0  0  0  0  0  0  0  0  0
    0.3540  -10.2679    2.0798 H   0  0  0  0  0  0  0  0  0  0  0  0
   -0.4633  -10.6148    3.5885 H   0  0  0  0  0  0  0  0  0  0  0  0
   -1.2396   -8.5535    2.4750 H   0  0  0  0  0  0  0  0  0  0  0  0
   -0.2334   -8.2398    5.3224 H   0  0  0  0  0  0  0  0  0  0  0  0
   -1.7813   -8.7560    4.7452 H   0  0  0  0  0  0  0  0  0  0  0  0
   -1.3067   -7.0895    4.5131 H   0  0  0  0  0  0  0  0  0  0  0  0
    0.5648   -7.9004    1.3747 H   0  0  0  0  0  0  0  0  0  0  0  0
    0.2500   -5.8858    3.3062 H   0  0  0  0  0  0  0  0  0  0  0  0
    4.2252   -5.1994    3.5150 H   0  0  0  0  0  0  0  0  0  0  0  0
    5.9405   -5.0903    3.3608 H   0  0  0  0  0  0  0  0  0  0  0  0
    5.3824   -5.7170    4.7237 H   0  0  0  0  0  0  0  0  0  0  0  0
  1  2  1  0
  1 31  1  0
  1 32  1  0
  1 33  1  0
  2  3  2  3
  2 34  1  0
  3 11  1  0
  3  4  1  0
  4  5  1  0
  4 35  1  0
  4 36  1  0
  5 29  1  0
  5  6  1  1
  5  7  1  0
  6 37  1  0
  7 21  1  0
  7  8  1  0
  7 38  1  6
  8  9  1  0
  8 39  1  0
  8 40  1  0
  9 29  1  0
  9 10  1  0
  9 41  1  1
 10 11  1  0
 11 12  1  0
 11 42  1  6
 12 13  1  0
 12 14  1  0
 12 43  1  1
 13 44  1  0
 14 22  1  0
 14 27  1  0
 14 15  1  1
 15 16  1  0
 15 45  1  0
 15 46  1  0
 16 17  1  0
 16 18  1  0
 16 47  1  1
 17 48  1  0
 18 19  1  0
 18 29  1  0
 18 49  1  1
 19 20  1  1
 19 21  1  0
 19 22  1  0
 20 50  1  0
 20 51  1  0
 20 52  1  0
 22 23  1  0
 22 53  1  6
 23 24  1  0
 23 54  1  0
 23 55  1  0
 24 25  1  0
 24 56  1  0
 24 57  1  0
 25 26  1  0
 25 27  1  0
 25 58  1  6
 26 59  1  0
 26 60  1  0
 26 61  1  0
 27 28  1  0
 27 62  1  6
 28 63  1  0
 29 30  1  6
 30 64  1  0
 30 65  1  0
 30 66  1  0
M  END
>  <i_m_ct_stereo_status>  (14) 
1

>  <s_m_source_file>  (14) 
/var/tmp/pbs.5076255.sched01/tmpokz5906q/0mijyat0o.sdf

>  <i_m_source_file_index>  (14) 
5

>  <i_lp_mmshare_version>  (14) 
48012

>  <i_f3d_flags>  (14) 
0

>  <s_epik_input>  (14) 
W0NIM10vW0NIXT1DKC9bQ0gyXTEpW0NASF0oW0NASF0yW09IXSlPW0NASF0zW0NIMl1bQ0BIXShPNClbQ0BdMShbT0hdKVtDQF0zKFtDSDNdKVtDQEBIXShbQ0BASF0oW0NIMl01KVtPSF0pW0NAQF00KFtDSDNdKVtDQEhdKFtDQF0yNTYpW0NIMl1bQ0gyXVtDQEBIXShbQ0gzXSlbQ0BIXTZbT0hd

>  <s_epik_cmdline>  (14) 
J2VwaWtfcHl0aG9uJywgJy1waHQnLCAnMi4wJywgJy1waCcsICc3LjAnLCAnLXRuJywgJzgnLCAnLW1hJywgJzIwMCcsICctaW1hZScsICc8aW5maWxlLm1hZT4nLCAnLW9tYWUnLCAnPG91dGZpbGUubWFlPic=

>  <r_lp_tautomer_probability>  (14) 
1

>  <r_epik_Ionization_Penalty>  (14) 
5.15479e-07

>  <r_epik_Ionization_Penalty_Charging>  (14) 
0

>  <r_epik_Ionization_Penalty_Neutral>  (14) 
5.15479e-07

>  <r_epik_State_Penalty>  (14) 
-0

>  <r_epik_Charging_Adjusted_Penalty>  (14) 
0

>  <i_epik_Tot_Q>  (14) 
0

>  <i_epik_Tot_abs_Q>  (14) 
0

>  <s_lp_Force_Field>  (14) 
OPLS3e

>  <r_lp_Energy>  (14) 
318.297

>  <b_lp_Chiralities_Consistent>  (14) 
1

>  <s_lp_Variant>  (14) 
2:0-2

>  <s_i_glide_gridfile>  (14) 
pfpi4k_grid

>  <i_i_glide_lignum>  (14) 
5

>  <i_i_glide_rotatable_bonds>  (14) 
4

>  <r_i_docking_score>  (14) 
-3.62877

>  <r_i_glide_ligand_efficiency>  (14) 
-0.120959

>  <r_i_glide_ligand_efficiency_sa>  (14) 
-0.375847

>  <r_i_glide_ligand_efficiency_ln>  (14) 
-0.824495

>  <r_i_glide_gscore>  (14) 
-3.62877

>  <r_i_glide_lipo>  (14) 
-0.566507

>  <r_i_glide_hbond>  (14) 
0

>  <r_i_glide_metal>  (14) 
-0

>  <r_i_glide_rewards>  (14) 
-0.541779

>  <r_i_glide_evdw>  (14) 
-26.7264

>  <r_i_glide_ecoul>  (14) 
-7.89442

>  <r_i_glide_erotb>  (14) 
0

>  <r_i_glide_esite>  (14) 
0

>  <r_i_glide_emodel>  (14) 
-42.2758

>  <r_i_glide_energy>  (14) 
-34.6208

>  <r_i_glide_einternal>  (14) 
1.04656

>  <r_i_glide_intrahb_reward>  (14) 
-0

>  <i_i_glide_confnum>  (14) 
1

>  <i_i_glide_posenum>  (14) 
25

>  <r_i_glide_eff_state_penalty>  (14) 
0

>  <ligand_id>  (14) 
2

>  <original_smiles>  (14) 
CC=C1CC2(O)C3CC4OC1C(O)C15CC(O)C(C(C)(O3)C1CCC(C)C5O)C42C

>  <smiles>  (14) 
[H]OC1([H])C([H])([H])C23C([H])(O[H])C4([H])OC5([H])C([H])([H])C6([H])OC(C([H])([H])[H])(C2([H])C([H])([H])C([H])([H])C([H])(C([H])([H])[H])C3([H])O[H])C1([H])C5(C([H])([H])[H])C6(O[H])C([H])([H])C4=C([H])C([H])([H])[H]

$$$$
2:1:2
     RDKit          3D

 66 71  0  0  1  0  0  0  0  0999 V2000
   -3.4952    3.3462    2.8190 C   0  0  0  0  0  0  0  0  0  0  0  0
   -1.9863    3.1963    2.9106 C   0  0  0  0  0  0  0  0  0  0  0  0
   -1.2307    2.7557    3.9354 C   0  0  0  0  0  0  0  0  0  0  0  0
   -1.8640    2.3484    5.3595 C   0  0  0  0  0  0  0  0  0  0  0  0
   -1.2586    1.0335    6.1342 C   0  0  2  0  0  0  0  0  0  0  0  0
   -2.3082    0.1474    6.4540 O   0  0  0  0  0  0  0  0  0  0  0  0
   -0.3101    1.1607    7.3920 C   0  0  2  0  0  0  0  0  0  0  0  0
    0.4514    2.3572    7.0602 C   0  0  0  0  0  0  0  0  0  0  0  0
    0.6754    1.9114    5.6325 C   0  0  2  0  0  0  0  0  0  0  0  0
    0.7180    3.1175    4.9707 O   0  0  0  0  0  0  0  0  0  0  0  0
    0.3407    2.7678    3.7402 C   0  0  1  0  0  0  0  0  0  0  0  0
    1.4351    1.6163    3.1612 C   0  0  1  0  0  0  0  0  0  0  0  0
    2.3211    2.5794    2.6201 O   0  0  0  0  0  0  0  0  0  0  0  0
    2.3612    0.2887    3.8418 C   0  0  2  0  0  0  0  0  0  0  0  0
    1.7202   -1.0465    3.3487 C   0  0  0  0  0  0  0  0  0  0  0  0
    0.8148   -1.7788    4.3576 C   0  0  1  0  0  0  0  0  0  0  0  0
    1.4063   -2.9948    4.7613 O   0  0  0  0  0  0  0  0  0  0  0  0
    0.3551   -0.8779    5.5623 C   0  0  1  0  0  0  0  0  0  0  0  0
    1.4933   -0.5516    6.4718 C   0  0  2  0  0  0  0  0  0  0  0  0
    1.8527   -1.7307    7.4276 C   0  0  0  0  0  0  0  0  0  0  0  0
    0.8393    0.2328    7.5452 O   0  0  0  0  0  0  0  0  0  0  0  0
    2.7129   -0.0372    5.4751 C   0  0  1  0  0  0  0  0  0  0  0  0
    3.9374   -0.9776    5.6676 C   0  0  0  0  0  0  0  0  0  0  0  0
    5.1915   -0.5106    4.9493 C   0  0  0  0  0  0  0  0  0  0  0  0
    4.9625   -0.5696    3.4455 C   0  0  1  0  0  0  0  0  0  0  0  0
    4.9945   -2.0139    2.8848 C   0  0  0  0  0  0  0  0  0  0  0  0
    3.7614    0.3503    3.0684 C   0  0  1  0  0  0  0  0  0  0  0  0
    3.6235    0.2598    1.6523 O   0  0  0  0  0  0  0  0  0  0  0  0
   -0.2645    0.5165    5.1865 C   0  0  1  0  0  0  0  0  0  0  0  0
   -1.1421    0.0827    3.9072 C   0  0  0  0  0  0  0  0  0  0  0  0
   -3.9072    2.5520    2.1903 H   0  0  0  0  0  0  0  0  0  0  0  0
   -3.7491    4.2967    2.3494 H   0  0  0  0  0  0  0  0  0  0  0  0
   -4.0017    3.3226    3.7814 H   0  0  0  0  0  0  0  0  0  0  0  0
   -1.4544    3.4569    2.0215 H   0  0  0  0  0  0  0  0  0  0  0  0
   -1.8855    3.2291    6.0012 H   0  0  0  0  0  0  0  0  0  0  0  0
   -2.9142    2.1537    5.1786 H   0  0  0  0  0  0  0  0  0  0  0  0
   -2.8401    0.0747    5.6745 H   0  0  0  0  0  0  0  0  0  0  0  0
   -0.8540    1.2978    8.3288 H   0  0  0  0  0  0  0  0  0  0  0  0
   -0.1351    3.2690    7.1639 H   0  0  0  0  0  0  0  0  0  0  0  0
    1.3682    2.4757    7.6403 H   0  0  0  0  0  0  0  0  0  0  0  0
    1.7269    1.9392    5.5937 H   0  0  0  0  0  0  0  0  0  0  0  0
    0.4566    3.6817    3.1481 H   0  0  0  0  0  0  0  0  0  0  0  0
    0.9980    1.2437    2.2407 H   0  0  0  0  0  0  0  0  0  0  0  0
    1.8262    3.1551    2.0472 H   0  0  0  0  0  0  0  0  0  0  0  0
    1.1785   -0.8898    2.4176 H   0  0  0  0  0  0  0  0  0  0  0  0
    2.4707   -1.7525    3.0203 H   0  0  0  0  0  0  0  0  0  0  0  0
   -0.0179   -2.1877    3.7903 H   0  0  0  0  0  0  0  0  0  0  0  0
    1.7258   -3.4472    3.9969 H   0  0  0  0  0  0  0  0  0  0  0  0
   -0.3774   -1.4661    6.1115 H   0  0  0  0  0  0  0  0  0  0  0  0
    2.3404   -2.5825    6.9628 H   0  0  0  0  0  0  0  0  0  0  0  0
    0.9579   -2.1290    7.9099 H   0  0  0  0  0  0  0  0  0  0  0  0
    2.5107   -1.3887    8.2261 H   0  0  0  0  0  0  0  0  0  0  0  0
    3.2031    0.8173    5.9420 H   0  0  0  0  0  0  0  0  0  0  0  0
    4.2051   -1.0180    6.7244 H   0  0  0  0  0  0  0  0  0  0  0  0
    3.7124   -1.9986    5.3721 H   0  0  0  0  0  0  0  0  0  0  0  0
    5.4430    0.5073    5.2519 H   0  0  0  0  0  0  0  0  0  0  0  0
    6.0332   -1.1339    5.2440 H   0  0  0  0  0  0  0  0  0  0  0  0
    5.8403   -0.1000    2.9930 H   0  0  0  0  0  0  0  0  0  0  0  0
    4.3078   -2.6975    3.3839 H   0  0  0  0  0  0  0  0  0  0  0  0
    5.9849   -2.4472    3.0150 H   0  0  0  0  0  0  0  0  0  0  0  0
    4.7820   -2.0404    1.8150 H   0  0  0  0  0  0  0  0  0  0  0  0
    4.1840    1.3279    3.2958 H   0  0  0  0  0  0  0  0  0  0  0  0
    3.1192   -0.5080    1.4364 H   0  0  0  0  0  0  0  0  0  0  0  0
   -0.6371    0.0886    2.9515 H   0  0  0  0  0  0  0  0  0  0  0  0
   -2.0926    0.5690    3.7255 H   0  0  0  0  0  0  0  0  0  0  0  0
   -1.5700   -0.9057    4.0527 H   0  0  0  0  0  0  0  0  0  0  0  0
  1  2  1  0
  1 31  1  0
  1 32  1  0
  1 33  1  0
  2  3  2  3
  2 34  1  0
  3 11  1  0
  3  4  1  0
  4  5  1  0
  4 35  1  0
  4 36  1  0
  5 29  1  0
  5  6  1  1
  5  7  1  0
  6 37  1  0
  7 21  1  0
  7  8  1  0
  7 38  1  1
  8  9  1  0
  8 39  1  0
  8 40  1  0
  9 29  1  0
  9 10  1  0
  9 41  1  1
 10 11  1  0
 11 12  1  0
 11 42  1  6
 12 13  1  0
 12 14  1  0
 12 43  1  6
 13 44  1  0
 14 22  1  0
 14 27  1  0
 14 15  1  6
 15 16  1  0
 15 45  1  0
 15 46  1  0
 16 17  1  0
 16 18  1  0
 16 47  1  6
 17 48  1  0
 18 19  1  0
 18 29  1  0
 18 49  1  1
 19 20  1  1
 19 21  1  0
 19 22  1  0
 20 50  1  0
 20 51  1  0
 20 52  1  0
 22 23  1  0
 22 53  1  1
 23 24  1  0
 23 54  1  0
 23 55  1  0
 24 25  1  0
 24 56  1  0
 24 57  1  0
 25 26  1  0
 25 27  1  0
 25 58  1  6
 26 59  1  0
 26 60  1  0
 26 61  1  0
 27 28  1  0
 27 62  1  6
 28 63  1  0
 29 30  1  6
 30 64  1  0
 30 65  1  0
 30 66  1  0
M  END
>  <i_m_ct_stereo_status>  (15) 
1

>  <s_m_source_file>  (15) 
/var/tmp/pbs.5076255.sched01/tmpokz5906q/0mijyat0o.sdf

>  <i_m_source_file_index>  (15) 
5

>  <i_lp_mmshare_version>  (15) 
48012

>  <i_f3d_flags>  (15) 
0

>  <s_epik_input>  (15) 
W0NIM10vW0NIXT1DKC9bQ0gyXTEpW0NASF0oW0NASF0yW09IXSlPW0NASF0zW0NIMl1bQ0BIXShPNClbQ0BdMShbT0hdKVtDQF0zKFtDSDNdKVtDQEBIXShbQ0BASF0oW0NIMl01KVtPSF0pW0NAQF00KFtDSDNdKVtDQEhdKFtDQF0yNTYpW0NIMl1bQ0gyXVtDQEBIXShbQ0gzXSlbQ0BIXTZbT0hd

>  <s_epik_cmdline>  (15) 
J2VwaWtfcHl0aG9uJywgJy1waHQnLCAnMi4wJywgJy1waCcsICc3LjAnLCAnLXRuJywgJzgnLCAnLW1hJywgJzIwMCcsICctaW1hZScsICc8aW5maWxlLm1hZT4nLCAnLW9tYWUnLCAnPG91dGZpbGUubWFlPic=

>  <r_lp_tautomer_probability>  (15) 
1

>  <r_epik_Ionization_Penalty>  (15) 
5.15479e-07

>  <r_epik_Ionization_Penalty_Charging>  (15) 
0

>  <r_epik_Ionization_Penalty_Neutral>  (15) 
5.15479e-07

>  <r_epik_State_Penalty>  (15) 
-0

>  <r_epik_Charging_Adjusted_Penalty>  (15) 
0

>  <i_epik_Tot_Q>  (15) 
0

>  <i_epik_Tot_abs_Q>  (15) 
0

>  <s_lp_Force_Field>  (15) 
OPLS3e

>  <r_lp_Energy>  (15) 
318.297

>  <b_lp_Chiralities_Consistent>  (15) 
1

>  <s_lp_Variant>  (15) 
2:0-2

>  <s_i_glide_gridfile>  (15) 
pfpi4k_grid

>  <i_i_glide_lignum>  (15) 
5

>  <i_i_glide_rotatable_bonds>  (15) 
4

>  <r_i_docking_score>  (15) 
-3.04561

>  <r_i_glide_ligand_efficiency>  (15) 
-0.10152

>  <r_i_glide_ligand_efficiency_sa>  (15) 
-0.315447

>  <r_i_glide_ligand_efficiency_ln>  (15) 
-0.691996

>  <r_i_glide_gscore>  (15) 
-3.04561

>  <r_i_glide_lipo>  (15) 
-0.258314

>  <r_i_glide_hbond>  (15) 
0

>  <r_i_glide_metal>  (15) 
-0

>  <r_i_glide_rewards>  (15) 
-0.541779

>  <r_i_glide_evdw>  (15) 
-18.7878

>  <r_i_glide_ecoul>  (15) 
-8.70751

>  <r_i_glide_erotb>  (15) 
0

>  <r_i_glide_esite>  (15) 
0

>  <r_i_glide_emodel>  (15) 
-34.0114

>  <r_i_glide_energy>  (15) 
-27.4953

>  <r_i_glide_einternal>  (15) 
0.957638

>  <r_i_glide_intrahb_reward>  (15) 
-0

>  <i_i_glide_confnum>  (15) 
2

>  <i_i_glide_posenum>  (15) 
10

>  <r_i_glide_eff_state_penalty>  (15) 
0

>  <ligand_id>  (15) 
2

>  <original_smiles>  (15) 
CC=C1CC2(O)C3CC4OC1C(O)C15CC(O)C(C(C)(O3)C1CCC(C)C5O)C42C

>  <smiles>  (15) 
[H]OC1([H])C([H])([H])C23C([H])(O[H])C4([H])OC5([H])C([H])([H])C6([H])OC(C([H])([H])[H])(C2([H])C([H])([H])C([H])([H])C([H])(C([H])([H])[H])C3([H])O[H])C1([H])C5(C([H])([H])[H])C6(O[H])C([H])([H])C4=C([H])C([H])([H])[H]

$$$$
3:0:0
     RDKit          3D

 42 45  0  0  1  0  0  0  0  0999 V2000
    7.9807   -4.7905    0.9933 C   0  0  0  0  0  0  0  0  0  0  0  0
    6.8358   -4.0085    0.3289 C   0  0  2  0  0  0  0  0  0  0  0  0
    6.9488   -2.4879    0.6604 C   0  0  0  0  0  0  0  0  0  0  0  0
    5.9113   -1.5950   -0.0631 C   0  0  0  0  0  0  0  0  0  0  0  0
    4.8015   -2.4703   -0.6367 C   0  0  2  0  0  0  0  0  0  0  0  0
    3.6280   -1.9060   -1.4388 C   0  0  1  0  0  0  0  0  0  0  0  0
    4.0343   -1.2070   -2.7487 C   0  0  0  0  0  0  0  0  0  0  0  0
    2.8143   -3.1971   -1.6513 C   0  0  0  0  0  0  0  0  0  0  0  0
    2.8750   -3.8044   -0.2488 C   0  0  1  0  0  0  0  0  0  0  0  0
    2.3455   -5.0688    0.0555 O   0  0  0  0  0  0  0  0  0  0  0  0
    2.7309   -5.4600    1.3709 C   0  0  1  0  0  0  0  0  0  0  0  0
    1.5133   -6.1576    1.9924 C   0  0  0  0  0  0  0  0  0  0  0  0
    3.8906   -6.4690    1.2216 C   0  0  0  0  0  0  0  0  0  0  0  0
    5.0460   -5.9598    0.3421 C   0  0  0  0  0  0  0  0  0  0  0  0
    5.4086   -4.5269    0.7210 C   0  0  2  0  0  0  0  0  0  0  0  0
    4.2664   -3.5084    0.3676 C   0  0  1  0  0  0  0  0  0  0  0  0
    3.7680   -3.1392    1.6390 O   0  0  0  0  0  0  0  0  0  0  0  0
    3.0712   -4.3739    2.2917 O   0  0  0  0  0  0  0  0  0  0  0  0
    7.8986   -4.7758    2.0776 H   0  0  0  0  0  0  0  0  0  0  0  0
    8.9483   -4.3616    0.7304 H   0  0  0  0  0  0  0  0  0  0  0  0
    8.0000   -5.8308    0.6683 H   0  0  0  0  0  0  0  0  0  0  0  0
    6.9845   -4.1305   -0.7412 H   0  0  0  0  0  0  0  0  0  0  0  0
    6.8051   -2.3745    1.7353 H   0  0  0  0  0  0  0  0  0  0  0  0
    7.9541   -2.1211    0.4541 H   0  0  0  0  0  0  0  0  0  0  0  0
    5.5256   -0.8392    0.6197 H   0  0  0  0  0  0  0  0  0  0  0  0
    6.3835   -1.0679   -0.8869 H   0  0  0  0  0  0  0  0  0  0  0  0
    5.3015   -3.0430   -1.4208 H   0  0  0  0  0  0  0  0  0  0  0  0
    3.0508   -1.2136   -0.8225 H   0  0  0  0  0  0  0  0  0  0  0  0
    4.6366   -1.8593   -3.3843 H   0  0  0  0  0  0  0  0  0  0  0  0
    4.6171   -0.3065   -2.5411 H   0  0  0  0  0  0  0  0  0  0  0  0
    3.1513   -0.9049   -3.3143 H   0  0  0  0  0  0  0  0  0  0  0  0
    1.7916   -3.0036   -1.9781 H   0  0  0  0  0  0  0  0  0  0  0  0
    3.2922   -3.8507   -2.3765 H   0  0  0  0  0  0  0  0  0  0  0  0
    2.1407   -3.1616    0.2504 H   0  0  0  0  0  0  0  0  0  0  0  0
    0.6811   -5.4605    2.0935 H   0  0  0  0  0  0  0  0  0  0  0  0
    1.7433   -6.5359    2.9902 H   0  0  0  0  0  0  0  0  0  0  0  0
    1.1687   -7.0031    1.3920 H   0  0  0  0  0  0  0  0  0  0  0  0
    4.2726   -6.7190    2.2126 H   0  0  0  0  0  0  0  0  0  0  0  0
    3.5253   -7.4081    0.7960 H   0  0  0  0  0  0  0  0  0  0  0  0
    5.8907   -6.6312    0.4774 H   0  0  0  0  0  0  0  0  0  0  0  0
    4.7755   -6.0089   -0.7139 H   0  0  0  0  0  0  0  0  0  0  0  0
    5.4785   -4.5510    1.8096 H   0  0  0  0  0  0  0  0  0  0  0  0
  1  2  1  0
  1 19  1  0
  1 20  1  0
  1 21  1  0
  2 15  1  0
  2  3  1  0
  2 22  1  6
  3  4  1  0
  3 23  1  0
  3 24  1  0
  4  5  1  0
  4 25  1  0
  4 26  1  0
  5 16  1  0
  5  6  1  0
  5 27  1  6
  6  7  1  0
  6  8  1  0
  6 28  1  1
  7 29  1  0
  7 30  1  0
  7 31  1  0
  8  9  1  0
  8 32  1  0
  8 33  1  0
  9 16  1  0
  9 10  1  0
  9 34  1  1
 10 11  1  0
 11 18  1  0
 11 12  1  1
 11 13  1  0
 12 35  1  0
 12 36  1  0
 12 37  1  0
 13 14  1  0
 13 38  1  0
 13 39  1  0
 14 15  1  0
 14 40  1  0
 14 41  1  0
 15 16  1  0
 15 42  1  1
 16 17  1  1
 17 18  1  0
M  END
>  <i_m_ct_stereo_status>  (16) 
1

>  <s_m_source_file>  (16) 
/var/tmp/pbs.5076255.sched01/tmpokz5906q/0mijyat0o.sdf

>  <i_m_source_file_index>  (16) 
6

>  <i_lp_mmshare_version>  (16) 
48012

>  <i_f3d_flags>  (16) 
0

>  <s_epik_input>  (16) 
W0NAXTEyM1tDQEBIXTRbQ0gyXVtDSDJdW0NAQEhdKFtDSDNdKVtDQEBIXTJbQ0gyXVtDSDJdW0NAQF0oW0NIM10pKE9PMylPW0NAQEhdMVtDSDJdW0NAQEhdNFtDSDNd

>  <s_epik_cmdline>  (16) 
J2VwaWtfcHl0aG9uJywgJy1waHQnLCAnMi4wJywgJy1waCcsICc3LjAnLCAnLXRuJywgJzgnLCAnLW1hJywgJzIwMCcsICctaW1hZScsICc8aW5maWxlLm1hZT4nLCAnLW9tYWUnLCAnPG91dGZpbGUubWFlPic=

>  <r_lp_tautomer_probability>  (16) 
1

>  <r_epik_Ionization_Penalty>  (16) 
3.38105e-14

>  <r_epik_Ionization_Penalty_Charging>  (16) 
0

>  <r_epik_Ionization_Penalty_Neutral>  (16) 
3.38105e-14

>  <r_epik_State_Penalty>  (16) 
-0

>  <r_epik_Charging_Adjusted_Penalty>  (16) 
0

>  <i_epik_Tot_Q>  (16) 
0

>  <i_epik_Tot_abs_Q>  (16) 
0

>  <s_lp_Force_Field>  (16) 
OPLS3e

>  <r_lp_Energy>  (16) 
70.502

>  <b_lp_Chiralities_Consistent>  (16) 
1

>  <s_lp_Variant>  (16) 
3:0-1

>  <s_i_glide_gridfile>  (16) 
pfpi4k_grid

>  <i_i_glide_lignum>  (16) 
6

>  <i_i_glide_rotatable_bonds>  (16) 
0

>  <r_i_docking_score>  (16) 
-3.51933

>  <r_i_glide_ligand_efficiency>  (16) 
-0.195518

>  <r_i_glide_ligand_efficiency_sa>  (16) 
-0.512403

>  <r_i_glide_ligand_efficiency_ln>  (16) 
-0.904625

>  <r_i_glide_gscore>  (16) 
-3.51933

>  <r_i_glide_lipo>  (16) 
-0.722899

>  <r_i_glide_hbond>  (16) 
0

>  <r_i_glide_metal>  (16) 
-0

>  <r_i_glide_rewards>  (16) 
-1.68853

>  <r_i_glide_evdw>  (16) 
-22.7351

>  <r_i_glide_ecoul>  (16) 
0.28598

>  <r_i_glide_erotb>  (16) 
0

>  <r_i_glide_esite>  (16) 
-0.0140435

>  <r_i_glide_emodel>  (16) 
-27.3358

>  <r_i_glide_energy>  (16) 
-22.4491

>  <r_i_glide_einternal>  (16) 
0

>  <r_i_glide_intrahb_reward>  (16) 
-0

>  <i_i_glide_confnum>  (16) 
2

>  <i_i_glide_posenum>  (16) 
31

>  <r_i_glide_eff_state_penalty>  (16) 
0

>  <ligand_id>  (16) 
3

>  <original_smiles>  (16) 
CC1CCC2C(C)CC3OC4(C)CCC1C32OO4

>  <smiles>  (16) 
[H]C([H])([H])C12OOC34C([H])(O1)C([H])([H])C([H])(C([H])([H])[H])C3([H])C([H])([H])C([H])([H])C([H])(C([H])([H])[H])C4([H])C([H])([H])C2([H])[H]

$$$$
3:0:1
     RDKit          3D

 42 45  0  0  1  0  0  0  0  0999 V2000
    8.1939   -4.4093    0.8531 C   0  0  0  0  0  0  0  0  0  0  0  0
    6.9166   -3.8941    0.1731 C   0  0  2  0  0  0  0  0  0  0  0  0
    7.1990   -2.5451   -0.5627 C   0  0  0  0  0  0  0  0  0  0  0  0
    6.0055   -2.0357   -1.4052 C   0  0  0  0  0  0  0  0  0  0  0  0
    4.7399   -2.7773   -1.0124 C   0  0  2  0  0  0  0  0  0  0  0  0
    3.3878   -2.5116   -1.6668 C   0  0  1  0  0  0  0  0  0  0  0  0
    3.3397   -2.8158   -3.1773 C   0  0  0  0  0  0  0  0  0  0  0  0
    2.5162   -3.4540   -0.8175 C   0  0  0  0  0  0  0  0  0  0  0  0
    3.0194   -3.1188    0.5800 C   0  0  1  0  0  0  0  0  0  0  0  0
    2.6160   -3.8669    1.7018 O   0  0  0  0  0  0  0  0  0  0  0  0
    3.3770   -3.4604    2.8411 C   0  0  1  0  0  0  0  0  0  0  0  0
    2.4151   -3.3430    4.0343 C   0  0  0  0  0  0  0  0  0  0  0  0
    4.3846   -4.6054    3.0865 C   0  0  0  0  0  0  0  0  0  0  0  0
    5.1856   -4.9904    1.8296 C   0  0  0  0  0  0  0  0  0  0  0  0
    5.7036   -3.7306    1.1404 C   0  0  2  0  0  0  0  0  0  0  0  0
    4.5428   -2.8733    0.5141 C   0  0  1  0  0  0  0  0  0  0  0  0
    4.5157   -1.7331    1.3409 O   0  0  0  0  0  0  0  0  0  0  0  0
    4.0513   -2.1567    2.7590 O   0  0  0  0  0  0  0  0  0  0  0  0
    8.4996   -3.7663    1.6742 H   0  0  0  0  0  0  0  0  0  0  0  0
    9.0178   -4.4503    0.1437 H   0  0  0  0  0  0  0  0  0  0  0  0
    8.0666   -5.4145    1.2511 H   0  0  0  0  0  0  0  0  0  0  0  0
    6.6483   -4.6441   -0.5658 H   0  0  0  0  0  0  0  0  0  0  0  0
    7.4477   -1.8003    0.1936 H   0  0  0  0  0  0  0  0  0  0  0  0
    8.0811   -2.6367   -1.1990 H   0  0  0  0  0  0  0  0  0  0  0  0
    5.8779   -0.9566   -1.2892 H   0  0  0  0  0  0  0  0  0  0  0  0
    6.1988   -2.2404   -2.4584 H   0  0  0  0  0  0  0  0  0  0  0  0
    4.9116   -3.7986   -1.3636 H   0  0  0  0  0  0  0  0  0  0  0  0
    3.0758   -1.4795   -1.4961 H   0  0  0  0  0  0  0  0  0  0  0  0
    3.6632   -3.8388   -3.3879 H   0  0  0  0  0  0  0  0  0  0  0  0
    3.9881   -2.1357   -3.7328 H   0  0  0  0  0  0  0  0  0  0  0  0
    2.3250   -2.7023   -3.5658 H   0  0  0  0  0  0  0  0  0  0  0  0
    1.4540   -3.2488   -0.9528 H   0  0  0  0  0  0  0  0  0  0  0  0
    2.7009   -4.5002   -1.0573 H   0  0  0  0  0  0  0  0  0  0  0  0
    2.5077   -2.1570    0.7556 H   0  0  0  0  0  0  0  0  0  0  0  0
    1.6905   -2.5459    3.8716 H   0  0  0  0  0  0  0  0  0  0  0  0
    2.9554   -3.1046    4.9488 H   0  0  0  0  0  0  0  0  0  0  0  0
    1.8597   -4.2628    4.2118 H   0  0  0  0  0  0  0  0  0  0  0  0
    5.0672   -4.3106    3.8821 H   0  0  0  0  0  0  0  0  0  0  0  0
    3.8599   -5.4921    3.4429 H   0  0  0  0  0  0  0  0  0  0  0  0
    6.0016   -5.6364    2.1367 H   0  0  0  0  0  0  0  0  0  0  0  0
    4.5746   -5.5746    1.1397 H   0  0  0  0  0  0  0  0  0  0  0  0
    6.1380   -3.1291    1.9456 H   0  0  0  0  0  0  0  0  0  0  0  0
  1  2  1  0
  1 19  1  0
  1 20  1  0
  1 21  1  0
  2 15  1  0
  2  3  1  0
  2 22  1  6
  3  4  1  0
  3 23  1  0
  3 24  1  0
  4  5  1  0
  4 25  1  0
  4 26  1  0
  5 16  1  0
  5  6  1  0
  5 27  1  6
  6  7  1  0
  6  8  1  0
  6 28  1  6
  7 29  1  0
  7 30  1  0
  7 31  1  0
  8  9  1  0
  8 32  1  0
  8 33  1  0
  9 16  1  0
  9 10  1  0
  9 34  1  1
 10 11  1  0
 11 18  1  0
 11 12  1  1
 11 13  1  0
 12 35  1  0
 12 36  1  0
 12 37  1  0
 13 14  1  0
 13 38  1  0
 13 39  1  0
 14 15  1  0
 14 40  1  0
 14 41  1  0
 15 16  1  0
 15 42  1  1
 16 17  1  1
 17 18  1  0
M  END
>  <i_m_ct_stereo_status>  (17) 
1

>  <s_m_source_file>  (17) 
/var/tmp/pbs.5076255.sched01/tmpokz5906q/0mijyat0o.sdf

>  <i_m_source_file_index>  (17) 
6

>  <i_lp_mmshare_version>  (17) 
48012

>  <i_f3d_flags>  (17) 
0

>  <s_epik_input>  (17) 
W0NAXTEyM1tDQEBIXTRbQ0gyXVtDSDJdW0NAQEhdKFtDSDNdKVtDQEBIXTJbQ0gyXVtDSDJdW0NAQF0oW0NIM10pKE9PMylPW0NAQEhdMVtDSDJdW0NAQEhdNFtDSDNd

>  <s_epik_cmdline>  (17) 
J2VwaWtfcHl0aG9uJywgJy1waHQnLCAnMi4wJywgJy1waCcsICc3LjAnLCAnLXRuJywgJzgnLCAnLW1hJywgJzIwMCcsICctaW1hZScsICc8aW5maWxlLm1hZT4nLCAnLW9tYWUnLCAnPG91dGZpbGUubWFlPic=

>  <r_lp_tautomer_probability>  (17) 
1

>  <r_epik_Ionization_Penalty>  (17) 
3.38105e-14

>  <r_epik_Ionization_Penalty_Charging>  (17) 
0

>  <r_epik_Ionization_Penalty_Neutral>  (17) 
3.38105e-14

>  <r_epik_State_Penalty>  (17) 
-0

>  <r_epik_Charging_Adjusted_Penalty>  (17) 
0

>  <i_epik_Tot_Q>  (17) 
0

>  <i_epik_Tot_abs_Q>  (17) 
0

>  <s_lp_Force_Field>  (17) 
OPLS3e

>  <r_lp_Energy>  (17) 
70.502

>  <b_lp_Chiralities_Consistent>  (17) 
1

>  <s_lp_Variant>  (17) 
3:0-1

>  <s_i_glide_gridfile>  (17) 
pfpi4k_grid

>  <i_i_glide_lignum>  (17) 
6

>  <i_i_glide_rotatable_bonds>  (17) 
0

>  <r_i_docking_score>  (17) 
-3.14013

>  <r_i_glide_ligand_efficiency>  (17) 
-0.174452

>  <r_i_glide_ligand_efficiency_sa>  (17) 
-0.457193

>  <r_i_glide_ligand_efficiency_ln>  (17) 
-0.807154

>  <r_i_glide_gscore>  (17) 
-3.14013

>  <r_i_glide_lipo>  (17) 
-0.44645

>  <r_i_glide_hbond>  (17) 
0

>  <r_i_glide_metal>  (17) 
-0

>  <r_i_glide_rewards>  (17) 
-1.68901

>  <r_i_glide_evdw>  (17) 
-19.7631

>  <r_i_glide_ecoul>  (17) 
-0.110089

>  <r_i_glide_erotb>  (17) 
0

>  <r_i_glide_esite>  (17) 
0

>  <r_i_glide_emodel>  (17) 
-24.1941

>  <r_i_glide_energy>  (17) 
-19.8732

>  <r_i_glide_einternal>  (17) 
0

>  <r_i_glide_intrahb_reward>  (17) 
-0

>  <i_i_glide_confnum>  (17) 
1

>  <i_i_glide_posenum>  (17) 
13

>  <r_i_glide_eff_state_penalty>  (17) 
0

>  <ligand_id>  (17) 
3

>  <original_smiles>  (17) 
CC1CCC2C(C)CC3OC4(C)CCC1C32OO4

>  <smiles>  (17) 
[H]C([H])([H])C12OOC34C([H])(O1)C([H])([H])C([H])(C([H])([H])[H])C3([H])C([H])([H])C([H])([H])C([H])(C([H])([H])[H])C4([H])C([H])([H])C2([H])[H]

$$$$
3:0:2
     RDKit          3D

 42 45  0  0  1  0  0  0  0  0999 V2000
    4.6857   -2.6969    4.7770 C   0  0  0  0  0  0  0  0  0  0  0  0
    4.6011   -2.6822    3.2424 C   0  0  2  0  0  0  0  0  0  0  0  0
    3.3377   -1.8861    2.7826 C   0  0  0  0  0  0  0  0  0  0  0  0
    3.2275   -1.7060    1.2493 C   0  0  0  0  0  0  0  0  0  0  0  0
    4.1753   -2.6775    0.5510 C   0  0  2  0  0  0  0  0  0  0  0  0
    4.3251   -2.7519   -0.9702 C   0  0  1  0  0  0  0  0  0  0  0  0
    4.8528   -1.4558   -1.6133 C   0  0  0  0  0  0  0  0  0  0  0  0
    5.3076   -3.9335   -1.0734 C   0  0  0  0  0  0  0  0  0  0  0  0
    4.6790   -4.9071   -0.0842 C   0  0  1  0  0  0  0  0  0  0  0  0
    5.3223   -6.0987    0.2868 O   0  0  0  0  0  0  0  0  0  0  0  0
    4.5904   -6.7293    1.3396 C   0  0  1  0  0  0  0  0  0  0  0  0
    4.5355   -8.2397    1.0436 C   0  0  0  0  0  0  0  0  0  0  0  0
    5.4277   -6.4835    2.6136 C   0  0  0  0  0  0  0  0  0  0  0  0
    5.8047   -5.0043    2.8218 C   0  0  0  0  0  0  0  0  0  0  0  0
    4.5808   -4.1128    2.6060 C   0  0  2  0  0  0  0  0  0  0  0  0
    4.1011   -4.1122    1.1090 C   0  0  1  0  0  0  0  0  0  0  0  0
    2.8873   -4.8309    1.1562 O   0  0  0  0  0  0  0  0  0  0  0  0
    3.1942   -6.3132    1.5171 O   0  0  0  0  0  0  0  0  0  0  0  0
    3.8626   -3.2597    5.2154 H   0  0  0  0  0  0  0  0  0  0  0  0
    4.6437   -1.6851    5.1785 H   0  0  0  0  0  0  0  0  0  0  0  0
    5.6208   -3.1338    5.1248 H   0  0  0  0  0  0  0  0  0  0  0  0
    5.4888   -2.1439    2.9077 H   0  0  0  0  0  0  0  0  0  0  0  0
    2.4575   -2.4252    3.1344 H   0  0  0  0  0  0  0  0  0  0  0  0
    3.3026   -0.9082    3.2644 H   0  0  0  0  0  0  0  0  0  0  0  0
    2.1938   -1.8424    0.9269 H   0  0  0  0  0  0  0  0  0  0  0  0
    3.5083   -0.6860    0.9813 H   0  0  0  0  0  0  0  0  0  0  0  0
    5.1685   -2.3071    0.8152 H   0  0  0  0  0  0  0  0  0  0  0  0
    3.3753   -3.0263   -1.4315 H   0  0  0  0  0  0  0  0  0  0  0  0
    5.7891   -1.1338   -1.1536 H   0  0  0  0  0  0  0  0  0  0  0  0
    4.1275   -0.6505   -1.4934 H   0  0  0  0  0  0  0  0  0  0  0  0
    5.0268   -1.5902   -2.6827 H   0  0  0  0  0  0  0  0  0  0  0  0
    5.3662   -4.3399   -2.0827 H   0  0  0  0  0  0  0  0  0  0  0  0
    6.3119   -3.6512   -0.7537 H   0  0  0  0  0  0  0  0  0  0  0  0
    3.8458   -5.2851   -0.6956 H   0  0  0  0  0  0  0  0  0  0  0  0
    3.9674   -8.4438    0.1377 H   0  0  0  0  0  0  0  0  0  0  0  0
    4.0474   -8.7820    1.8523 H   0  0  0  0  0  0  0  0  0  0  0  0
    5.5231   -8.6762    0.9056 H   0  0  0  0  0  0  0  0  0  0  0  0
    4.8779   -6.8514    3.4779 H   0  0  0  0  0  0  0  0  0  0  0  0
    6.3504   -7.0632    2.5689 H   0  0  0  0  0  0  0  0  0  0  0  0
    6.1937   -4.8992    3.8300 H   0  0  0  0  0  0  0  0  0  0  0  0
    6.6069   -4.7071    2.1474 H   0  0  0  0  0  0  0  0  0  0  0  0
    3.7871   -4.5999    3.1792 H   0  0  0  0  0  0  0  0  0  0  0  0
  1  2  1  0
  1 19  1  0
  1 20  1  0
  1 21  1  0
  2 15  1  0
  2  3  1  0
  2 22  1  6
  3  4  1  0
  3 23  1  0
  3 24  1  0
  4  5  1  0
  4 25  1  0
  4 26  1  0
  5 16  1  0
  5  6  1  0
  5 27  1  1
  6  7  1  0
  6  8  1  0
  6 28  1  6
  7 29  1  0
  7 30  1  0
  7 31  1  0
  8  9  1  0
  8 32  1  0
  8 33  1  0
  9 16  1  0
  9 10  1  0
  9 34  1  6
 10 11  1  0
 11 18  1  0
 11 12  1  6
 11 13  1  0
 12 35  1  0
 12 36  1  0
 12 37  1  0
 13 14  1  0
 13 38  1  0
 13 39  1  0
 14 15  1  0
 14 40  1  0
 14 41  1  0
 15 16  1  0
 15 42  1  1
 16 17  1  1
 17 18  1  0
M  END
>  <i_m_ct_stereo_status>  (18) 
1

>  <s_m_source_file>  (18) 
/var/tmp/pbs.5076255.sched01/tmpokz5906q/0mijyat0o.sdf

>  <i_m_source_file_index>  (18) 
6

>  <i_lp_mmshare_version>  (18) 
48012

>  <i_f3d_flags>  (18) 
0

>  <s_epik_input>  (18) 
W0NAXTEyM1tDQEBIXTRbQ0gyXVtDSDJdW0NAQEhdKFtDSDNdKVtDQEBIXTJbQ0gyXVtDSDJdW0NAQF0oW0NIM10pKE9PMylPW0NAQEhdMVtDSDJdW0NAQEhdNFtDSDNd

>  <s_epik_cmdline>  (18) 
J2VwaWtfcHl0aG9uJywgJy1waHQnLCAnMi4wJywgJy1waCcsICc3LjAnLCAnLXRuJywgJzgnLCAnLW1hJywgJzIwMCcsICctaW1hZScsICc8aW5maWxlLm1hZT4nLCAnLW9tYWUnLCAnPG91dGZpbGUubWFlPic=

>  <r_lp_tautomer_probability>  (18) 
1

>  <r_epik_Ionization_Penalty>  (18) 
3.38105e-14

>  <r_epik_Ionization_Penalty_Charging>  (18) 
0

>  <r_epik_Ionization_Penalty_Neutral>  (18) 
3.38105e-14

>  <r_epik_State_Penalty>  (18) 
-0

>  <r_epik_Charging_Adjusted_Penalty>  (18) 
0

>  <i_epik_Tot_Q>  (18) 
0

>  <i_epik_Tot_abs_Q>  (18) 
0

>  <s_lp_Force_Field>  (18) 
OPLS3e

>  <r_lp_Energy>  (18) 
70.502

>  <b_lp_Chiralities_Consistent>  (18) 
1

>  <s_lp_Variant>  (18) 
3:0-1

>  <s_i_glide_gridfile>  (18) 
pfpi4k_grid

>  <i_i_glide_lignum>  (18) 
6

>  <i_i_glide_rotatable_bonds>  (18) 
0

>  <r_i_docking_score>  (18) 
-2.88895

>  <r_i_glide_ligand_efficiency>  (18) 
-0.160497

>  <r_i_glide_ligand_efficiency_sa>  (18) 
-0.420622

>  <r_i_glide_ligand_efficiency_ln>  (18) 
-0.74259

>  <r_i_glide_gscore>  (18) 
-2.88895

>  <r_i_glide_lipo>  (18) 
-0.127371

>  <r_i_glide_hbond>  (18) 
0

>  <r_i_glide_metal>  (18) 
-0

>  <r_i_glide_rewards>  (18) 
-1.80059

>  <r_i_glide_evdw>  (18) 
-18.0262

>  <r_i_glide_ecoul>  (18) 
-0.397851

>  <r_i_glide_erotb>  (18) 
0

>  <r_i_glide_esite>  (18) 
0

>  <r_i_glide_emodel>  (18) 
-22.4291

>  <r_i_glide_energy>  (18) 
-18.4241

>  <r_i_glide_einternal>  (18) 
0

>  <r_i_glide_intrahb_reward>  (18) 
-0

>  <i_i_glide_confnum>  (18) 
1

>  <i_i_glide_posenum>  (18) 
16

>  <r_i_glide_eff_state_penalty>  (18) 
0

>  <ligand_id>  (18) 
3

>  <original_smiles>  (18) 
CC1CCC2C(C)CC3OC4(C)CCC1C32OO4

>  <smiles>  (18) 
[H]C([H])([H])C12OOC34C([H])(O1)C([H])([H])C([H])(C([H])([H])[H])C3([H])C([H])([H])C([H])([H])C([H])(C([H])([H])[H])C4([H])C([H])([H])C2([H])[H]

$$$$
4:0:0
     RDKit          3D

 26 29  0  0  1  0  0  0  0  0999 V2000
    0.8443   -9.6484    2.8517 C   0  0  0  0  0  0  0  0  0  0  0  0
    1.5837   -8.4455    2.2992 C   0  0  0  0  0  0  0  0  0  0  0  0
    1.0227   -7.4667    1.5656 N   0  0  0  0  0  0  0  0  0  0  0  0
    2.0081   -6.5910    1.2491 N   0  0  0  0  0  0  0  0  0  0  0  0
    1.8176   -5.5062    0.4798 N   0  0  0  0  0  0  0  0  0  0  0  0
    3.0620   -5.0194    0.5238 C   0  0  0  0  0  0  0  0  0  0  0  0
    3.4448   -3.7600   -0.1460 C   0  0  0  0  0  0  0  0  0  0  0  0
    4.3474   -2.8695    0.4828 C   0  0  0  0  0  0  0  0  0  0  0  0
    4.7634   -1.6878   -0.1624 C   0  0  0  0  0  0  0  0  0  0  0  0
    4.2857   -1.4031   -1.4513 C   0  0  0  0  0  0  0  0  0  0  0  0
    4.4889   -0.3678   -2.3467 N   0  0  0  0  0  0  0  0  0  0  0  0
    3.7312   -0.6466   -3.4214 C   0  0  0  0  0  0  0  0  0  0  0  0
    3.0592   -1.7950   -3.3849 N   0  0  0  0  0  0  0  0  0  0  0  0
    3.3777   -2.2755   -2.1186 C   0  0  0  0  0  0  0  0  0  0  0  0
    2.9578   -3.4417   -1.4393 C   0  0  0  0  0  0  0  0  0  0  0  0
    3.9862   -5.7500    1.2368 N   0  0  0  0  0  0  0  0  0  0  0  0
    3.2833   -6.7531    1.6744 C   0  0  0  0  0  0  0  0  0  0  0  0
    3.3411   -8.2385    2.5981 S   0  0  0  0  0  0  0  0  0  0  0  0
    4.9954    0.4966   -2.1912 H   0  0  0  0  0  0  0  0  0  0  0  0
   -0.2133   -9.6501    2.5938 H   0  0  0  0  0  0  0  0  0  0  0  0
    0.9401   -9.6728    3.9353 H   0  0  0  0  0  0  0  0  0  0  0  0
    1.2951  -10.5647    2.4754 H   0  0  0  0  0  0  0  0  0  0  0  0
    4.7379   -3.1060    1.4637 H   0  0  0  0  0  0  0  0  0  0  0  0
    5.4380   -1.0062    0.3262 H   0  0  0  0  0  0  0  0  0  0  0  0
    3.6503    0.0216   -4.2715 H   0  0  0  0  0  0  0  0  0  0  0  0
    2.2848   -4.1202   -1.9425 H   0  0  0  0  0  0  0  0  0  0  0  0
  1  2  1  0
  1 20  1  0
  1 21  1  0
  1 22  1  0
  2 18  1  0
  2  3  2  0
  3  4  1  0
  4 17  1  0
  4  5  1  0
  5  6  2  0
  6  7  1  0
  6 16  1  0
  7 15  1  0
  7  8  2  0
  8  9  1  0
  8 23  1  0
  9 10  2  0
  9 24  1  0
 10 14  1  0
 10 11  1  0
 11 19  1  0
 11 12  1  0
 12 13  2  0
 12 25  1  0
 13 14  1  0
 14 15  2  0
 15 26  1  0
 16 17  2  0
 17 18  1  0
M  END
>  <i_m_ct_stereo_status>  (19) 
1

>  <s_m_source_file>  (19) 
/var/tmp/pbs.5076255.sched01/tmpokz5906q/0mijyat0o.sdf

>  <i_m_source_file_index>  (19) 
7

>  <i_lp_mmshare_version>  (19) 
48012

>  <i_f3d_flags>  (19) 
0

>  <s_epik_input>  (19) 
W0NIM11jKG4xKXNjKG4xMiluYyhuMiktYyhbY0hdW2NIXTMpW2NIXWMoYzM0KW5bY0hdW25IXTQ=

>  <s_epik_cmdline>  (19) 
J2VwaWtfcHl0aG9uJywgJy1waHQnLCAnMi4wJywgJy1waCcsICc3LjAnLCAnLXRuJywgJzgnLCAnLW1hJywgJzIwMCcsICctaW1hZScsICc8aW5maWxlLm1hZT4nLCAnLW9tYWUnLCAnPG91dGZpbGUubWFlPic=

>  <r_epik_Ionization_Penalty>  (19) 
0.0216365

>  <r_epik_Ionization_Penalty_Charging>  (19) 
0

>  <r_epik_Ionization_Penalty_Neutral>  (19) 
0.0216365

>  <r_epik_State_Penalty>  (19) 
0.38879

>  <r_epik_Charging_Adjusted_Penalty>  (19) 
0.38879

>  <i_epik_Tot_Q>  (19) 
0

>  <i_epik_Tot_abs_Q>  (19) 
0

>  <s_lp_Force_Field>  (19) 
OPLS3e

>  <r_lp_Energy>  (19) 
15.7658

>  <b_lp_Chiralities_Consistent>  (19) 
1

>  <s_lp_Variant>  (19) 
4:0-1

>  <s_i_glide_gridfile>  (19) 
pfpi4k_grid

>  <i_i_glide_lignum>  (19) 
7

>  <i_i_glide_rotatable_bonds>  (19) 
1

>  <r_i_docking_score>  (19) 
-4.32586

>  <r_i_glide_ligand_efficiency>  (19) 
-0.240326

>  <r_i_glide_ligand_efficiency_sa>  (19) 
-0.629832

>  <r_i_glide_ligand_efficiency_ln>  (19) 
-1.11194

>  <r_i_glide_gscore>  (19) 
-4.32586

>  <r_i_glide_lipo>  (19) 
-0.139576

>  <r_i_glide_hbond>  (19) 
-0.41736

>  <r_i_glide_metal>  (19) 
-0

>  <r_i_glide_rewards>  (19) 
-1.99828

>  <r_i_glide_evdw>  (19) 
-24.96

>  <r_i_glide_ecoul>  (19) 
-4.93631

>  <r_i_glide_erotb>  (19) 
0.268311

>  <r_i_glide_esite>  (19) 
-0.0505091

>  <r_i_glide_emodel>  (19) 
-37.3832

>  <r_i_glide_energy>  (19) 
-29.8963

>  <r_i_glide_einternal>  (19) 
0.922433

>  <r_i_glide_intrahb_reward>  (19) 
-0

>  <i_i_glide_confnum>  (19) 
2

>  <i_i_glide_posenum>  (19) 
1

>  <r_i_glide_eff_state_penalty>  (19) 
0

>  <ligand_id>  (19) 
4

>  <original_smiles>  (19) 
Cc1nn2nc(-c3ccc4[nH]cnc4c3)nc2s1

>  <smiles>  (19) 
[H]c1c(-c2nc3sc(C([H])([H])[H])nn3n2)c([H])c2nc([H])n([H])c2c1[H]

$$$$
4:0:1
     RDKit          3D

 26 29  0  0  1  0  0  0  0  0999 V2000
   -1.7958   -8.8342    2.6846 C   0  0  0  0  0  0  0  0  0  0  0  0
   -0.4179   -8.2831    2.3981 C   0  0  0  0  0  0  0  0  0  0  0  0
   -0.1734   -7.1245    1.7625 N   0  0  0  0  0  0  0  0  0  0  0  0
    1.1724   -6.9985    1.6722 N   0  0  0  0  0  0  0  0  0  0  0  0
    1.7892   -5.9527    1.0904 N   0  0  0  0  0  0  0  0  0  0  0  0
    3.0548   -6.3325    1.3203 C   0  0  0  0  0  0  0  0  0  0  0  0
    4.2287   -5.5332    0.8930 C   0  0  0  0  0  0  0  0  0  0  0  0
    5.4543   -5.6299    1.5968 C   0  0  0  0  0  0  0  0  0  0  0  0
    6.5894   -4.8983    1.1927 C   0  0  0  0  0  0  0  0  0  0  0  0
    6.5013   -4.0642    0.0726 C   0  0  0  0  0  0  0  0  0  0  0  0
    7.3940   -3.2341   -0.5866 N   0  0  0  0  0  0  0  0  0  0  0  0
    6.7165   -2.7239   -1.6253 C   0  0  0  0  0  0  0  0  0  0  0  0
    5.4474   -3.0935   -1.7571 N   0  0  0  0  0  0  0  0  0  0  0  0
    5.2931   -3.9479   -0.6769 C   0  0  0  0  0  0  0  0  0  0  0  0
    4.1689   -4.6862   -0.2434 C   0  0  0  0  0  0  0  0  0  0  0  0
    3.2368   -7.5225    1.9791 N   0  0  0  0  0  0  0  0  0  0  0  0
    2.0182   -7.9257    2.1872 C   0  0  0  0  0  0  0  0  0  0  0  0
    1.0430   -9.2018    2.8873 S   0  0  0  0  0  0  0  0  0  0  0  0
    8.3701   -3.0503   -0.3920 H   0  0  0  0  0  0  0  0  0  0  0  0
   -2.5826   -8.1765    2.3257 H   0  0  0  0  0  0  0  0  0  0  0  0
   -1.9191   -8.9843    3.7555 H   0  0  0  0  0  0  0  0  0  0  0  0
   -1.9071   -9.8079    2.2113 H   0  0  0  0  0  0  0  0  0  0  0  0
    5.5319   -6.2845    2.4576 H   0  0  0  0  0  0  0  0  0  0  0  0
    7.5146   -4.9784    1.7360 H   0  0  0  0  0  0  0  0  0  0  0  0
    7.1748   -2.0444   -2.3226 H   0  0  0  0  0  0  0  0  0  0  0  0
    3.2589   -4.6329   -0.8235 H   0  0  0  0  0  0  0  0  0  0  0  0
  1  2  1  0
  1 20  1  0
  1 21  1  0
  1 22  1  0
  2 18  1  0
  2  3  2  0
  3  4  1  0
  4 17  1  0
  4  5  1  0
  5  6  2  0
  6  7  1  0
  6 16  1  0
  7 15  1  0
  7  8  2  0
  8  9  1  0
  8 23  1  0
  9 10  2  0
  9 24  1  0
 10 14  1  0
 10 11  1  0
 11 19  1  0
 11 12  1  0
 12 13  2  0
 12 25  1  0
 13 14  1  0
 14 15  2  0
 15 26  1  0
 16 17  2  0
 17 18  1  0
M  END
>  <i_m_ct_stereo_status>  (20) 
1

>  <s_m_source_file>  (20) 
/var/tmp/pbs.5076255.sched01/tmpokz5906q/0mijyat0o.sdf

>  <i_m_source_file_index>  (20) 
7

>  <i_lp_mmshare_version>  (20) 
48012

>  <i_f3d_flags>  (20) 
0

>  <s_epik_input>  (20) 
W0NIM11jKG4xKXNjKG4xMiluYyhuMiktYyhbY0hdW2NIXTMpW2NIXWMoYzM0KW5bY0hdW25IXTQ=

>  <s_epik_cmdline>  (20) 
J2VwaWtfcHl0aG9uJywgJy1waHQnLCAnMi4wJywgJy1waCcsICc3LjAnLCAnLXRuJywgJzgnLCAnLW1hJywgJzIwMCcsICctaW1hZScsICc8aW5maWxlLm1hZT4nLCAnLW9tYWUnLCAnPG91dGZpbGUubWFlPic=

>  <r_epik_Ionization_Penalty>  (20) 
0.0216365

>  <r_epik_Ionization_Penalty_Charging>  (20) 
0

>  <r_epik_Ionization_Penalty_Neutral>  (20) 
0.0216365

>  <r_epik_State_Penalty>  (20) 
0.38879

>  <r_epik_Charging_Adjusted_Penalty>  (20) 
0.38879

>  <i_epik_Tot_Q>  (20) 
0

>  <i_epik_Tot_abs_Q>  (20) 
0

>  <s_lp_Force_Field>  (20) 
OPLS3e

>  <r_lp_Energy>  (20) 
15.7658

>  <b_lp_Chiralities_Consistent>  (20) 
1

>  <s_lp_Variant>  (20) 
4:0-1

>  <s_i_glide_gridfile>  (20) 
pfpi4k_grid

>  <i_i_glide_lignum>  (20) 
7

>  <i_i_glide_rotatable_bonds>  (20) 
1

>  <r_i_docking_score>  (20) 
-3.64587

>  <r_i_glide_ligand_efficiency>  (20) 
-0.202548

>  <r_i_glide_ligand_efficiency_sa>  (20) 
-0.530827

>  <r_i_glide_ligand_efficiency_ln>  (20) 
-0.937152

>  <r_i_glide_gscore>  (20) 
-3.64587

>  <r_i_glide_lipo>  (20) 
-0.430265

>  <r_i_glide_hbond>  (20) 
-0.053768

>  <r_i_glide_metal>  (20) 
-0

>  <r_i_glide_rewards>  (20) 
-1.71371

>  <r_i_glide_evdw>  (20) 
-27.1167

>  <r_i_glide_ecoul>  (20) 
-1.73953

>  <r_i_glide_erotb>  (20) 
0.268311

>  <r_i_glide_esite>  (20) 
-0.0996751

>  <r_i_glide_emodel>  (20) 
-35.361

>  <r_i_glide_energy>  (20) 
-28.8562

>  <r_i_glide_einternal>  (20) 
0.415838

>  <r_i_glide_intrahb_reward>  (20) 
-0

>  <i_i_glide_confnum>  (20) 
3

>  <i_i_glide_posenum>  (20) 
25

>  <r_i_glide_eff_state_penalty>  (20) 
0

>  <ligand_id>  (20) 
4

>  <original_smiles>  (20) 
Cc1nn2nc(-c3ccc4[nH]cnc4c3)nc2s1

>  <smiles>  (20) 
[H]c1c(-c2nc3sc(C([H])([H])[H])nn3n2)c([H])c2nc([H])n([H])c2c1[H]

$$$$
4:0:2
     RDKit          3D

 26 29  0  0  1  0  0  0  0  0999 V2000
    0.3054  -10.5506    2.9118 C   0  0  0  0  0  0  0  0  0  0  0  0
    1.0591   -9.3092    2.4884 C   0  0  0  0  0  0  0  0  0  0  0  0
    0.5660   -8.0596    2.5487 N   0  0  0  0  0  0  0  0  0  0  0  0
    1.5331   -7.2278    2.0900 N   0  0  0  0  0  0  0  0  0  0  0  0
    1.3883   -5.8918    1.9898 N   0  0  0  0  0  0  0  0  0  0  0  0
    2.5961   -5.6154    1.4808 C   0  0  0  0  0  0  0  0  0  0  0  0
    3.0224   -4.2383    1.1463 C   0  0  0  0  0  0  0  0  0  0  0  0
    3.8812   -4.0085    0.0443 C   0  0  0  0  0  0  0  0  0  0  0  0
    4.3207   -2.7077   -0.2740 C   0  0  0  0  0  0  0  0  0  0  0  0
    3.9047   -1.6248    0.5183 C   0  0  0  0  0  0  0  0  0  0  0  0
    4.1352   -0.2567    0.4979 N   0  0  0  0  0  0  0  0  0  0  0  0
    3.4334    0.2527    1.5249 C   0  0  0  0  0  0  0  0  0  0  0  0
    2.7683   -0.6192    2.2781 N   0  0  0  0  0  0  0  0  0  0  0  0
    3.0418   -1.8183    1.6379 C   0  0  0  0  0  0  0  0  0  0  0  0
    2.6130   -3.1343    1.9336 C   0  0  0  0  0  0  0  0  0  0  0  0
    3.4445   -6.6766    1.2720 N   0  0  0  0  0  0  0  0  0  0  0  0
    2.7364   -7.6923    1.6742 C   0  0  0  0  0  0  0  0  0  0  0  0
    2.7272   -9.4311    1.8436 S   0  0  0  0  0  0  0  0  0  0  0  0
    4.6634    0.3004   -0.1633 H   0  0  0  0  0  0  0  0  0  0  0  0
   -0.6873  -10.3143    3.2861 H   0  0  0  0  0  0  0  0  0  0  0  0
    0.8624  -11.0818    3.6805 H   0  0  0  0  0  0  0  0  0  0  0  0
    0.2132  -11.2305    2.0705 H   0  0  0  0  0  0  0  0  0  0  0  0
    4.2113   -4.8410   -0.5636 H   0  0  0  0  0  0  0  0  0  0  0  0
    4.9631   -2.5394   -1.1188 H   0  0  0  0  0  0  0  0  0  0  0  0
    3.4053    1.3114    1.7421 H   0  0  0  0  0  0  0  0  0  0  0  0
    1.9806   -3.2898    2.7954 H   0  0  0  0  0  0  0  0  0  0  0  0
  1  2  1  0
  1 20  1  0
  1 21  1  0
  1 22  1  0
  2 18  1  0
  2  3  2  0
  3  4  1  0
  4 17  1  0
  4  5  1  0
  5  6  2  0
  6  7  1  0
  6 16  1  0
  7 15  1  0
  7  8  2  0
  8  9  1  0
  8 23  1  0
  9 10  2  0
  9 24  1  0
 10 14  1  0
 10 11  1  0
 11 19  1  0
 11 12  1  0
 12 13  2  0
 12 25  1  0
 13 14  1  0
 14 15  2  0
 15 26  1  0
 16 17  2  0
 17 18  1  0
M  END
>  <i_m_ct_stereo_status>  (21) 
1

>  <s_m_source_file>  (21) 
/var/tmp/pbs.5076255.sched01/tmpokz5906q/0mijyat0o.sdf

>  <i_m_source_file_index>  (21) 
7

>  <i_lp_mmshare_version>  (21) 
48012

>  <i_f3d_flags>  (21) 
0

>  <s_epik_input>  (21) 
W0NIM11jKG4xKXNjKG4xMiluYyhuMiktYyhbY0hdW2NIXTMpW2NIXWMoYzM0KW5bY0hdW25IXTQ=

>  <s_epik_cmdline>  (21) 
J2VwaWtfcHl0aG9uJywgJy1waHQnLCAnMi4wJywgJy1waCcsICc3LjAnLCAnLXRuJywgJzgnLCAnLW1hJywgJzIwMCcsICctaW1hZScsICc8aW5maWxlLm1hZT4nLCAnLW9tYWUnLCAnPG91dGZpbGUubWFlPic=

>  <r_epik_Ionization_Penalty>  (21) 
0.0216365

>  <r_epik_Ionization_Penalty_Charging>  (21) 
0

>  <r_epik_Ionization_Penalty_Neutral>  (21) 
0.0216365

>  <r_epik_State_Penalty>  (21) 
0.38879

>  <r_epik_Charging_Adjusted_Penalty>  (21) 
0.38879

>  <i_epik_Tot_Q>  (21) 
0

>  <i_epik_Tot_abs_Q>  (21) 
0

>  <s_lp_Force_Field>  (21) 
OPLS3e

>  <r_lp_Energy>  (21) 
15.7658

>  <b_lp_Chiralities_Consistent>  (21) 
1

>  <s_lp_Variant>  (21) 
4:0-1

>  <s_i_glide_gridfile>  (21) 
pfpi4k_grid

>  <i_i_glide_lignum>  (21) 
7

>  <i_i_glide_rotatable_bonds>  (21) 
1

>  <r_i_docking_score>  (21) 
-3.63229

>  <r_i_glide_ligand_efficiency>  (21) 
-0.201794

>  <r_i_glide_ligand_efficiency_sa>  (21) 
-0.52885

>  <r_i_glide_ligand_efficiency_ln>  (21) 
-0.933662

>  <r_i_glide_gscore>  (21) 
-3.63229

>  <r_i_glide_lipo>  (21) 
-0.122867

>  <r_i_glide_hbond>  (21) 
-0.291577

>  <r_i_glide_metal>  (21) 
-0

>  <r_i_glide_rewards>  (21) 
-1.73652

>  <r_i_glide_evdw>  (21) 
-23.34

>  <r_i_glide_ecoul>  (21) 
-3.55896

>  <r_i_glide_erotb>  (21) 
0.268311

>  <r_i_glide_esite>  (21) 
-0.0488023

>  <r_i_glide_emodel>  (21) 
-33.2949

>  <r_i_glide_energy>  (21) 
-26.8989

>  <r_i_glide_einternal>  (21) 
0.601322

>  <r_i_glide_intrahb_reward>  (21) 
-0

>  <i_i_glide_confnum>  (21) 
3

>  <i_i_glide_posenum>  (21) 
10

>  <r_i_glide_eff_state_penalty>  (21) 
0

>  <ligand_id>  (21) 
4

>  <original_smiles>  (21) 
Cc1nn2nc(-c3ccc4[nH]cnc4c3)nc2s1

>  <smiles>  (21) 
[H]c1c(-c2nc3sc(C([H])([H])[H])nn3n2)c([H])c2nc([H])n([H])c2c1[H]

$$$$
4:1:0
     RDKit          3D

 26 29  0  0  1  0  0  0  0  0999 V2000
    0.6196  -10.5208    3.3317 C   0  0  0  0  0  0  0  0  0  0  0  0
    1.0664   -9.2334    2.6813 C   0  0  0  0  0  0  0  0  0  0  0  0
    2.3283   -8.9667    2.3144 N   0  0  0  0  0  0  0  0  0  0  0  0
    2.3341   -7.7298    1.7704 N   0  0  0  0  0  0  0  0  0  0  0  0
    3.4385   -7.1211    1.3065 N   0  0  0  0  0  0  0  0  0  0  0  0
    2.8761   -5.9749    0.9067 C   0  0  0  0  0  0  0  0  0  0  0  0
    3.6644   -4.8745    0.2934 C   0  0  0  0  0  0  0  0  0  0  0  0
    5.0771   -4.9332    0.1937 C   0  0  0  0  0  0  0  0  0  0  0  0
    5.8125   -3.8798   -0.3986 C   0  0  0  0  0  0  0  0  0  0  0  0
    5.1644   -2.7401   -0.9161 C   0  0  0  0  0  0  0  0  0  0  0  0
    5.6770   -1.6019   -1.5256 N   0  0  0  0  0  0  0  0  0  0  0  0
    4.5679   -0.9148   -1.7963 C   0  0  0  0  0  0  0  0  0  0  0  0
    3.4147   -1.4811   -1.4005 N   0  0  0  0  0  0  0  0  0  0  0  0
    3.7491   -2.6886   -0.8189 C   0  0  0  0  0  0  0  0  0  0  0  0
    3.0153   -3.7246   -0.2223 C   0  0  0  0  0  0  0  0  0  0  0  0
    1.5157   -5.8553    1.0983 N   0  0  0  0  0  0  0  0  0  0  0  0
    1.2062   -6.9892    1.6605 C   0  0  0  0  0  0  0  0  0  0  0  0
   -0.1096   -7.9216    2.3428 S   0  0  0  0  0  0  0  0  0  0  0  0
    1.4289  -11.2318    3.4668 H   0  0  0  0  0  0  0  0  0  0  0  0
   -0.1539  -10.9791    2.7177 H   0  0  0  0  0  0  0  0  0  0  0  0
    0.1704  -10.3044    4.3019 H   0  0  0  0  0  0  0  0  0  0  0  0
    5.6004   -5.7983    0.5753 H   0  0  0  0  0  0  0  0  0  0  0  0
    6.8837   -3.9490   -0.4656 H   0  0  0  0  0  0  0  0  0  0  0  0
    4.6110    0.0557   -2.2783 H   0  0  0  0  0  0  0  0  0  0  0  0
    1.9452   -3.6296   -0.1771 H   0  0  0  0  0  0  0  0  0  0  0  0
    2.4748   -1.0770   -1.4666 H   0  0  0  0  0  0  0  0  0  0  0  0
  1  2  1  0
  1 19  1  0
  1 20  1  0
  1 21  1  0
  2 18  1  0
  2  3  2  0
  3  4  1  0
  4 17  1  0
  4  5  1  0
  5  6  2  0
  6  7  1  0
  6 16  1  0
  7 15  1  0
  7  8  2  0
  8  9  1  0
  8 22  1  0
  9 10  2  0
  9 23  1  0
 10 14  1  0
 10 11  1  0
 11 12  2  0
 12 13  1  0
 12 24  1  0
 13 14  1  0
 13 26  1  0
 14 15  2  0
 15 25  1  0
 16 17  2  0
 17 18  1  0
M  END
>  <i_m_ct_stereo_status>  (22) 
1

>  <s_m_source_file>  (22) 
/var/tmp/pbs.5076255.sched01/tmpokz5906q/0mijyat0o.sdf

>  <i_m_source_file_index>  (22) 
8

>  <i_lp_mmshare_version>  (22) 
48012

>  <i_f3d_flags>  (22) 
0

>  <s_epik_input>  (22) 
W0NIM11jKG4xKXNjKG4xMiluYyhuMiktYyhbY0hdW2NIXTMpW2NIXWMoYzM0KW5bY0hdW25IXTQ=

>  <s_epik_cmdline>  (22) 
J2VwaWtfcHl0aG9uJywgJy1waHQnLCAnMi4wJywgJy1waCcsICc3LjAnLCAnLXRuJywgJzgnLCAnLW1hJywgJzIwMCcsICctaW1hZScsICc8aW5maWxlLm1hZT4nLCAnLW9tYWUnLCAnPG91dGZpbGUubWFlPic=

>  <r_epik_Ionization_Penalty>  (22) 
0.0238946

>  <r_epik_Ionization_Penalty_Charging>  (22) 
0

>  <r_epik_Ionization_Penalty_Neutral>  (22) 
0.0238946

>  <r_epik_State_Penalty>  (22) 
0.452768

>  <r_epik_Charging_Adjusted_Penalty>  (22) 
0.452768

>  <i_epik_Tot_Q>  (22) 
0

>  <i_epik_Tot_abs_Q>  (22) 
0

>  <s_lp_Force_Field>  (22) 
OPLS3e

>  <r_lp_Energy>  (22) 
15.1791

>  <b_lp_Chiralities_Consistent>  (22) 
1

>  <s_lp_Variant>  (22) 
4:0-2

>  <s_i_glide_gridfile>  (22) 
pfpi4k_grid

>  <i_i_glide_lignum>  (22) 
8

>  <i_i_glide_rotatable_bonds>  (22) 
1

>  <r_i_docking_score>  (22) 
-4.47002

>  <r_i_glide_ligand_efficiency>  (22) 
-0.248334

>  <r_i_glide_ligand_efficiency_sa>  (22) 
-0.65082

>  <r_i_glide_ligand_efficiency_ln>  (22) 
-1.14899

>  <r_i_glide_gscore>  (22) 
-4.47002

>  <r_i_glide_lipo>  (22) 
-0.170721

>  <r_i_glide_hbond>  (22) 
-0.336187

>  <r_i_glide_metal>  (22) 
-0

>  <r_i_glide_rewards>  (22) 
-1.66168

>  <r_i_glide_evdw>  (22) 
-25.1781

>  <r_i_glide_ecoul>  (22) 
-7.27904

>  <r_i_glide_erotb>  (22) 
0.268311

>  <r_i_glide_esite>  (22) 
-0.218979

>  <r_i_glide_emodel>  (22) 
-43.008

>  <r_i_glide_energy>  (22) 
-32.4572

>  <r_i_glide_einternal>  (22) 
0.0140613

>  <r_i_glide_intrahb_reward>  (22) 
-0

>  <i_i_glide_confnum>  (22) 
4

>  <i_i_glide_posenum>  (22) 
37

>  <r_i_glide_eff_state_penalty>  (22) 
0

>  <ligand_id>  (22) 
4

>  <original_smiles>  (22) 
Cc1nn2nc(-c3ccc4[nH]cnc4c3)nc2s1

>  <smiles>  (22) 
[H]c1c(-c2nc3sc(C([H])([H])[H])nn3n2)c([H])c2c(nc([H])n2[H])c1[H]

$$$$
4:1:1
     RDKit          3D

 26 29  0  0  1  0  0  0  0  0999 V2000
   -0.6165   -9.6825    3.0868 C   0  0  0  0  0  0  0  0  0  0  0  0
    0.4360   -8.7622    2.5193 C   0  0  0  0  0  0  0  0  0  0  0  0
    0.1898   -7.5609    1.9707 N   0  0  0  0  0  0  0  0  0  0  0  0
    1.3752   -7.0621    1.5633 N   0  0  0  0  0  0  0  0  0  0  0  0
    1.5139   -5.8685    0.9559 N   0  0  0  0  0  0  0  0  0  0  0  0
    2.8502   -5.8868    0.8175 C   0  0  0  0  0  0  0  0  0  0  0  0
    3.6180   -4.7881    0.1871 C   0  0  0  0  0  0  0  0  0  0  0  0
    5.0361   -4.8518    0.1081 C   0  0  0  0  0  0  0  0  0  0  0  0
    5.7938   -3.8246   -0.4931 C   0  0  0  0  0  0  0  0  0  0  0  0
    5.1596   -2.6969   -1.0479 C   0  0  0  0  0  0  0  0  0  0  0  0
    5.6814   -1.5734   -1.6708 N   0  0  0  0  0  0  0  0  0  0  0  0
    4.5726   -0.8955   -1.9722 C   0  0  0  0  0  0  0  0  0  0  0  0
    3.4149   -1.4579   -1.5957 N   0  0  0  0  0  0  0  0  0  0  0  0
    3.7363   -2.6463   -0.9769 C   0  0  0  0  0  0  0  0  0  0  0  0
    2.9794   -3.6587   -0.3682 C   0  0  0  0  0  0  0  0  0  0  0  0
    3.5020   -7.0015    1.2908 N   0  0  0  0  0  0  0  0  0  0  0  0
    2.5379   -7.7345    1.7547 C   0  0  0  0  0  0  0  0  0  0  0  0
    2.1553   -9.2572    2.5268 S   0  0  0  0  0  0  0  0  0  0  0  0
   -1.6205   -9.2642    3.0245 H   0  0  0  0  0  0  0  0  0  0  0  0
   -0.3907   -9.8956    4.1305 H   0  0  0  0  0  0  0  0  0  0  0  0
   -0.5842  -10.6317    2.5480 H   0  0  0  0  0  0  0  0  0  0  0  0
    5.5646   -5.7025    0.5115 H   0  0  0  0  0  0  0  0  0  0  0  0
    6.8689   -3.8912   -0.5400 H   0  0  0  0  0  0  0  0  0  0  0  0
    4.6113    0.0666   -2.4672 H   0  0  0  0  0  0  0  0  0  0  0  0
    1.9056   -3.5712   -0.3474 H   0  0  0  0  0  0  0  0  0  0  0  0
    2.4731   -1.0665   -1.6735 H   0  0  0  0  0  0  0  0  0  0  0  0
  1  2  1  0
  1 19  1  0
  1 20  1  0
  1 21  1  0
  2 18  1  0
  2  3  2  0
  3  4  1  0
  4 17  1  0
  4  5  1  0
  5  6  2  0
  6  7  1  0
  6 16  1  0
  7 15  1  0
  7  8  2  0
  8  9  1  0
  8 22  1  0
  9 10  2  0
  9 23  1  0
 10 14  1  0
 10 11  1  0
 11 12  2  0
 12 13  1  0
 12 24  1  0
 13 14  1  0
 13 26  1  0
 14 15  2  0
 15 25  1  0
 16 17  2  0
 17 18  1  0
M  END
>  <i_m_ct_stereo_status>  (23) 
1

>  <s_m_source_file>  (23) 
/var/tmp/pbs.5076255.sched01/tmpokz5906q/0mijyat0o.sdf

>  <i_m_source_file_index>  (23) 
8

>  <i_lp_mmshare_version>  (23) 
48012

>  <i_f3d_flags>  (23) 
0

>  <s_epik_input>  (23) 
W0NIM11jKG4xKXNjKG4xMiluYyhuMiktYyhbY0hdW2NIXTMpW2NIXWMoYzM0KW5bY0hdW25IXTQ=

>  <s_epik_cmdline>  (23) 
J2VwaWtfcHl0aG9uJywgJy1waHQnLCAnMi4wJywgJy1waCcsICc3LjAnLCAnLXRuJywgJzgnLCAnLW1hJywgJzIwMCcsICctaW1hZScsICc8aW5maWxlLm1hZT4nLCAnLW9tYWUnLCAnPG91dGZpbGUubWFlPic=

>  <r_epik_Ionization_Penalty>  (23) 
0.0238946

>  <r_epik_Ionization_Penalty_Charging>  (23) 
0

>  <r_epik_Ionization_Penalty_Neutral>  (23) 
0.0238946

>  <r_epik_State_Penalty>  (23) 
0.452768

>  <r_epik_Charging_Adjusted_Penalty>  (23) 
0.452768

>  <i_epik_Tot_Q>  (23) 
0

>  <i_epik_Tot_abs_Q>  (23) 
0

>  <s_lp_Force_Field>  (23) 
OPLS3e

>  <r_lp_Energy>  (23) 
15.1791

>  <b_lp_Chiralities_Consistent>  (23) 
1

>  <s_lp_Variant>  (23) 
4:0-2

>  <s_i_glide_gridfile>  (23) 
pfpi4k_grid

>  <i_i_glide_lignum>  (23) 
8

>  <i_i_glide_rotatable_bonds>  (23) 
1

>  <r_i_docking_score>  (23) 
-4.43268

>  <r_i_glide_ligand_efficiency>  (23) 
-0.24626

>  <r_i_glide_ligand_efficiency_sa>  (23) 
-0.645384

>  <r_i_glide_ligand_efficiency_ln>  (23) 
-1.1394

>  <r_i_glide_gscore>  (23) 
-4.43268

>  <r_i_glide_lipo>  (23) 
-0.14115

>  <r_i_glide_hbond>  (23) 
-0.329888

>  <r_i_glide_metal>  (23) 
-0

>  <r_i_glide_rewards>  (23) 
-1.66168

>  <r_i_glide_evdw>  (23) 
-25.1441

>  <r_i_glide_ecoul>  (23) 
-7.35091

>  <r_i_glide_erotb>  (23) 
0.268311

>  <r_i_glide_esite>  (23) 
-0.208436

>  <r_i_glide_emodel>  (23) 
-42.9296

>  <r_i_glide_energy>  (23) 
-32.495

>  <r_i_glide_einternal>  (23) 
0.00396288

>  <r_i_glide_intrahb_reward>  (23) 
-0

>  <i_i_glide_confnum>  (23) 
2

>  <i_i_glide_posenum>  (23) 
1

>  <r_i_glide_eff_state_penalty>  (23) 
0

>  <ligand_id>  (23) 
4

>  <original_smiles>  (23) 
Cc1nn2nc(-c3ccc4[nH]cnc4c3)nc2s1

>  <smiles>  (23) 
[H]c1c(-c2nc3sc(C([H])([H])[H])nn3n2)c([H])c2c(nc([H])n2[H])c1[H]

$$$$
4:1:2
     RDKit          3D

 26 29  0  0  1  0  0  0  0  0999 V2000
    5.1774   -4.3330    0.0171 C   0  0  0  0  0  0  0  0  0  0  0  0
    4.5177   -3.0484    0.4653 C   0  0  0  0  0  0  0  0  0  0  0  0
    3.3777   -2.9895    1.1719 N   0  0  0  0  0  0  0  0  0  0  0  0
    3.1013   -1.6818    1.3813 N   0  0  0  0  0  0  0  0  0  0  0  0
    2.0353   -1.2409    2.0765 N   0  0  0  0  0  0  0  0  0  0  0  0
    2.2711    0.0709    1.9653 C   0  0  0  0  0  0  0  0  0  0  0  0
    1.3960    1.1002    2.5576 C   0  0  0  0  0  0  0  0  0  0  0  0
    1.9452    2.2725    3.1314 C   0  0  0  0  0  0  0  0  0  0  0  0
    1.1244    3.2822    3.6796 C   0  0  0  0  0  0  0  0  0  0  0  0
   -0.2796    3.1633    3.6487 C   0  0  0  0  0  0  0  0  0  0  0  0
   -1.2859    4.0070    4.1157 N   0  0  0  0  0  0  0  0  0  0  0  0
   -2.3794    3.3204    3.7850 C   0  0  0  0  0  0  0  0  0  0  0  0
   -2.1828    2.1442    3.1736 N   0  0  0  0  0  0  0  0  0  0  0  0
   -0.8213    1.9902    3.0523 C   0  0  0  0  0  0  0  0  0  0  0  0
   -0.0090    0.9796    2.5153 C   0  0  0  0  0  0  0  0  0  0  0  0
    3.4152    0.4404    1.2905 N   0  0  0  0  0  0  0  0  0  0  0  0
    3.9146   -0.7015    0.9231 C   0  0  0  0  0  0  0  0  0  0  0  0
    5.2392   -1.4585    0.0715 S   0  0  0  0  0  0  0  0  0  0  0  0
    4.6417   -5.2217    0.3438 H   0  0  0  0  0  0  0  0  0  0  0  0
    6.1948   -4.3770    0.4006 H   0  0  0  0  0  0  0  0  0  0  0  0
    5.2490   -4.3484   -1.0683 H   0  0  0  0  0  0  0  0  0  0  0  0
    3.0167    2.4036    3.1305 H   0  0  0  0  0  0  0  0  0  0  0  0
    1.5590    4.1678    4.1089 H   0  0  0  0  0  0  0  0  0  0  0  0
   -3.3729    3.6736    4.0050 H   0  0  0  0  0  0  0  0  0  0  0  0
   -0.4582    0.1313    2.0352 H   0  0  0  0  0  0  0  0  0  0  0  0
   -2.9114    1.4891    2.8879 H   0  0  0  0  0  0  0  0  0  0  0  0
  1  2  1  0
  1 19  1  0
  1 20  1  0
  1 21  1  0
  2 18  1  0
  2  3  2  0
  3  4  1  0
  4 17  1  0
  4  5  1  0
  5  6  2  0
  6  7  1  0
  6 16  1  0
  7 15  1  0
  7  8  2  0
  8  9  1  0
  8 22  1  0
  9 10  2  0
  9 23  1  0
 10 14  1  0
 10 11  1  0
 11 12  2  0
 12 13  1  0
 12 24  1  0
 13 14  1  0
 13 26  1  0
 14 15  2  0
 15 25  1  0
 16 17  2  0
 17 18  1  0
M  END
>  <i_m_ct_stereo_status>  (24) 
1

>  <s_m_source_file>  (24) 
/var/tmp/pbs.5076255.sched01/tmpokz5906q/0mijyat0o.sdf

>  <i_m_source_file_index>  (24) 
8

>  <i_lp_mmshare_version>  (24) 
48012

>  <i_f3d_flags>  (24) 
0

>  <s_epik_input>  (24) 
W0NIM11jKG4xKXNjKG4xMiluYyhuMiktYyhbY0hdW2NIXTMpW2NIXWMoYzM0KW5bY0hdW25IXTQ=

>  <s_epik_cmdline>  (24) 
J2VwaWtfcHl0aG9uJywgJy1waHQnLCAnMi4wJywgJy1waCcsICc3LjAnLCAnLXRuJywgJzgnLCAnLW1hJywgJzIwMCcsICctaW1hZScsICc8aW5maWxlLm1hZT4nLCAnLW9tYWUnLCAnPG91dGZpbGUubWFlPic=

>  <r_epik_Ionization_Penalty>  (24) 
0.0238946

>  <r_epik_Ionization_Penalty_Charging>  (24) 
0

>  <r_epik_Ionization_Penalty_Neutral>  (24) 
0.0238946

>  <r_epik_State_Penalty>  (24) 
0.452768

>  <r_epik_Charging_Adjusted_Penalty>  (24) 
0.452768

>  <i_epik_Tot_Q>  (24) 
0

>  <i_epik_Tot_abs_Q>  (24) 
0

>  <s_lp_Force_Field>  (24) 
OPLS3e

>  <r_lp_Energy>  (24) 
15.1791

>  <b_lp_Chiralities_Consistent>  (24) 
1

>  <s_lp_Variant>  (24) 
4:0-2

>  <s_i_glide_gridfile>  (24) 
pfpi4k_grid

>  <i_i_glide_lignum>  (24) 
8

>  <i_i_glide_rotatable_bonds>  (24) 
1

>  <r_i_docking_score>  (24) 
-3.86463

>  <r_i_glide_ligand_efficiency>  (24) 
-0.214702

>  <r_i_glide_ligand_efficiency_sa>  (24) 
-0.562678

>  <r_i_glide_ligand_efficiency_ln>  (24) 
-0.993383

>  <r_i_glide_gscore>  (24) 
-3.86463

>  <r_i_glide_lipo>  (24) 
-0.087017

>  <r_i_glide_hbond>  (24) 
-0.32

>  <r_i_glide_metal>  (24) 
-0

>  <r_i_glide_rewards>  (24) 
-1.67592

>  <r_i_glide_evdw>  (24) 
-22.7395

>  <r_i_glide_ecoul>  (24) 
-5.14794

>  <r_i_glide_erotb>  (24) 
0.268311

>  <r_i_glide_esite>  (24) 
-0.140838

>  <r_i_glide_emodel>  (24) 
-36.6004

>  <r_i_glide_energy>  (24) 
-27.8875

>  <r_i_glide_einternal>  (24) 
0.76498

>  <r_i_glide_intrahb_reward>  (24) 
-0

>  <i_i_glide_confnum>  (24) 
2

>  <i_i_glide_posenum>  (24) 
19

>  <r_i_glide_eff_state_penalty>  (24) 
0

>  <ligand_id>  (24) 
4

>  <original_smiles>  (24) 
Cc1nn2nc(-c3ccc4[nH]cnc4c3)nc2s1

>  <smiles>  (24) 
[H]c1c(-c2nc3sc(C([H])([H])[H])nn3n2)c([H])c2c(nc([H])n2[H])c1[H]

$$$$
4:2:0
     RDKit          3D

 27 30  0  0  1  0  0  0  0  0999 V2000
    0.1947  -10.1517    3.5456 C   0  0  0  0  0  0  0  0  0  0  0  0
    1.1004   -9.1546    2.8479 C   0  0  0  0  0  0  0  0  0  0  0  0
    0.7166   -7.9701    2.3390 N   0  0  0  0  0  0  0  0  0  0  0  0
    1.8121   -7.3905    1.7983 N   0  0  0  0  0  0  0  0  0  0  0  0
    1.7846   -6.1897    1.1972 N   0  0  0  0  0  0  0  0  0  0  0  0
    3.0856   -6.1138    0.8901 C   0  0  0  0  0  0  0  0  0  0  0  0
    3.7039   -4.9615    0.1773 C   0  0  0  0  0  0  0  0  0  0  0  0
    5.1105   -4.9126   -0.0321 C   0  0  0  0  0  0  0  0  0  0  0  0
    5.7484   -3.8470   -0.7186 C   0  0  0  0  0  0  0  0  0  0  0  0
    4.9195   -2.8467   -1.2016 C   0  0  0  0  0  0  0  0  0  0  0  0
    5.1901   -1.6793   -1.9120 N   0  0  0  0  0  0  0  0  0  0  0  0
    4.0252   -1.0228   -2.1634 C   0  0  0  0  0  0  0  0  0  0  0  0
    3.0187   -1.7512   -1.6109 N   0  0  0  0  0  0  0  0  0  0  0  0
    3.5374   -2.8866   -1.0131 C   0  0  0  0  0  0  0  0  0  0  0  0
    2.9025   -3.9126   -0.3215 C   0  0  0  0  0  0  0  0  0  0  0  0
    3.8783   -7.1818    1.2606 N   0  0  0  0  0  0  0  0  0  0  0  0
    3.0324   -7.9870    1.8369 C   0  0  0  0  0  0  0  0  0  0  0  0
    2.8443   -9.5287    2.6428 S   0  0  0  0  0  0  0  0  0  0  0  0
    6.0997   -1.3687   -2.2173 H   0  0  0  0  0  0  0  0  0  0  0  0
   -0.8321   -9.7983    3.5987 H   0  0  0  0  0  0  0  0  0  0  0  0
    0.5504  -10.3458    4.5594 H   0  0  0  0  0  0  0  0  0  0  0  0
    0.2162  -11.1032    3.0117 H   0  0  0  0  0  0  0  0  0  0  0  0
    5.7341   -5.7154    0.3275 H   0  0  0  0  0  0  0  0  0  0  0  0
    6.8166   -3.8318   -0.8611 H   0  0  0  0  0  0  0  0  0  0  0  0
    3.9348   -0.0696   -2.6773 H   0  0  0  0  0  0  0  0  0  0  0  0
    1.8345   -3.9309   -0.2151 H   0  0  0  0  0  0  0  0  0  0  0  0
    2.0367   -1.4519   -1.5044 H   0  0  0  0  0  0  0  0  0  0  0  0
  1  2  1  0
  1 20  1  0
  1 21  1  0
  1 22  1  0
  2 18  1  0
  2  3  2  0
  3  4  1  0
  4 17  1  0
  4  5  1  0
  5  6  2  0
  6  7  1  0
  6 16  1  0
  7 15  1  0
  7  8  2  0
  8  9  1  0
  8 23  1  0
  9 10  2  0
  9 24  1  0
 10 14  1  0
 10 11  1  0
 11 19  1  0
 11 12  1  0
 12 13  2  0
 12 25  1  0
 13 14  1  0
 13 27  1  0
 14 15  2  0
 15 26  1  0
 16 17  2  0
 17 18  1  0
M  CHG  1  13   1
M  END
>  <i_m_ct_stereo_status>  (25) 
1

>  <s_m_source_file>  (25) 
/var/tmp/pbs.5076255.sched01/tmpokz5906q/0mijyat0o.sdf

>  <i_m_source_file_index>  (25) 
9

>  <i_lp_mmshare_version>  (25) 
48012

>  <i_f3d_flags>  (25) 
0

>  <s_epik_input>  (25) 
W0NIM11jKG4xKXNjKG4xMiluYyhuMiktYyhbY0hdW2NIXTMpW2NIXWMoYzM0KW5bY0hdW25IXTQ=

>  <s_epik_cmdline>  (25) 
J2VwaWtfcHl0aG9uJywgJy1waHQnLCAnMi4wJywgJy1waCcsICc3LjAnLCAnLXRuJywgJzgnLCAnLW1hJywgJzIwMCcsICctaW1hZScsICc8aW5maWxlLm1hZT4nLCAnLW9tYWUnLCAnPG91dGZpbGUubWFlPic=

>  <r_epik_Ionization_Penalty>  (25) 
3.88646

>  <r_epik_Ionization_Penalty_Charging>  (25) 
3.88646

>  <r_epik_Ionization_Penalty_Neutral>  (25) 
3.22154e-06

>  <r_epik_State_Penalty>  (25) 
2.47008

>  <r_epik_Charging_Adjusted_Penalty>  (25) 
6.35654

>  <i_epik_Tot_Q>  (25) 
1

>  <i_epik_Tot_abs_Q>  (25) 
1

>  <s_lp_Force_Field>  (25) 
OPLS3e

>  <r_lp_Energy>  (25) 
20.7703

>  <b_lp_Chiralities_Consistent>  (25) 
1

>  <s_lp_Variant>  (25) 
4:0-3

>  <s_i_glide_gridfile>  (25) 
pfpi4k_grid

>  <i_i_glide_lignum>  (25) 
9

>  <i_i_glide_rotatable_bonds>  (25) 
1

>  <r_i_docking_score>  (25) 
-4.25336

>  <r_i_glide_ligand_efficiency>  (25) 
-0.236298

>  <r_i_glide_ligand_efficiency_sa>  (25) 
-0.619275

>  <r_i_glide_ligand_efficiency_ln>  (25) 
-1.0933

>  <r_i_glide_gscore>  (25) 
-4.25336

>  <r_i_glide_lipo>  (25) 
-0.0945841

>  <r_i_glide_hbond>  (25) 
-0.2

>  <r_i_glide_metal>  (25) 
-0

>  <r_i_glide_rewards>  (25) 
-1.6548

>  <r_i_glide_evdw>  (25) 
-22.0851

>  <r_i_glide_ecoul>  (25) 
-8.47695

>  <r_i_glide_erotb>  (25) 
0.266506

>  <r_i_glide_esite>  (25) 
-0.194676

>  <r_i_glide_emodel>  (25) 
-40.956

>  <r_i_glide_energy>  (25) 
-30.5621

>  <r_i_glide_einternal>  (25) 
0.010601

>  <r_i_glide_intrahb_reward>  (25) 
-0

>  <i_i_glide_confnum>  (25) 
2

>  <i_i_glide_posenum>  (25) 
27

>  <r_i_glide_eff_state_penalty>  (25) 
0

>  <ligand_id>  (25) 
4

>  <original_smiles>  (25) 
Cc1nn2nc(-c3ccc4[nH]cnc4c3)nc2s1

>  <smiles>  (25) 
[H]c1c(-c2nc3sc(C([H])([H])[H])nn3n2)c([H])c2c(c1[H])n([H])c([H])[n+]2[H]

$$$$
4:2:1
     RDKit          3D

 27 30  0  0  1  0  0  0  0  0999 V2000
   -1.6146   -9.1669    3.1024 C   0  0  0  0  0  0  0  0  0  0  0  0
   -0.4443   -8.3421    2.6169 C   0  0  0  0  0  0  0  0  0  0  0  0
   -0.5164   -7.3883    1.6727 N   0  0  0  0  0  0  0  0  0  0  0  0
    0.7399   -6.9277    1.4771 N   0  0  0  0  0  0  0  0  0  0  0  0
    1.0370   -5.9803    0.5670 N   0  0  0  0  0  0  0  0  0  0  0  0
    2.3523   -5.8727    0.8437 C   0  0  0  0  0  0  0  0  0  0  0  0
    3.2348   -4.9097    0.1414 C   0  0  0  0  0  0  0  0  0  0  0  0
    4.6446   -5.0526    0.2448 C   0  0  0  0  0  0  0  0  0  0  0  0
    5.5505   -4.1834   -0.4001 C   0  0  0  0  0  0  0  0  0  0  0  0
    4.9971   -3.1687   -1.1606 C   0  0  0  0  0  0  0  0  0  0  0  0
    5.5821   -2.1693   -1.9295 N   0  0  0  0  0  0  0  0  0  0  0  0
    4.5986   -1.3936   -2.4807 C   0  0  0  0  0  0  0  0  0  0  0  0
    3.4029   -1.8974   -2.0914 N   0  0  0  0  0  0  0  0  0  0  0  0
    3.6065   -3.0035   -1.2746 C   0  0  0  0  0  0  0  0  0  0  0  0
    2.7102   -3.8477   -0.6411 C   0  0  0  0  0  0  0  0  0  0  0  0
    2.8453   -6.6965    1.8303 N   0  0  0  0  0  0  0  0  0  0  0  0
    1.7932   -7.3656    2.2050 C   0  0  0  0  0  0  0  0  0  0  0  0
    1.1977   -8.6060    3.2868 S   0  0  0  0  0  0  0  0  0  0  0  0
    6.5746   -2.0689   -2.0913 H   0  0  0  0  0  0  0  0  0  0  0  0
   -2.5519   -8.9205    2.6064 H   0  0  0  0  0  0  0  0  0  0  0  0
   -1.7327   -9.0291    4.1751 H   0  0  0  0  0  0  0  0  0  0  0  0
   -1.3928  -10.2324    2.9392 H   0  0  0  0  0  0  0  0  0  0  0  0
    5.0454   -5.8629    0.8331 H   0  0  0  0  0  0  0  0  0  0  0  0
    6.6163   -4.3176   -0.3102 H   0  0  0  0  0  0  0  0  0  0  0  0
    4.7216   -0.5252   -3.1138 H   0  0  0  0  0  0  0  0  0  0  0  0
    1.6520   -3.6953   -0.7723 H   0  0  0  0  0  0  0  0  0  0  0  0
    2.4960   -1.5022   -2.3259 H   0  0  0  0  0  0  0  0  0  0  0  0
  1  2  1  0
  1 20  1  0
  1 21  1  0
  1 22  1  0
  2 18  1  0
  2  3  2  0
  3  4  1  0
  4 17  1  0
  4  5  1  0
  5  6  2  0
  6  7  1  0
  6 16  1  0
  7 15  1  0
  7  8  2  0
  8  9  1  0
  8 23  1  0
  9 10  2  0
  9 24  1  0
 10 14  1  0
 10 11  1  0
 11 19  1  0
 11 12  1  0
 12 13  2  0
 12 25  1  0
 13 14  1  0
 13 27  1  0
 14 15  2  0
 15 26  1  0
 16 17  2  0
 17 18  1  0
M  CHG  1  13   1
M  END
>  <i_m_ct_stereo_status>  (26) 
1

>  <s_m_source_file>  (26) 
/var/tmp/pbs.5076255.sched01/tmpokz5906q/0mijyat0o.sdf

>  <i_m_source_file_index>  (26) 
9

>  <i_lp_mmshare_version>  (26) 
48012

>  <i_f3d_flags>  (26) 
0

>  <s_epik_input>  (26) 
W0NIM11jKG4xKXNjKG4xMiluYyhuMiktYyhbY0hdW2NIXTMpW2NIXWMoYzM0KW5bY0hdW25IXTQ=

>  <s_epik_cmdline>  (26) 
J2VwaWtfcHl0aG9uJywgJy1waHQnLCAnMi4wJywgJy1waCcsICc3LjAnLCAnLXRuJywgJzgnLCAnLW1hJywgJzIwMCcsICctaW1hZScsICc8aW5maWxlLm1hZT4nLCAnLW9tYWUnLCAnPG91dGZpbGUubWFlPic=

>  <r_epik_Ionization_Penalty>  (26) 
3.88646

>  <r_epik_Ionization_Penalty_Charging>  (26) 
3.88646

>  <r_epik_Ionization_Penalty_Neutral>  (26) 
3.22154e-06

>  <r_epik_State_Penalty>  (26) 
2.47008

>  <r_epik_Charging_Adjusted_Penalty>  (26) 
6.35654

>  <i_epik_Tot_Q>  (26) 
1

>  <i_epik_Tot_abs_Q>  (26) 
1

>  <s_lp_Force_Field>  (26) 
OPLS3e

>  <r_lp_Energy>  (26) 
20.7703

>  <b_lp_Chiralities_Consistent>  (26) 
1

>  <s_lp_Variant>  (26) 
4:0-3

>  <s_i_glide_gridfile>  (26) 
pfpi4k_grid

>  <i_i_glide_lignum>  (26) 
9

>  <i_i_glide_rotatable_bonds>  (26) 
1

>  <r_i_docking_score>  (26) 
-3.77879

>  <r_i_glide_ligand_efficiency>  (26) 
-0.209933

>  <r_i_glide_ligand_efficiency_sa>  (26) 
-0.550179

>  <r_i_glide_ligand_efficiency_ln>  (26) 
-0.971318

>  <r_i_glide_gscore>  (26) 
-3.77879

>  <r_i_glide_lipo>  (26) 
-0.133335

>  <r_i_glide_hbond>  (26) 
-0.180342

>  <r_i_glide_metal>  (26) 
-0

>  <r_i_glide_rewards>  (26) 
-1.6548

>  <r_i_glide_evdw>  (26) 
-21.5658

>  <r_i_glide_ecoul>  (26) 
-4.91663

>  <r_i_glide_erotb>  (26) 
0.266506

>  <r_i_glide_esite>  (26) 
-0.261027

>  <r_i_glide_emodel>  (26) 
-35.7535

>  <r_i_glide_energy>  (26) 
-26.4824

>  <r_i_glide_einternal>  (26) 
0.0837743

>  <r_i_glide_intrahb_reward>  (26) 
-0

>  <i_i_glide_confnum>  (26) 
3

>  <i_i_glide_posenum>  (26) 
35

>  <r_i_glide_eff_state_penalty>  (26) 
0

>  <ligand_id>  (26) 
4

>  <original_smiles>  (26) 
Cc1nn2nc(-c3ccc4[nH]cnc4c3)nc2s1

>  <smiles>  (26) 
[H]c1c(-c2nc3sc(C([H])([H])[H])nn3n2)c([H])c2c(c1[H])n([H])c([H])[n+]2[H]

$$$$
4:2:2
     RDKit          3D

 27 30  0  0  1  0  0  0  0  0999 V2000
    0.2125  -10.0630    3.0936 C   0  0  0  0  0  0  0  0  0  0  0  0
    1.0243   -8.9193    2.5110 C   0  0  0  0  0  0  0  0  0  0  0  0
    0.5006   -7.8293    1.9252 N   0  0  0  0  0  0  0  0  0  0  0  0
    1.5366   -7.0580    1.5142 N   0  0  0  0  0  0  0  0  0  0  0  0
    1.3869   -5.8925    0.8539 N   0  0  0  0  0  0  0  0  0  0  0  0
    2.6781   -5.5668    0.7481 C   0  0  0  0  0  0  0  0  0  0  0  0
    3.1278   -4.3137    0.0964 C   0  0  0  0  0  0  0  0  0  0  0  0
    4.2399   -3.6105    0.6162 C   0  0  0  0  0  0  0  0  0  0  0  0
    4.7493   -2.4367    0.0196 C   0  0  0  0  0  0  0  0  0  0  0  0
    4.1182   -2.0058   -1.1417 C   0  0  0  0  0  0  0  0  0  0  0  0
    4.3437   -0.9046   -1.9675 N   0  0  0  0  0  0  0  0  0  0  0  0
    3.4439   -0.9202   -2.9935 C   0  0  0  0  0  0  0  0  0  0  0  0
    2.6546   -2.0208   -2.8412 N   0  0  0  0  0  0  0  0  0  0  0  0
    3.0214   -2.7012   -1.6810 C   0  0  0  0  0  0  0  0  0  0  0  0
    2.4811   -3.8279   -1.0712 C   0  0  0  0  0  0  0  0  0  0  0  0
    3.5889   -6.4551    1.2725 N   0  0  0  0  0  0  0  0  0  0  0  0
    2.8278   -7.4016    1.7428 C   0  0  0  0  0  0  0  0  0  0  0  0
    2.8182   -8.9552    2.5575 S   0  0  0  0  0  0  0  0  0  0  0  0
    5.0014   -0.1510   -1.8082 H   0  0  0  0  0  0  0  0  0  0  0  0
   -0.8637   -9.9192    2.9922 H   0  0  0  0  0  0  0  0  0  0  0  0
    0.4481  -10.1832    4.1505 H   0  0  0  0  0  0  0  0  0  0  0  0
    0.4857  -10.9960    2.6017 H   0  0  0  0  0  0  0  0  0  0  0  0
    4.7272   -3.9991    1.5031 H   0  0  0  0  0  0  0  0  0  0  0  0
    5.5881   -1.9085    0.4482 H   0  0  0  0  0  0  0  0  0  0  0  0
    3.3380   -0.1609   -3.7574 H   0  0  0  0  0  0  0  0  0  0  0  0
    1.6423   -4.3455   -1.5111 H   0  0  0  0  0  0  0  0  0  0  0  0
    1.8589   -2.2444   -3.4236 H   0  0  0  0  0  0  0  0  0  0  0  0
  1  2  1  0
  1 20  1  0
  1 21  1  0
  1 22  1  0
  2 18  1  0
  2  3  2  0
  3  4  1  0
  4 17  1  0
  4  5  1  0
  5  6  2  0
  6  7  1  0
  6 16  1  0
  7 15  1  0
  7  8  2  0
  8  9  1  0
  8 23  1  0
  9 10  2  0
  9 24  1  0
 10 14  1  0
 10 11  1  0
 11 19  1  0
 11 12  1  0
 12 13  2  0
 12 25  1  0
 13 14  1  0
 13 27  1  0
 14 15  2  0
 15 26  1  0
 16 17  2  0
 17 18  1  0
M  CHG  1  13   1
M  END
>  <i_m_ct_stereo_status>  (27) 
1

>  <s_m_source_file>  (27) 
/var/tmp/pbs.5076255.sched01/tmpokz5906q/0mijyat0o.sdf

>  <i_m_source_file_index>  (27) 
9

>  <i_lp_mmshare_version>  (27) 
48012

>  <i_f3d_flags>  (27) 
0

>  <s_epik_input>  (27) 
W0NIM11jKG4xKXNjKG4xMiluYyhuMiktYyhbY0hdW2NIXTMpW2NIXWMoYzM0KW5bY0hdW25IXTQ=

>  <s_epik_cmdline>  (27) 
J2VwaWtfcHl0aG9uJywgJy1waHQnLCAnMi4wJywgJy1waCcsICc3LjAnLCAnLXRuJywgJzgnLCAnLW1hJywgJzIwMCcsICctaW1hZScsICc8aW5maWxlLm1hZT4nLCAnLW9tYWUnLCAnPG91dGZpbGUubWFlPic=

>  <r_epik_Ionization_Penalty>  (27) 
3.88646

>  <r_epik_Ionization_Penalty_Charging>  (27) 
3.88646

>  <r_epik_Ionization_Penalty_Neutral>  (27) 
3.22154e-06

>  <r_epik_State_Penalty>  (27) 
2.47008

>  <r_epik_Charging_Adjusted_Penalty>  (27) 
6.35654

>  <i_epik_Tot_Q>  (27) 
1

>  <i_epik_Tot_abs_Q>  (27) 
1

>  <s_lp_Force_Field>  (27) 
OPLS3e

>  <r_lp_Energy>  (27) 
20.7703

>  <b_lp_Chiralities_Consistent>  (27) 
1

>  <s_lp_Variant>  (27) 
4:0-3

>  <s_i_glide_gridfile>  (27) 
pfpi4k_grid

>  <i_i_glide_lignum>  (27) 
9

>  <i_i_glide_rotatable_bonds>  (27) 
1

>  <r_i_docking_score>  (27) 
-3.77456

>  <r_i_glide_ligand_efficiency>  (27) 
-0.209698

>  <r_i_glide_ligand_efficiency_sa>  (27) 
-0.549563

>  <r_i_glide_ligand_efficiency_ln>  (27) 
-0.97023

>  <r_i_glide_gscore>  (27) 
-3.77456

>  <r_i_glide_lipo>  (27) 
-0.0221406

>  <r_i_glide_hbond>  (27) 
-0.159088

>  <r_i_glide_metal>  (27) 
-0

>  <r_i_glide_rewards>  (27) 
-1.68297

>  <r_i_glide_evdw>  (27) 
-22.047

>  <r_i_glide_ecoul>  (27) 
-6.25716

>  <r_i_glide_erotb>  (27) 
0.266506

>  <r_i_glide_esite>  (27) 
-0.135935

>  <r_i_glide_emodel>  (27) 
-37.1455

>  <r_i_glide_energy>  (27) 
-28.3042

>  <r_i_glide_einternal>  (27) 
0.826782

>  <r_i_glide_intrahb_reward>  (27) 
-0

>  <i_i_glide_confnum>  (27) 
3

>  <i_i_glide_posenum>  (27) 
12

>  <r_i_glide_eff_state_penalty>  (27) 
0

>  <ligand_id>  (27) 
4

>  <original_smiles>  (27) 
Cc1nn2nc(-c3ccc4[nH]cnc4c3)nc2s1

>  <smiles>  (27) 
[H]c1c(-c2nc3sc(C([H])([H])[H])nn3n2)c([H])c2c(c1[H])n([H])c([H])[n+]2[H]

$$$$
6:0:0
     RDKit          3D

 75 79  0  0  1  0  0  0  0  0999 V2000
    0.6144   -8.6561    8.7751 C   0  0  0  0  0  0  0  0  0  0  0  0
    0.8852   -8.2579    7.3094 C   0  0  2  0  0  0  0  0  0  0  0  0
    0.1561   -9.2412    6.3768 C   0  0  0  0  0  0  0  0  0  0  0  0
    0.3116   -8.8340    4.9159 C   0  0  0  0  0  0  0  0  0  0  0  0
    1.7814   -8.7062    4.5683 C   0  0  0  0  0  0  0  0  0  0  0  0
    2.3365   -9.4463    3.5998 C   0  0  0  0  0  0  0  0  0  0  0  0
    3.7826   -9.3273    3.1860 C   0  0  0  0  0  0  0  0  0  0  0  0
    4.4257   -7.9355    3.4695 C   0  0  2  0  0  0  0  0  0  0  0  0
    5.9549   -8.2505    3.4554 C   0  0  0  0  0  0  0  0  0  0  0  0
    4.0522   -7.5123    4.9432 C   0  0  1  0  0  0  0  0  0  0  0  0
    4.6001   -6.0936    5.2415 C   0  0  0  0  0  0  0  0  0  0  0  0
    4.1888   -5.0339    4.2114 C   0  0  0  0  0  0  0  0  0  0  0  0
    4.6613   -5.4082    2.7862 C   0  0  2  0  0  0  0  0  0  0  0  0
    4.6390   -4.2064    1.7452 C   0  0  2  0  0  0  0  0  0  0  0  0
    5.7877   -3.2435    2.1543 C   0  0  0  0  0  0  0  0  0  0  0  0
    3.3172   -3.3901    1.8112 C   0  0  0  0  0  0  0  0  0  0  0  0
    3.1570   -2.3418    0.7028 C   0  0  0  0  0  0  0  0  0  0  0  0
    3.2809   -2.9861   -0.6826 C   0  0  1  0  0  0  0  0  0  0  0  0
    3.0218   -2.0134   -1.6812 O   0  0  0  0  0  0  0  0  0  0  0  0
    4.6555   -3.6761   -0.8707 C   0  0  1  0  0  0  0  0  0  0  0  0
    5.8105   -2.6925   -1.1745 C   0  0  0  0  0  0  0  0  0  0  0  0
    4.9742   -4.6903    0.2836 C   0  0  2  0  0  0  0  0  0  0  0  0
    4.3796   -6.0618   -0.0586 C   0  0  0  0  0  0  0  0  0  0  0  0
    4.6639   -7.1399    0.9897 C   0  0  0  0  0  0  0  0  0  0  0  0
    4.0531   -6.8068    2.3741 C   0  0  1  0  0  0  0  0  0  0  0  0
    2.5100   -6.7222    2.1750 C   0  0  0  0  0  0  0  0  0  0  0  0
    2.5645   -7.7145    5.4275 C   0  0  2  0  0  0  0  0  0  0  0  0
    2.3971   -8.1682    6.9249 C   0  0  1  0  0  0  0  0  0  0  0  0
    3.1860   -7.3247    7.9490 C   0  0  0  0  0  0  0  0  0  0  0  0
    1.1204   -9.5878    9.0340 H   0  0  0  0  0  0  0  0  0  0  0  0
   -0.4532   -8.8014    8.9442 H   0  0  0  0  0  0  0  0  0  0  0  0
    0.9349   -7.8840    9.4731 H   0  0  0  0  0  0  0  0  0  0  0  0
    0.4398   -7.2728    7.1675 H   0  0  0  0  0  0  0  0  0  0  0  0
    0.5561  -10.2484    6.5116 H   0  0  0  0  0  0  0  0  0  0  0  0
   -0.9047   -9.3037    6.6218 H   0  0  0  0  0  0  0  0  0  0  0  0
   -0.1780   -9.5621    4.2687 H   0  0  0  0  0  0  0  0  0  0  0  0
   -0.1725   -7.8718    4.7411 H   0  0  0  0  0  0  0  0  0  0  0  0
    1.7445  -10.1678    3.0513 H   0  0  0  0  0  0  0  0  0  0  0  0
    4.2985  -10.1092    3.7457 H   0  0  0  0  0  0  0  0  0  0  0  0
    3.8722   -9.6114    2.1392 H   0  0  0  0  0  0  0  0  0  0  0  0
    6.5935   -7.3830    3.6074 H   0  0  0  0  0  0  0  0  0  0  0  0
    6.2729   -8.7279    2.5286 H   0  0  0  0  0  0  0  0  0  0  0  0
    6.2247   -8.9559    4.2414 H   0  0  0  0  0  0  0  0  0  0  0  0
    4.6127   -8.1897    5.5849 H   0  0  0  0  0  0  0  0  0  0  0  0
    4.2900   -5.7397    6.2196 H   0  0  0  0  0  0  0  0  0  0  0  0
    5.6903   -6.1277    5.2847 H   0  0  0  0  0  0  0  0  0  0  0  0
    3.1077   -4.8905    4.2420 H   0  0  0  0  0  0  0  0  0  0  0  0
    4.6154   -4.0858    4.5353 H   0  0  0  0  0  0  0  0  0  0  0  0
    5.7268   -5.5939    2.8958 H   0  0  0  0  0  0  0  0  0  0  0  0
    5.8303   -2.3435    1.5535 H   0  0  0  0  0  0  0  0  0  0  0  0
    6.7578   -3.7305    2.0619 H   0  0  0  0  0  0  0  0  0  0  0  0
    5.7025   -2.8934    3.1787 H   0  0  0  0  0  0  0  0  0  0  0  0
    2.4424   -4.0248    1.7740 H   0  0  0  0  0  0  0  0  0  0  0  0
    3.2453   -2.8766    2.7696 H   0  0  0  0  0  0  0  0  0  0  0  0
    2.1798   -1.8782    0.8110 H   0  0  0  0  0  0  0  0  0  0  0  0
    3.8756   -1.5305    0.8159 H   0  0  0  0  0  0  0  0  0  0  0  0
    2.5009   -3.7411   -0.7854 H   0  0  0  0  0  0  0  0  0  0  0  0
    2.1619   -1.6153   -1.4875 H   0  0  0  0  0  0  0  0  0  0  0  0
    4.5784   -4.2530   -1.7932 H   0  0  0  0  0  0  0  0  0  0  0  0
    5.8454   -1.8483   -0.4896 H   0  0  0  0  0  0  0  0  0  0  0  0
    5.7016   -2.2731   -2.1751 H   0  0  0  0  0  0  0  0  0  0  0  0
    6.7799   -3.1963   -1.1464 H   0  0  0  0  0  0  0  0  0  0  0  0
    6.0488   -4.8782    0.2434 H   0  0  0  0  0  0  0  0  0  0  0  0
    3.3202   -5.9873   -0.2877 H   0  0  0  0  0  0  0  0  0  0  0  0
    4.8255   -6.3963   -0.9946 H   0  0  0  0  0  0  0  0  0  0  0  0
    4.3071   -8.1009    0.6173 H   0  0  0  0  0  0  0  0  0  0  0  0
    5.7482   -7.2245    1.0521 H   0  0  0  0  0  0  0  0  0  0  0  0
    2.1926   -6.0060    1.4323 H   0  0  0  0  0  0  0  0  0  0  0  0
    1.9803   -6.4519    3.0826 H   0  0  0  0  0  0  0  0  0  0  0  0
    2.1009   -7.6597    1.8013 H   0  0  0  0  0  0  0  0  0  0  0  0
    2.0543   -6.7580    5.3174 H   0  0  0  0  0  0  0  0  0  0  0  0
    2.8032   -9.1792    6.9996 H   0  0  0  0  0  0  0  0  0  0  0  0
    2.8476   -6.2889    7.9700 H   0  0  0  0  0  0  0  0  0  0  0  0
    4.2562   -7.3407    7.7455 H   0  0  0  0  0  0  0  0  0  0  0  0
    3.0942   -7.7251    8.9565 H   0  0  0  0  0  0  0  0  0  0  0  0
  1  2  1  0
  1 30  1  0
  1 31  1  0
  1 32  1  0
  2 28  1  0
  2  3  1  0
  2 33  1  1
  3  4  1  0
  3 34  1  0
  3 35  1  0
  4  5  1  0
  4 36  1  0
  4 37  1  0
  5 27  1  0
  5  6  2  0
  6  7  1  0
  6 38  1  0
  7  8  1  0
  7 39  1  0
  7 40  1  0
  8 25  1  0
  8  9  1  1
  8 10  1  0
  9 41  1  0
  9 42  1  0
  9 43  1  0
 10 11  1  0
 10 27  1  0
 10 44  1  1
 11 12  1  0
 11 45  1  0
 11 46  1  0
 12 13  1  0
 12 47  1  0
 12 48  1  0
 13 25  1  0
 13 14  1  0
 13 49  1  1
 14 22  1  0
 14 15  1  1
 14 16  1  0
 15 50  1  0
 15 51  1  0
 15 52  1  0
 16 17  1  0
 16 53  1  0
 16 54  1  0
 17 18  1  0
 17 55  1  0
 17 56  1  0
 18 19  1  0
 18 20  1  0
 18 57  1  1
 19 58  1  0
 20 21  1  0
 20 22  1  0
 20 59  1  6
 21 60  1  0
 21 61  1  0
 21 62  1  0
 22 23  1  0
 22 63  1  1
 23 24  1  0
 23 64  1  0
 23 65  1  0
 24 25  1  0
 24 66  1  0
 24 67  1  0
 25 26  1  6
 26 68  1  0
 26 69  1  0
 26 70  1  0
 27 28  1  0
 27 71  1  1
 28 29  1  0
 28 72  1  6
 29 73  1  0
 29 74  1  0
 29 75  1  0
M  END
>  <i_m_ct_stereo_status>  (28) 
1

>  <s_m_source_file>  (28) 
/var/tmp/pbs.5076255.sched01/tmpokz5906q/0mijyat0o.sdf

>  <i_m_source_file_index>  (28) 
11

>  <i_lp_mmshare_version>  (28) 
48012

>  <i_f3d_flags>  (28) 
0

>  <s_epik_input>  (28) 
W0NIM11bQ0BIXTFbQ0BIXShbQ0gzXSlbQ0gyXVtDSDJdQyg9W0NIXVtDSDJdMilbQ0BASF0xW0NAQEhdKFtDQEBdMjNbQ0gzXSlbQ0gyXVtDSDJdW0NAQEhdNFtDQEBdNShbQ0gzXSlbQ0BIXShbQ0BIXShbQ0gzXSlbQ0BIXShbT0hdKVtDSDJdW0NIMl01KVtDSDJdW0NIMl1bQ0BAXTM0W0NIM10=

>  <s_epik_cmdline>  (28) 
J2VwaWtfcHl0aG9uJywgJy1waHQnLCAnMi4wJywgJy1waCcsICc3LjAnLCAnLXRuJywgJzgnLCAnLW1hJywgJzIwMCcsICctaW1hZScsICc8aW5maWxlLm1hZT4nLCAnLW9tYWUnLCAnPG91dGZpbGUubWFlPic=

>  <r_lp_tautomer_probability>  (28) 
1

>  <r_epik_Ionization_Penalty>  (28) 
2.98396e-06

>  <r_epik_Ionization_Penalty_Charging>  (28) 
0

>  <r_epik_Ionization_Penalty_Neutral>  (28) 
2.98396e-06

>  <r_epik_State_Penalty>  (28) 
-0

>  <r_epik_Charging_Adjusted_Penalty>  (28) 
0

>  <i_epik_Tot_Q>  (28) 
0

>  <i_epik_Tot_abs_Q>  (28) 
0

>  <s_lp_Force_Field>  (28) 
OPLS3e

>  <r_lp_Energy>  (28) 
83.4218

>  <b_lp_Chiralities_Consistent>  (28) 
1

>  <s_lp_Variant>  (28) 
6:0-1

>  <s_i_glide_gridfile>  (28) 
pfpi4k_grid

>  <i_i_glide_lignum>  (28) 
11

>  <i_i_glide_rotatable_bonds>  (28) 
1

>  <r_i_docking_score>  (28) 
-2.9152

>  <r_i_glide_ligand_efficiency>  (28) 
-0.100524

>  <r_i_glide_ligand_efficiency_sa>  (28) 
-0.308842

>  <r_i_glide_ligand_efficiency_ln>  (28) 
-0.667508

>  <r_i_glide_gscore>  (28) 
-2.9152

>  <r_i_glide_lipo>  (28) 
-0.226947

>  <r_i_glide_hbond>  (28) 
-0.16

>  <r_i_glide_metal>  (28) 
-0

>  <r_i_glide_rewards>  (28) 
-0.690926

>  <r_i_glide_evdw>  (28) 
-23.9239

>  <r_i_glide_ecoul>  (28) 
-4.27422

>  <r_i_glide_erotb>  (28) 
0

>  <r_i_glide_esite>  (28) 
0

>  <r_i_glide_emodel>  (28) 
-33.3916

>  <r_i_glide_energy>  (28) 
-28.1982

>  <r_i_glide_einternal>  (28) 
0.354679

>  <r_i_glide_intrahb_reward>  (28) 
-0

>  <i_i_glide_confnum>  (28) 
2

>  <i_i_glide_posenum>  (28) 
2

>  <r_i_glide_eff_state_penalty>  (28) 
0

>  <ligand_id>  (28) 
6

>  <original_smiles>  (28) 
CC1CCC2=CCC3(C)C(CCC4C5(C)CCC(O)C(C)C5CCC43C)C2C1C

>  <smiles>  (28) 
[H]OC1([H])C([H])([H])C([H])([H])C2(C([H])([H])[H])C([H])(C([H])([H])C([H])([H])C3(C([H])([H])[H])C2([H])C([H])([H])C([H])([H])C2([H])C4([H])C(=C([H])C([H])([H])C23C([H])([H])[H])C([H])([H])C([H])([H])C([H])(C([H])([H])[H])C4([H])C([H])([H])[H])C1([H])C([H])([H])[H]

$$$$
6:0:1
     RDKit          3D

 75 79  0  0  1  0  0  0  0  0999 V2000
   -1.3966   -9.4560    2.3019 C   0  0  0  0  0  0  0  0  0  0  0  0
   -0.1879   -8.5671    2.6657 C   0  0  2  0  0  0  0  0  0  0  0  0
    1.1169   -9.3850    2.5742 C   0  0  0  0  0  0  0  0  0  0  0  0
    2.3321   -8.5110    2.8602 C   0  0  0  0  0  0  0  0  0  0  0  0
    2.1804   -7.8423    4.2111 C   0  0  0  0  0  0  0  0  0  0  0  0
    3.0705   -8.0358    5.1884 C   0  0  0  0  0  0  0  0  0  0  0  0
    2.9890   -7.3628    6.5373 C   0  0  0  0  0  0  0  0  0  0  0  0
    2.2260   -6.0052    6.5381 C   0  0  2  0  0  0  0  0  0  0  0  0
    1.8393   -5.8236    8.0377 C   0  0  0  0  0  0  0  0  0  0  0  0
    0.8871   -6.2092    5.7422 C   0  0  1  0  0  0  0  0  0  0  0  0
    0.1370   -4.8684    5.6577 C   0  0  0  0  0  0  0  0  0  0  0  0
    0.9575   -3.7057    5.0870 C   0  0  0  0  0  0  0  0  0  0  0  0
    2.2171   -3.4474    5.9436 C   0  0  2  0  0  0  0  0  0  0  0  0
    2.9140   -2.0418    5.6859 C   0  0  2  0  0  0  0  0  0  0  0  0
    1.9548   -0.9658    6.2805 C   0  0  0  0  0  0  0  0  0  0  0  0
    3.0694   -1.7204    4.1671 C   0  0  0  0  0  0  0  0  0  0  0  0
    3.9130   -0.4764    3.8571 C   0  0  0  0  0  0  0  0  0  0  0  0
    5.2913   -0.5894    4.5073 C   0  0  1  0  0  0  0  0  0  0  0  0
    6.0863    0.5226    4.1579 O   0  0  0  0  0  0  0  0  0  0  0  0
    5.2057   -0.7335    6.0407 C   0  0  1  0  0  0  0  0  0  0  0  0
    4.9155    0.5944    6.7759 C   0  0  0  0  0  0  0  0  0  0  0  0
    4.2779   -1.9155    6.4736 C   0  0  2  0  0  0  0  0  0  0  0  0
    5.1061   -3.2141    6.5222 C   0  0  0  0  0  0  0  0  0  0  0  0
    4.2775   -4.4318    6.9577 C   0  0  0  0  0  0  0  0  0  0  0  0
    3.0986   -4.7538    6.0028 C   0  0  1  0  0  0  0  0  0  0  0  0
    3.7271   -5.0781    4.6160 C   0  0  0  0  0  0  0  0  0  0  0  0
    0.9287   -6.9840    4.3687 C   0  0  2  0  0  0  0  0  0  0  0  0
   -0.3018   -7.9145    4.0760 C   0  0  1  0  0  0  0  0  0  0  0  0
   -1.6687   -7.2423    4.2390 C   0  0  0  0  0  0  0  0  0  0  0  0
   -1.5689  -10.2032    3.0696 H   0  0  0  0  0  0  0  0  0  0  0  0
   -1.2581  -10.0009    1.3747 H   0  0  0  0  0  0  0  0  0  0  0  0
   -2.3096   -8.8787    2.1503 H   0  0  0  0  0  0  0  0  0  0  0  0
   -0.1386   -7.7762    1.9170 H   0  0  0  0  0  0  0  0  0  0  0  0
    1.0870  -10.2116    3.2889 H   0  0  0  0  0  0  0  0  0  0  0  0
    1.2404   -9.8384    1.5981 H   0  0  0  0  0  0  0  0  0  0  0  0
    3.2433   -9.1098    2.8264 H   0  0  0  0  0  0  0  0  0  0  0  0
    2.4236   -7.7367    2.0953 H   0  0  0  0  0  0  0  0  0  0  0  0
    3.9197   -8.6906    5.0366 H   0  0  0  0  0  0  0  0  0  0  0  0
    2.4835   -8.0854    7.1801 H   0  0  0  0  0  0  0  0  0  0  0  0
    3.9994   -7.2558    6.9323 H   0  0  0  0  0  0  0  0  0  0  0  0
    1.3112   -4.8994    8.2569 H   0  0  0  0  0  0  0  0  0  0  0  0
    2.7067   -5.8666    8.6942 H   0  0  0  0  0  0  0  0  0  0  0  0
    1.1839   -6.6253    8.3783 H   0  0  0  0  0  0  0  0  0  0  0  0
    0.2697   -6.8534    6.3666 H   0  0  0  0  0  0  0  0  0  0  0  0
   -0.7193   -5.0014    5.0261 H   0  0  0  0  0  0  0  0  0  0  0  0
   -0.2450   -4.5850    6.6409 H   0  0  0  0  0  0  0  0  0  0  0  0
    1.2224   -3.9145    4.0488 H   0  0  0  0  0  0  0  0  0  0  0  0
    0.3110   -2.8328    5.0448 H   0  0  0  0  0  0  0  0  0  0  0  0
    1.8338   -3.3256    6.9548 H   0  0  0  0  0  0  0  0  0  0  0  0
    2.3030    0.0479    6.1111 H   0  0  0  0  0  0  0  0  0  0  0  0
    1.8389   -1.0824    7.3600 H   0  0  0  0  0  0  0  0  0  0  0  0
    0.9585   -0.9948    5.8467 H   0  0  0  0  0  0  0  0  0  0  0  0
    3.5067   -2.5451    3.6235 H   0  0  0  0  0  0  0  0  0  0  0  0
    2.0878   -1.5871    3.7162 H   0  0  0  0  0  0  0  0  0  0  0  0
    4.0249   -0.3903    2.7763 H   0  0  0  0  0  0  0  0  0  0  0  0
    3.3998    0.4278    4.1733 H   0  0  0  0  0  0  0  0  0  0  0  0
    5.7789   -1.4772    4.1033 H   0  0  0  0  0  0  0  0  0  0  0  0
    5.6085    1.3082    4.3610 H   0  0  0  0  0  0  0  0  0  0  0  0
    6.2126   -0.9826    6.3763 H   0  0  0  0  0  0  0  0  0  0  0  0
    4.0813    1.1506    6.3521 H   0  0  0  0  0  0  0  0  0  0  0  0
    5.7834    1.2540    6.7290 H   0  0  0  0  0  0  0  0  0  0  0  0
    4.7104    0.4246    7.8353 H   0  0  0  0  0  0  0  0  0  0  0  0
    4.0280   -1.7491    7.5214 H   0  0  0  0  0  0  0  0  0  0  0  0
    5.6274   -3.3917    5.5845 H   0  0  0  0  0  0  0  0  0  0  0  0
    5.9018   -3.0928    7.2588 H   0  0  0  0  0  0  0  0  0  0  0  0
    4.9362   -5.2912    7.0720 H   0  0  0  0  0  0  0  0  0  0  0  0
    3.9024   -4.2029    7.9553 H   0  0  0  0  0  0  0  0  0  0  0  0
    4.3516   -4.2932    4.2134 H   0  0  0  0  0  0  0  0  0  0  0  0
    2.9856   -5.2843    3.8496 H   0  0  0  0  0  0  0  0  0  0  0  0
    4.4057   -5.9284    4.6751 H   0  0  0  0  0  0  0  0  0  0  0  0
    0.9708   -6.2424    3.5711 H   0  0  0  0  0  0  0  0  0  0  0  0
   -0.2792   -8.7280    4.8050 H   0  0  0  0  0  0  0  0  0  0  0  0
   -1.8035   -6.4270    3.5406 H   0  0  0  0  0  0  0  0  0  0  0  0
   -1.8108   -6.8670    5.2496 H   0  0  0  0  0  0  0  0  0  0  0  0
   -2.4829   -7.9475    4.0809 H   0  0  0  0  0  0  0  0  0  0  0  0
  1  2  1  0
  1 30  1  0
  1 31  1  0
  1 32  1  0
  2 28  1  0
  2  3  1  0
  2 33  1  6
  3  4  1  0
  3 34  1  0
  3 35  1  0
  4  5  1  0
  4 36  1  0
  4 37  1  0
  5 27  1  0
  5  6  2  0
  6  7  1  0
  6 38  1  0
  7  8  1  0
  7 39  1  0
  7 40  1  0
  8 25  1  0
  8  9  1  1
  8 10  1  0
  9 41  1  0
  9 42  1  0
  9 43  1  0
 10 11  1  0
 10 27  1  0
 10 44  1  1
 11 12  1  0
 11 45  1  0
 11 46  1  0
 12 13  1  0
 12 47  1  0
 12 48  1  0
 13 25  1  0
 13 14  1  0
 13 49  1  1
 14 22  1  0
 14 15  1  1
 14 16  1  0
 15 50  1  0
 15 51  1  0
 15 52  1  0
 16 17  1  0
 16 53  1  0
 16 54  1  0
 17 18  1  0
 17 55  1  0
 17 56  1  0
 18 19  1  0
 18 20  1  0
 18 57  1  6
 19 58  1  0
 20 21  1  0
 20 22  1  0
 20 59  1  1
 21 60  1  0
 21 61  1  0
 21 62  1  0
 22 23  1  0
 22 63  1  1
 23 24  1  0
 23 64  1  0
 23 65  1  0
 24 25  1  0
 24 66  1  0
 24 67  1  0
 25 26  1  6
 26 68  1  0
 26 69  1  0
 26 70  1  0
 27 28  1  0
 27 71  1  6
 28 29  1  0
 28 72  1  1
 29 73  1  0
 29 74  1  0
 29 75  1  0
M  END
>  <i_m_ct_stereo_status>  (29) 
1

>  <s_m_source_file>  (29) 
/var/tmp/pbs.5076255.sched01/tmpokz5906q/0mijyat0o.sdf

>  <i_m_source_file_index>  (29) 
11

>  <i_lp_mmshare_version>  (29) 
48012

>  <i_f3d_flags>  (29) 
0

>  <s_epik_input>  (29) 
W0NIM11bQ0BIXTFbQ0BIXShbQ0gzXSlbQ0gyXVtDSDJdQyg9W0NIXVtDSDJdMilbQ0BASF0xW0NAQEhdKFtDQEBdMjNbQ0gzXSlbQ0gyXVtDSDJdW0NAQEhdNFtDQEBdNShbQ0gzXSlbQ0BIXShbQ0BIXShbQ0gzXSlbQ0BIXShbT0hdKVtDSDJdW0NIMl01KVtDSDJdW0NIMl1bQ0BAXTM0W0NIM10=

>  <s_epik_cmdline>  (29) 
J2VwaWtfcHl0aG9uJywgJy1waHQnLCAnMi4wJywgJy1waCcsICc3LjAnLCAnLXRuJywgJzgnLCAnLW1hJywgJzIwMCcsICctaW1hZScsICc8aW5maWxlLm1hZT4nLCAnLW9tYWUnLCAnPG91dGZpbGUubWFlPic=

>  <r_lp_tautomer_probability>  (29) 
1

>  <r_epik_Ionization_Penalty>  (29) 
2.98396e-06

>  <r_epik_Ionization_Penalty_Charging>  (29) 
0

>  <r_epik_Ionization_Penalty_Neutral>  (29) 
2.98396e-06

>  <r_epik_State_Penalty>  (29) 
-0

>  <r_epik_Charging_Adjusted_Penalty>  (29) 
0

>  <i_epik_Tot_Q>  (29) 
0

>  <i_epik_Tot_abs_Q>  (29) 
0

>  <s_lp_Force_Field>  (29) 
OPLS3e

>  <r_lp_Energy>  (29) 
83.4218

>  <b_lp_Chiralities_Consistent>  (29) 
1

>  <s_lp_Variant>  (29) 
6:0-1

>  <s_i_glide_gridfile>  (29) 
pfpi4k_grid

>  <i_i_glide_lignum>  (29) 
11

>  <i_i_glide_rotatable_bonds>  (29) 
1

>  <r_i_docking_score>  (29) 
-1.92419

>  <r_i_glide_ligand_efficiency>  (29) 
-0.0663514

>  <r_i_glide_ligand_efficiency_sa>  (29) 
-0.203852

>  <r_i_glide_ligand_efficiency_ln>  (29) 
-0.440591

>  <r_i_glide_gscore>  (29) 
-1.92419

>  <r_i_glide_lipo>  (29) 
-0.416908

>  <r_i_glide_hbond>  (29) 
0

>  <r_i_glide_metal>  (29) 
-0

>  <r_i_glide_rewards>  (29) 
-0.690926

>  <r_i_glide_evdw>  (29) 
-16.7578

>  <r_i_glide_ecoul>  (29) 
0.143551

>  <r_i_glide_erotb>  (29) 
0

>  <r_i_glide_esite>  (29) 
0

>  <r_i_glide_emodel>  (29) 
-20.0893

>  <r_i_glide_energy>  (29) 
-16.6142

>  <r_i_glide_einternal>  (29) 
0.0431671

>  <r_i_glide_intrahb_reward>  (29) 
-0

>  <i_i_glide_confnum>  (29) 
1

>  <i_i_glide_posenum>  (29) 
1

>  <r_i_glide_eff_state_penalty>  (29) 
0

>  <ligand_id>  (29) 
6

>  <original_smiles>  (29) 
CC1CCC2=CCC3(C)C(CCC4C5(C)CCC(O)C(C)C5CCC43C)C2C1C

>  <smiles>  (29) 
[H]OC1([H])C([H])([H])C([H])([H])C2(C([H])([H])[H])C([H])(C([H])([H])C([H])([H])C3(C([H])([H])[H])C2([H])C([H])([H])C([H])([H])C2([H])C4([H])C(=C([H])C([H])([H])C23C([H])([H])[H])C([H])([H])C([H])([H])C([H])(C([H])([H])[H])C4([H])C([H])([H])[H])C1([H])C([H])([H])[H]

$$$$
6:0:2
     RDKit          3D

 75 79  0  0  1  0  0  0  0  0999 V2000
    0.7311  -10.6633    3.3823 C   0  0  0  0  0  0  0  0  0  0  0  0
    1.5120   -9.4798    3.9881 C   0  0  2  0  0  0  0  0  0  0  0  0
    2.5777  -10.0233    4.9593 C   0  0  0  0  0  0  0  0  0  0  0  0
    3.4419   -8.8950    5.5174 C   0  0  0  0  0  0  0  0  0  0  0  0
    2.5635   -7.8426    6.1603 C   0  0  0  0  0  0  0  0  0  0  0  0
    2.6971   -7.5096    7.4527 C   0  0  0  0  0  0  0  0  0  0  0  0
    1.8887   -6.4321    8.1282 C   0  0  0  0  0  0  0  0  0  0  0  0
    1.3551   -5.3253    7.1681 C   0  0  2  0  0  0  0  0  0  0  0  0
    0.1755   -4.7032    7.9808 C   0  0  0  0  0  0  0  0  0  0  0  0
    0.7250   -6.0342    5.9070 C   0  0  1  0  0  0  0  0  0  0  0  0
    0.2606   -4.9700    4.8873 C   0  0  0  0  0  0  0  0  0  0  0  0
    1.3353   -3.9510    4.4998 C   0  0  0  0  0  0  0  0  0  0  0  0
    1.8581   -3.1822    5.7358 C   0  0  2  0  0  0  0  0  0  0  0  0
    2.6614   -1.8531    5.3950 C   0  0  2  0  0  0  0  0  0  0  0  0
    1.6099   -0.8287    4.8740 C   0  0  0  0  0  0  0  0  0  0  0  0
    3.6995   -2.0617    4.2494 C   0  0  0  0  0  0  0  0  0  0  0  0
    4.6431   -0.8760    4.0092 C   0  0  0  0  0  0  0  0  0  0  0  0
    5.3731   -0.4964    5.2990 C   0  0  1  0  0  0  0  0  0  0  0  0
    6.2915    0.5409    5.0320 O   0  0  0  0  0  0  0  0  0  0  0  0
    4.3945   -0.1086    6.4286 C   0  0  1  0  0  0  0  0  0  0  0  0
    3.8116    1.3158    6.2880 C   0  0  0  0  0  0  0  0  0  0  0  0
    3.3196   -1.2167    6.6858 C   0  0  2  0  0  0  0  0  0  0  0  0
    3.8722   -2.2425    7.6947 C   0  0  0  0  0  0  0  0  0  0  0  0
    2.8661   -3.3556    8.0182 C   0  0  0  0  0  0  0  0  0  0  0  0
    2.4559   -4.2020    6.7829 C   0  0  1  0  0  0  0  0  0  0  0  0
    3.7558   -4.8719    6.2505 C   0  0  0  0  0  0  0  0  0  0  0  0
    1.5136   -7.2229    5.2367 C   0  0  2  0  0  0  0  0  0  0  0  0
    0.6253   -8.4043    4.6975 C   0  0  1  0  0  0  0  0  0  0  0  0
   -0.5531   -7.9707    3.8025 C   0  0  0  0  0  0  0  0  0  0  0  0
    0.0910  -11.1375    4.1275 H   0  0  0  0  0  0  0  0  0  0  0  0
    1.4133  -11.4262    3.0012 H   0  0  0  0  0  0  0  0  0  0  0  0
    0.1121  -10.3547    2.5392 H   0  0  0  0  0  0  0  0  0  0  0  0
    2.0352   -8.9979    3.1607 H   0  0  0  0  0  0  0  0  0  0  0  0
    2.0917  -10.5499    5.7840 H   0  0  0  0  0  0  0  0  0  0  0  0
    3.2121  -10.7571    4.4607 H   0  0  0  0  0  0  0  0  0  0  0  0
    4.1598   -9.2914    6.2378 H   0  0  0  0  0  0  0  0  0  0  0  0
    4.0139   -8.4313    4.7119 H   0  0  0  0  0  0  0  0  0  0  0  0
    3.4372   -8.0068    8.0669 H   0  0  0  0  0  0  0  0  0  0  0  0
    1.0593   -6.9637    8.5973 H   0  0  0  0  0  0  0  0  0  0  0  0
    2.4779   -6.0100    8.9413 H   0  0  0  0  0  0  0  0  0  0  0  0
   -0.3188   -3.8720    7.4873 H   0  0  0  0  0  0  0  0  0  0  0  0
    0.4919   -4.3562    8.9634 H   0  0  0  0  0  0  0  0  0  0  0  0
   -0.6052   -5.4381    8.1763 H   0  0  0  0  0  0  0  0  0  0  0  0
   -0.1798   -6.5167    6.2723 H   0  0  0  0  0  0  0  0  0  0  0  0
   -0.1062   -5.4283    3.9771 H   0  0  0  0  0  0  0  0  0  0  0  0
   -0.5805   -4.4258    5.3042 H   0  0  0  0  0  0  0  0  0  0  0  0
    2.1473   -4.4484    3.9692 H   0  0  0  0  0  0  0  0  0  0  0  0
    0.8900   -3.2748    3.7721 H   0  0  0  0  0  0  0  0  0  0  0  0
    0.9656   -2.7888    6.2155 H   0  0  0  0  0  0  0  0  0  0  0  0
    2.0553    0.1060    4.5498 H   0  0  0  0  0  0  0  0  0  0  0  0
    0.8762   -0.5792    5.6423 H   0  0  0  0  0  0  0  0  0  0  0  0
    1.0564   -1.1882    4.0095 H   0  0  0  0  0  0  0  0  0  0  0  0
    4.3216   -2.9298    4.4180 H   0  0  0  0  0  0  0  0  0  0  0  0
    3.1805   -2.2742    3.3159 H   0  0  0  0  0  0  0  0  0  0  0  0
    5.3688   -1.1543    3.2444 H   0  0  0  0  0  0  0  0  0  0  0  0
    4.1025   -0.0212    3.6055 H   0  0  0  0  0  0  0  0  0  0  0  0
    5.9541   -1.3568    5.6311 H   0  0  0  0  0  0  0  0  0  0  0  0
    6.8492    0.2812    4.3161 H   0  0  0  0  0  0  0  0  0  0  0  0
    4.9987   -0.0366    7.3347 H   0  0  0  0  0  0  0  0  0  0  0  0
    3.4235    1.5255    5.2929 H   0  0  0  0  0  0  0  0  0  0  0  0
    4.5837    2.0627    6.4792 H   0  0  0  0  0  0  0  0  0  0  0  0
    3.0155    1.4923    7.0136 H   0  0  0  0  0  0  0  0  0  0  0  0
    2.5125   -0.7391    7.2448 H   0  0  0  0  0  0  0  0  0  0  0  0
    4.8315   -2.6389    7.3693 H   0  0  0  0  0  0  0  0  0  0  0  0
    4.0931   -1.7254    8.6292 H   0  0  0  0  0  0  0  0  0  0  0  0
    3.2802   -3.9853    8.8051 H   0  0  0  0  0  0  0  0  0  0  0  0
    1.9960   -2.8656    8.4516 H   0  0  0  0  0  0  0  0  0  0  0  0
    4.5458   -4.1772    6.0008 H   0  0  0  0  0  0  0  0  0  0  0  0
    3.5930   -5.4645    5.3550 H   0  0  0  0  0  0  0  0  0  0  0  0
    4.2160   -5.5085    7.0049 H   0  0  0  0  0  0  0  0  0  0  0  0
    2.0661   -6.8162    4.3903 H   0  0  0  0  0  0  0  0  0  0  0  0
    0.1716   -8.8906    5.5637 H   0  0  0  0  0  0  0  0  0  0  0  0
   -0.2098   -7.4916    2.8867 H   0  0  0  0  0  0  0  0  0  0  0  0
   -1.2313   -7.2981    4.3233 H   0  0  0  0  0  0  0  0  0  0  0  0
   -1.1720   -8.8213    3.5191 H   0  0  0  0  0  0  0  0  0  0  0  0
  1  2  1  0
  1 30  1  0
  1 31  1  0
  1 32  1  0
  2 28  1  0
  2  3  1  0
  2 33  1  6
  3  4  1  0
  3 34  1  0
  3 35  1  0
  4  5  1  0
  4 36  1  0
  4 37  1  0
  5 27  1  0
  5  6  2  0
  6  7  1  0
  6 38  1  0
  7  8  1  0
  7 39  1  0
  7 40  1  0
  8 25  1  0
  8  9  1  1
  8 10  1  0
  9 41  1  0
  9 42  1  0
  9 43  1  0
 10 11  1  0
 10 27  1  0
 10 44  1  1
 11 12  1  0
 11 45  1  0
 11 46  1  0
 12 13  1  0
 12 47  1  0
 12 48  1  0
 13 25  1  0
 13 14  1  0
 13 49  1  1
 14 22  1  0
 14 15  1  6
 14 16  1  0
 15 50  1  0
 15 51  1  0
 15 52  1  0
 16 17  1  0
 16 53  1  0
 16 54  1  0
 17 18  1  0
 17 55  1  0
 17 56  1  0
 18 19  1  0
 18 20  1  0
 18 57  1  1
 19 58  1  0
 20 21  1  0
 20 22  1  0
 20 59  1  1
 21 60  1  0
 21 61  1  0
 21 62  1  0
 22 23  1  0
 22 63  1  1
 23 24  1  0
 23 64  1  0
 23 65  1  0
 24 25  1  0
 24 66  1  0
 24 67  1  0
 25 26  1  6
 26 68  1  0
 26 69  1  0
 26 70  1  0
 27 28  1  0
 27 71  1  6
 28 29  1  0
 28 72  1  1
 29 73  1  0
 29 74  1  0
 29 75  1  0
M  END
>  <i_m_ct_stereo_status>  (30) 
1

>  <s_m_source_file>  (30) 
/var/tmp/pbs.5076255.sched01/tmpokz5906q/0mijyat0o.sdf

>  <i_m_source_file_index>  (30) 
11

>  <i_lp_mmshare_version>  (30) 
48012

>  <i_f3d_flags>  (30) 
0

>  <s_epik_input>  (30) 
W0NIM11bQ0BIXTFbQ0BIXShbQ0gzXSlbQ0gyXVtDSDJdQyg9W0NIXVtDSDJdMilbQ0BASF0xW0NAQEhdKFtDQEBdMjNbQ0gzXSlbQ0gyXVtDSDJdW0NAQEhdNFtDQEBdNShbQ0gzXSlbQ0BIXShbQ0BIXShbQ0gzXSlbQ0BIXShbT0hdKVtDSDJdW0NIMl01KVtDSDJdW0NIMl1bQ0BAXTM0W0NIM10=

>  <s_epik_cmdline>  (30) 
J2VwaWtfcHl0aG9uJywgJy1waHQnLCAnMi4wJywgJy1waCcsICc3LjAnLCAnLXRuJywgJzgnLCAnLW1hJywgJzIwMCcsICctaW1hZScsICc8aW5maWxlLm1hZT4nLCAnLW9tYWUnLCAnPG91dGZpbGUubWFlPic=

>  <r_lp_tautomer_probability>  (30) 
1

>  <r_epik_Ionization_Penalty>  (30) 
2.98396e-06

>  <r_epik_Ionization_Penalty_Charging>  (30) 
0

>  <r_epik_Ionization_Penalty_Neutral>  (30) 
2.98396e-06

>  <r_epik_State_Penalty>  (30) 
-0

>  <r_epik_Charging_Adjusted_Penalty>  (30) 
0

>  <i_epik_Tot_Q>  (30) 
0

>  <i_epik_Tot_abs_Q>  (30) 
0

>  <s_lp_Force_Field>  (30) 
OPLS3e

>  <r_lp_Energy>  (30) 
83.4218

>  <b_lp_Chiralities_Consistent>  (30) 
1

>  <s_lp_Variant>  (30) 
6:0-1

>  <s_i_glide_gridfile>  (30) 
pfpi4k_grid

>  <i_i_glide_lignum>  (30) 
11

>  <i_i_glide_rotatable_bonds>  (30) 
1

>  <r_i_docking_score>  (30) 
-1.90955

>  <r_i_glide_ligand_efficiency>  (30) 
-0.0658465

>  <r_i_glide_ligand_efficiency_sa>  (30) 
-0.202301

>  <r_i_glide_ligand_efficiency_ln>  (30) 
-0.437238

>  <r_i_glide_gscore>  (30) 
-1.90955

>  <r_i_glide_lipo>  (30) 
-0.166815

>  <r_i_glide_hbond>  (30) 
0

>  <r_i_glide_metal>  (30) 
-0

>  <r_i_glide_rewards>  (30) 
-0.690926

>  <r_i_glide_evdw>  (30) 
-20.2005

>  <r_i_glide_ecoul>  (30) 
-0.27856

>  <r_i_glide_erotb>  (30) 
0

>  <r_i_glide_esite>  (30) 
0

>  <r_i_glide_emodel>  (30) 
-23.8085

>  <r_i_glide_energy>  (30) 
-20.479

>  <r_i_glide_einternal>  (30) 
0.373442

>  <r_i_glide_intrahb_reward>  (30) 
-0

>  <i_i_glide_confnum>  (30) 
1

>  <i_i_glide_posenum>  (30) 
38

>  <r_i_glide_eff_state_penalty>  (30) 
0

>  <ligand_id>  (30) 
6

>  <original_smiles>  (30) 
CC1CCC2=CCC3(C)C(CCC4C5(C)CCC(O)C(C)C5CCC43C)C2C1C

>  <smiles>  (30) 
[H]OC1([H])C([H])([H])C([H])([H])C2(C([H])([H])[H])C([H])(C([H])([H])C([H])([H])C3(C([H])([H])[H])C2([H])C([H])([H])C([H])([H])C2([H])C4([H])C(=C([H])C([H])([H])C23C([H])([H])[H])C([H])([H])C([H])([H])C([H])(C([H])([H])[H])C4([H])C([H])([H])[H])C1([H])C([H])([H])[H]

$$$$
7:0:0
     RDKit          3D

 57 62  0  0  1  0  0  0  0  0999 V2000
    3.3801   -0.8569    3.6844 C   0  0  0  0  0  0  0  0  0  0  0  0
    3.9455   -2.1122    4.0695 O   0  0  0  0  0  0  0  0  0  0  0  0
    3.3114   -3.2086    3.4104 C   0  0  2  0  0  0  0  0  0  0  0  0
    3.9988   -4.5497    3.5863 C   0  0  1  0  0  0  0  0  0  0  0  0
    3.3373   -5.9039    3.3386 C   0  0  2  0  0  0  0  0  0  0  0  0
    2.6451   -6.3092    4.5101 O   0  0  0  0  0  0  0  0  0  0  0  0
    4.4440   -6.9283    3.0004 C   0  0  0  0  0  0  0  0  0  0  0  0
    4.7657   -7.0309    1.4757 C   0  0  1  0  0  0  0  0  0  0  0  0
    4.2901   -8.3778    0.8464 C   0  0  1  0  0  0  0  0  0  0  0  0
    5.2661   -9.3742    1.0672 O   0  0  0  0  0  0  0  0  0  0  0  0
    2.9669   -8.9085    1.4037 C   0  0  0  0  0  0  0  0  0  0  0  0
    1.8698   -8.2140    1.7422 C   0  0  0  0  0  0  0  0  0  0  0  0
    1.5762   -6.7564    1.4357 C   0  0  1  0  0  0  0  0  0  0  0  0
    0.1841   -6.5273    1.5862 O   0  0  0  0  0  0  0  0  0  0  0  0
    2.4029   -5.6240    2.1259 C   0  0  2  0  0  0  0  0  0  0  0  0
    3.3526   -4.7780    1.2264 C   0  0  2  0  0  0  0  0  0  0  0  0
    2.5807   -3.8853    0.1804 C   0  0  0  0  0  0  0  0  0  0  0  0
    1.8257   -4.5432   -0.8666 O   0  0  0  0  0  0  0  0  0  0  0  0
    4.3908   -5.7645    0.5940 C   0  0  1  0  0  0  0  0  0  0  0  0
    5.6476   -5.0565    0.0239 C   0  0  1  0  0  0  0  0  0  0  0  0
    5.2612   -4.3516   -1.1406 O   0  0  0  0  0  0  0  0  0  0  0  0
    6.3869   -4.1158    1.0187 C   0  0  1  0  0  0  0  0  0  0  0  0
    7.1249   -4.9450    1.9052 O   0  0  0  0  0  0  0  0  0  0  0  0
    7.3895   -3.1393    0.3413 C   0  0  0  0  0  0  0  0  0  0  0  0
    6.6232   -1.8293    0.0678 C   0  0  0  0  0  0  0  0  0  0  0  0
    5.3562   -1.9570    0.9075 C   0  0  0  0  0  0  0  0  0  0  0  0
    4.3990   -1.2321    0.7847 O   0  0  0  0  0  0  0  0  0  0  0  0
    5.4200   -3.2147    1.8006 C   0  0  1  0  0  0  0  0  0  0  0  0
    4.0828   -3.8528    2.2512 C   0  0  1  0  0  0  0  0  0  0  0  0
    3.8516   -0.0432    4.2699 H   0  0  0  0  0  0  0  0  0  0  0  0
    2.2988   -0.8341    3.9340 H   0  0  0  0  0  0  0  0  0  0  0  0
    3.4959   -0.6564    2.6632 H   0  0  0  0  0  0  0  0  0  0  0  0
    2.2173   -3.1648    3.4485 H   0  0  0  0  0  0  0  0  0  0  0  0
    4.8765   -4.5711    4.2198 H   0  0  0  0  0  0  0  0  0  0  0  0
    3.2829   -6.5380    5.1713 H   0  0  0  0  0  0  0  0  0  0  0  0
    5.3771   -6.6914    3.5456 H   0  0  0  0  0  0  0  0  0  0  0  0
    4.1737   -7.9070    3.3763 H   0  0  0  0  0  0  0  0  0  0  0  0
    5.8400   -7.1159    1.4327 H   0  0  0  0  0  0  0  0  0  0  0  0
    4.2495   -8.3040   -0.2450 H   0  0  0  0  0  0  0  0  0  0  0  0
    4.8798  -10.2212    0.8692 H   0  0  0  0  0  0  0  0  0  0  0  0
    2.9446   -9.9651    1.5956 H   0  0  0  0  0  0  0  0  0  0  0  0
    1.0406   -8.7817    2.1316 H   0  0  0  0  0  0  0  0  0  0  0  0
    1.7188   -6.7113    0.3622 H   0  0  0  0  0  0  0  0  0  0  0  0
   -0.2619   -7.3438    1.4031 H   0  0  0  0  0  0  0  0  0  0  0  0
    1.6339   -4.9517    2.5016 H   0  0  0  0  0  0  0  0  0  0  0  0
    1.9235   -3.2173    0.7319 H   0  0  0  0  0  0  0  0  0  0  0  0
    3.2582   -3.2297   -0.3537 H   0  0  0  0  0  0  0  0  0  0  0  0
    2.3885   -5.1170   -1.3485 H   0  0  0  0  0  0  0  0  0  0  0  0
    3.8932   -6.1717   -0.2817 H   0  0  0  0  0  0  0  0  0  0  0  0
    6.3546   -5.8153   -0.3162 H   0  0  0  0  0  0  0  0  0  0  0  0
    4.8739   -4.9610   -1.7470 H   0  0  0  0  0  0  0  0  0  0  0  0
    7.6822   -5.4943    1.3861 H   0  0  0  0  0  0  0  0  0  0  0  0
    8.2065   -2.8977    1.0273 H   0  0  0  0  0  0  0  0  0  0  0  0
    7.8293   -3.5432   -0.5761 H   0  0  0  0  0  0  0  0  0  0  0  0
    7.1896   -0.9199    0.3207 H   0  0  0  0  0  0  0  0  0  0  0  0
    6.2688   -1.7872   -0.9623 H   0  0  0  0  0  0  0  0  0  0  0  0
    5.9320   -2.8967    2.7123 H   0  0  0  0  0  0  0  0  0  0  0  0
  1  2  1  0
  1 30  1  0
  1 31  1  0
  1 32  1  0
  2  3  1  0
  3 29  1  0
  3  4  1  0
  3 33  1  6
  4 29  1  0
  4  5  1  0
  4 34  1  1
  5 15  1  0
  5  6  1  1
  5  7  1  0
  6 35  1  0
  7  8  1  0
  7 36  1  0
  7 37  1  0
  8 19  1  0
  8  9  1  0
  8 38  1  1
  9 10  1  0
  9 11  1  0
  9 39  1  6
 10 40  1  0
 11 12  2  3
 11 41  1  0
 12 13  1  0
 12 42  1  0
 13 14  1  0
 13 15  1  0
 13 43  1  6
 14 44  1  0
 15 16  1  0
 15 45  1  1
 29 16  1  6
 16 17  1  6
 16 19  1  0
 17 18  1  0
 17 46  1  0
 17 47  1  0
 18 48  1  0
 19 20  1  0
 19 49  1  6
 20 21  1  0
 20 22  1  0
 20 50  1  6
 21 51  1  0
 22 28  1  0
 22 23  1  1
 22 24  1  0
 23 52  1  0
 24 25  1  0
 24 53  1  0
 24 54  1  0
 25 26  1  0
 25 55  1  0
 25 56  1  0
 26 27  2  0
 26 28  1  0
 28 29  1  0
 28 57  1  1
M  END
>  <i_m_ct_stereo_status>  (31) 
1

>  <s_m_source_file>  (31) 
/var/tmp/pbs.5076255.sched01/tmpokz5906q/0mijyat0o.sdf

>  <i_m_source_file_index>  (31) 
12

>  <i_lp_mmshare_version>  (31) 
48012

>  <i_f3d_flags>  (31) 
0

>  <s_epik_input>  (31) 
W0NIM11PW0NAQEhdMVtDQEhdKFtDQF0xMjMpW0NAQF00KFtPSF0pW0NASF01W0NAXTIoW0NIMl1bT0hdKVtDQEhdKFtDQEBIXShbQ0gyXTQpW0NAQEhdKFtPSF0pL1tDSF09W0NIXVxbQ0BIXTVbT0hdKVtDQEBIXShbT0hdKVtDQF02KFtPSF0pW0NASF0zQyg9TylbQ0gyXVtDSDJdNg==

>  <s_epik_cmdline>  (31) 
J2VwaWtfcHl0aG9uJywgJy1waHQnLCAnMi4wJywgJy1waCcsICc3LjAnLCAnLXRuJywgJzgnLCAnLW1hJywgJzIwMCcsICctaW1hZScsICc8aW5maWxlLm1hZT4nLCAnLW9tYWUnLCAnPG91dGZpbGUubWFlPic=

>  <r_lp_tautomer_probability>  (31) 
1

>  <r_epik_Ionization_Penalty>  (31) 
4.65351e-07

>  <r_epik_Ionization_Penalty_Charging>  (31) 
0

>  <r_epik_Ionization_Penalty_Neutral>  (31) 
4.65351e-07

>  <r_epik_State_Penalty>  (31) 
-0

>  <r_epik_Charging_Adjusted_Penalty>  (31) 
0

>  <i_epik_Tot_Q>  (31) 
0

>  <i_epik_Tot_abs_Q>  (31) 
0

>  <s_lp_Force_Field>  (31) 
OPLS3e

>  <r_lp_Energy>  (31) 
60.3196

>  <b_lp_Chiralities_Consistent>  (31) 
1

>  <s_lp_Variant>  (31) 
7:0-1

>  <s_i_glide_gridfile>  (31) 
pfpi4k_grid

>  <i_i_glide_lignum>  (31) 
12

>  <i_i_glide_rotatable_bonds>  (31) 
8

>  <r_i_docking_score>  (31) 
-4.15947

>  <r_i_glide_ligand_efficiency>  (31) 
-0.14343

>  <r_i_glide_ligand_efficiency_sa>  (31) 
-0.440663

>  <r_i_glide_ligand_efficiency_ln>  (31) 
-0.952414

>  <r_i_glide_gscore>  (31) 
-4.15947

>  <r_i_glide_lipo>  (31) 
-0.539953

>  <r_i_glide_hbond>  (31) 
-0.319073

>  <r_i_glide_metal>  (31) 
-0

>  <r_i_glide_rewards>  (31) 
-0.716798

>  <r_i_glide_evdw>  (31) 
-18.2955

>  <r_i_glide_ecoul>  (31) 
-11.9123

>  <r_i_glide_erotb>  (31) 
0.117976

>  <r_i_glide_esite>  (31) 
0

>  <r_i_glide_emodel>  (31) 
-36.0943

>  <r_i_glide_energy>  (31) 
-30.2079

>  <r_i_glide_einternal>  (31) 
4.24107

>  <r_i_glide_intrahb_reward>  (31) 
-0

>  <i_i_glide_confnum>  (31) 
4

>  <i_i_glide_posenum>  (31) 
19

>  <r_i_glide_eff_state_penalty>  (31) 
0

>  <ligand_id>  (31) 
7

>  <original_smiles>  (31) 
COC1C2C3(O)CC4C(O)C=CC(O)C3C3(CO)C4C(O)C4(O)CCC(=O)C4C123

>  <smiles>  (31) 
[H]OC([H])([H])C12C3([H])C([H])(O[H])C4(O[H])C([H])([H])C([H])([H])C(=O)C4([H])C14C([H])(OC([H])([H])[H])C4([H])C1(O[H])C([H])([H])C3([H])C([H])(O[H])C([H])=C([H])C([H])(O[H])C12[H]

$$$$
7:0:1
     RDKit          3D

 57 62  0  0  1  0  0  0  0  0999 V2000
    3.7170   -0.8349    3.8579 C   0  0  0  0  0  0  0  0  0  0  0  0
    4.2795   -2.1094    4.1900 O   0  0  0  0  0  0  0  0  0  0  0  0
    3.5853   -3.1766    3.5514 C   0  0  2  0  0  0  0  0  0  0  0  0
    4.2252   -4.5517    3.6849 C   0  0  1  0  0  0  0  0  0  0  0  0
    3.4974   -5.8737    3.4400 C   0  0  2  0  0  0  0  0  0  0  0  0
    2.8192   -6.2727    4.6159 O   0  0  0  0  0  0  0  0  0  0  0  0
    4.5591   -6.9279    3.0548 C   0  0  0  0  0  0  0  0  0  0  0  0
    4.8231   -7.0278    1.5187 C   0  0  1  0  0  0  0  0  0  0  0  0
    4.2863   -8.3510    0.8875 C   0  0  1  0  0  0  0  0  0  0  0  0
    5.2303   -9.3872    1.0701 O   0  0  0  0  0  0  0  0  0  0  0  0
    2.9615   -8.8318    1.4725 C   0  0  0  0  0  0  0  0  0  0  0  0
    1.9015   -8.0943    1.8328 C   0  0  0  0  0  0  0  0  0  0  0  0
    1.6591   -6.6214    1.5455 C   0  0  1  0  0  0  0  0  0  0  0  0
    0.2828   -6.3444    1.7436 O   0  0  0  0  0  0  0  0  0  0  0  0
    2.5442   -5.5404    2.2590 C   0  0  2  0  0  0  0  0  0  0  0  0
    3.5183   -4.7143    1.3556 C   0  0  2  0  0  0  0  0  0  0  0  0
    2.7415   -3.8377    0.3337 C   0  0  0  0  0  0  0  0  0  0  0  0
    2.3828   -2.6108    0.8899 O   0  0  0  0  0  0  0  0  0  0  0  0
    4.4789   -5.7422    0.6634 C   0  0  1  0  0  0  0  0  0  0  0  0
    5.7483   -5.0797    0.0620 C   0  0  1  0  0  0  0  0  0  0  0  0
    5.4025   -4.3636   -1.1127 O   0  0  0  0  0  0  0  0  0  0  0  0
    6.5469   -4.1792    1.0443 C   0  0  1  0  0  0  0  0  0  0  0  0
    7.2770   -5.0330    1.9055 O   0  0  0  0  0  0  0  0  0  0  0  0
    7.5636   -3.2309    0.3431 C   0  0  0  0  0  0  0  0  0  0  0  0
    6.8418   -1.8882    0.0935 C   0  0  0  0  0  0  0  0  0  0  0  0
    5.6024   -1.9889    0.9692 C   0  0  0  0  0  0  0  0  0  0  0  0
    4.7090   -1.1591    0.8920 O   0  0  0  0  0  0  0  0  0  0  0  0
    5.6367   -3.2356    1.8572 C   0  0  1  0  0  0  0  0  0  0  0  0
    4.3047   -3.8378    2.3674 C   0  0  1  0  0  0  0  0  0  0  0  0
    4.2432   -0.0507    4.4235 H   0  0  0  0  0  0  0  0  0  0  0  0
    2.6637   -0.7981    4.1652 H   0  0  0  0  0  0  0  0  0  0  0  0
    3.7758   -0.6256    2.8326 H   0  0  0  0  0  0  0  0  0  0  0  0
    2.5001   -3.0943    3.6124 H   0  0  0  0  0  0  0  0  0  0  0  0
    5.1167   -4.6153    4.2946 H   0  0  0  0  0  0  0  0  0  0  0  0
    2.2374   -5.5763    4.8724 H   0  0  0  0  0  0  0  0  0  0  0  0
    5.5116   -6.7420    3.5770 H   0  0  0  0  0  0  0  0  0  0  0  0
    4.2594   -7.9015    3.4266 H   0  0  0  0  0  0  0  0  0  0  0  0
    5.8925   -7.1619    1.4290 H   0  0  0  0  0  0  0  0  0  0  0  0
    4.2294   -8.2581   -0.1990 H   0  0  0  0  0  0  0  0  0  0  0  0
    4.8205  -10.2171    0.8412 H   0  0  0  0  0  0  0  0  0  0  0  0
    2.9051   -9.8903    1.6718 H   0  0  0  0  0  0  0  0  0  0  0  0
    1.0726   -8.6338    2.2592 H   0  0  0  0  0  0  0  0  0  0  0  0
    1.7726   -6.5318    0.4705 H   0  0  0  0  0  0  0  0  0  0  0  0
   -0.1780   -7.1726    1.7103 H   0  0  0  0  0  0  0  0  0  0  0  0
    1.8066   -4.8400    2.6539 H   0  0  0  0  0  0  0  0  0  0  0  0
    3.3242   -3.5075   -0.5198 H   0  0  0  0  0  0  0  0  0  0  0  0
    1.9023   -4.3807   -0.1050 H   0  0  0  0  0  0  0  0  0  0  0  0
    1.9301   -2.0892    0.2428 H   0  0  0  0  0  0  0  0  0  0  0  0
    3.9188   -6.0992   -0.2001 H   0  0  0  0  0  0  0  0  0  0  0  0
    6.4143   -5.8659   -0.2918 H   0  0  0  0  0  0  0  0  0  0  0  0
    4.9262   -4.9375   -1.6853 H   0  0  0  0  0  0  0  0  0  0  0  0
    6.6825   -5.6494    2.3034 H   0  0  0  0  0  0  0  0  0  0  0  0
    8.4108   -3.0344    1.0091 H   0  0  0  0  0  0  0  0  0  0  0  0
    7.9606   -3.6478   -0.5928 H   0  0  0  0  0  0  0  0  0  0  0  0
    7.4430   -1.0113    0.3460 H   0  0  0  0  0  0  0  0  0  0  0  0
    6.4573   -1.8280   -0.9190 H   0  0  0  0  0  0  0  0  0  0  0  0
    6.1922   -2.9454    2.7506 H   0  0  0  0  0  0  0  0  0  0  0  0
  1  2  1  0
  1 30  1  0
  1 31  1  0
  1 32  1  0
  2  3  1  0
  3 29  1  0
  3  4  1  0
  3 33  1  6
  4 29  1  0
  4  5  1  0
  4 34  1  1
  5 15  1  0
  5  6  1  1
  5  7  1  0
  6 35  1  0
  7  8  1  0
  7 36  1  0
  7 37  1  0
  8 19  1  0
  8  9  1  0
  8 38  1  1
  9 10  1  0
  9 11  1  0
  9 39  1  6
 10 40  1  0
 11 12  2  3
 11 41  1  0
 12 13  1  0
 12 42  1  0
 13 14  1  0
 13 15  1  0
 13 43  1  6
 14 44  1  0
 15 16  1  0
 15 45  1  1
 29 16  1  6
 16 17  1  6
 16 19  1  0
 17 18  1  0
 17 46  1  0
 17 47  1  0
 18 48  1  0
 19 20  1  0
 19 49  1  6
 20 21  1  0
 20 22  1  0
 20 50  1  6
 21 51  1  0
 22 28  1  0
 22 23  1  1
 22 24  1  0
 23 52  1  0
 24 25  1  0
 24 53  1  0
 24 54  1  0
 25 26  1  0
 25 55  1  0
 25 56  1  0
 26 27  2  0
 26 28  1  0
 28 29  1  0
 28 57  1  1
M  END
>  <i_m_ct_stereo_status>  (32) 
1

>  <s_m_source_file>  (32) 
/var/tmp/pbs.5076255.sched01/tmpokz5906q/0mijyat0o.sdf

>  <i_m_source_file_index>  (32) 
12

>  <i_lp_mmshare_version>  (32) 
48012

>  <i_f3d_flags>  (32) 
0

>  <s_epik_input>  (32) 
W0NIM11PW0NAQEhdMVtDQEhdKFtDQF0xMjMpW0NAQF00KFtPSF0pW0NASF01W0NAXTIoW0NIMl1bT0hdKVtDQEhdKFtDQEBIXShbQ0gyXTQpW0NAQEhdKFtPSF0pL1tDSF09W0NIXVxbQ0BIXTVbT0hdKVtDQEBIXShbT0hdKVtDQF02KFtPSF0pW0NASF0zQyg9TylbQ0gyXVtDSDJdNg==

>  <s_epik_cmdline>  (32) 
J2VwaWtfcHl0aG9uJywgJy1waHQnLCAnMi4wJywgJy1waCcsICc3LjAnLCAnLXRuJywgJzgnLCAnLW1hJywgJzIwMCcsICctaW1hZScsICc8aW5maWxlLm1hZT4nLCAnLW9tYWUnLCAnPG91dGZpbGUubWFlPic=

>  <r_lp_tautomer_probability>  (32) 
1

>  <r_epik_Ionization_Penalty>  (32) 
4.65351e-07

>  <r_epik_Ionization_Penalty_Charging>  (32) 
0

>  <r_epik_Ionization_Penalty_Neutral>  (32) 
4.65351e-07

>  <r_epik_State_Penalty>  (32) 
-0

>  <r_epik_Charging_Adjusted_Penalty>  (32) 
0

>  <i_epik_Tot_Q>  (32) 
0

>  <i_epik_Tot_abs_Q>  (32) 
0

>  <s_lp_Force_Field>  (32) 
OPLS3e

>  <r_lp_Energy>  (32) 
60.3196

>  <b_lp_Chiralities_Consistent>  (32) 
1

>  <s_lp_Variant>  (32) 
7:0-1

>  <s_i_glide_gridfile>  (32) 
pfpi4k_grid

>  <i_i_glide_lignum>  (32) 
12

>  <i_i_glide_rotatable_bonds>  (32) 
8

>  <r_i_docking_score>  (32) 
-3.81238

>  <r_i_glide_ligand_efficiency>  (32) 
-0.131461

>  <r_i_glide_ligand_efficiency_sa>  (32) 
-0.403891

>  <r_i_glide_ligand_efficiency_ln>  (32) 
-0.872938

>  <r_i_glide_gscore>  (32) 
-3.81238

>  <r_i_glide_lipo>  (32) 
-0.588341

>  <r_i_glide_hbond>  (32) 
-0.361256

>  <r_i_glide_metal>  (32) 
-0

>  <r_i_glide_rewards>  (32) 
-0.742788

>  <r_i_glide_evdw>  (32) 
-20.3687

>  <r_i_glide_ecoul>  (32) 
-8.75926

>  <r_i_glide_erotb>  (32) 
0.0825832

>  <r_i_glide_esite>  (32) 
0

>  <r_i_glide_emodel>  (32) 
-31.6067

>  <r_i_glide_energy>  (32) 
-29.128

>  <r_i_glide_einternal>  (32) 
4.40968

>  <r_i_glide_intrahb_reward>  (32) 
-0

>  <i_i_glide_confnum>  (32) 
5

>  <i_i_glide_posenum>  (32) 
30

>  <r_i_glide_eff_state_penalty>  (32) 
0

>  <ligand_id>  (32) 
7

>  <original_smiles>  (32) 
COC1C2C3(O)CC4C(O)C=CC(O)C3C3(CO)C4C(O)C4(O)CCC(=O)C4C123

>  <smiles>  (32) 
[H]OC([H])([H])C12C3([H])C([H])(O[H])C4(O[H])C([H])([H])C([H])([H])C(=O)C4([H])C14C([H])(OC([H])([H])[H])C4([H])C1(O[H])C([H])([H])C3([H])C([H])(O[H])C([H])=C([H])C([H])(O[H])C12[H]

$$$$
7:0:2
     RDKit          3D

 57 62  0  0  1  0  0  0  0  0999 V2000
    2.6692    0.3836    2.9387 C   0  0  0  0  0  0  0  0  0  0  0  0
    3.2997   -0.3870    1.9320 O   0  0  0  0  0  0  0  0  0  0  0  0
    2.8622   -1.7318    1.9149 C   0  0  2  0  0  0  0  0  0  0  0  0
    3.7892   -2.6619    2.6655 C   0  0  1  0  0  0  0  0  0  0  0  0
    3.4107   -4.0586    3.1406 C   0  0  2  0  0  0  0  0  0  0  0  0
    2.7828   -3.9545    4.4113 O   0  0  0  0  0  0  0  0  0  0  0  0
    4.7063   -4.8894    3.2579 C   0  0  0  0  0  0  0  0  0  0  0  0
    5.0779   -5.6624    1.9577 C   0  0  1  0  0  0  0  0  0  0  0  0
    4.8714   -7.2071    2.1043 C   0  0  1  0  0  0  0  0  0  0  0  0
    6.0479   -7.7485    2.6751 O   0  0  0  0  0  0  0  0  0  0  0  0
    3.6901   -7.6356    2.9633 C   0  0  0  0  0  0  0  0  0  0  0  0
    2.4685   -7.0809    2.9736 C   0  0  0  0  0  0  0  0  0  0  0  0
    1.9280   -6.0473    1.9981 C   0  0  1  0  0  0  0  0  0  0  0  0
    0.5128   -6.0396    2.1295 O   0  0  0  0  0  0  0  0  0  0  0  0
    2.4748   -4.5785    2.0128 C   0  0  2  0  0  0  0  0  0  0  0  0
    3.2678   -4.1159    0.7568 C   0  0  2  0  0  0  0  0  0  0  0  0
    2.2898   -4.0856   -0.4787 C   0  0  0  0  0  0  0  0  0  0  0  0
    2.6637   -3.4332   -1.6888 O   0  0  0  0  0  0  0  0  0  0  0  0
    4.4751   -5.0922    0.6129 C   0  0  1  0  0  0  0  0  0  0  0  0
    5.5919   -4.5544   -0.3198 C   0  0  1  0  0  0  0  0  0  0  0  0
    5.0861   -4.5640   -1.6371 O   0  0  0  0  0  0  0  0  0  0  0  0
    6.1117   -3.1277    0.0443 C   0  0  1  0  0  0  0  0  0  0  0  0
    6.9866   -3.2181    1.1527 O   0  0  0  0  0  0  0  0  0  0  0  0
    6.8821   -2.4542   -1.1123 C   0  0  0  0  0  0  0  0  0  0  0  0
    5.8419   -1.6372   -1.9026 C   0  0  0  0  0  0  0  0  0  0  0  0
    4.6836   -1.5124   -0.9426 C   0  0  0  0  0  0  0  0  0  0  0  0
    3.6207   -0.9823   -1.2545 O   0  0  0  0  0  0  0  0  0  0  0  0
    4.9917   -2.1391    0.3987 C   0  0  1  0  0  0  0  0  0  0  0  0
    3.7749   -2.6986    1.1611 C   0  0  1  0  0  0  0  0  0  0  0  0
    2.9506    1.4373    2.8398 H   0  0  0  0  0  0  0  0  0  0  0  0
    2.9699    0.0358    3.9279 H   0  0  0  0  0  0  0  0  0  0  0  0
    1.5822    0.3202    2.8542 H   0  0  0  0  0  0  0  0  0  0  0  0
    1.7678   -1.8515    1.9250 H   0  0  0  0  0  0  0  0  0  0  0  0
    4.6431   -2.2002    3.1715 H   0  0  0  0  0  0  0  0  0  0  0  0
    2.0982   -3.3117    4.3556 H   0  0  0  0  0  0  0  0  0  0  0  0
    5.5547   -4.2518    3.5528 H   0  0  0  0  0  0  0  0  0  0  0  0
    4.6302   -5.5708    4.1023 H   0  0  0  0  0  0  0  0  0  0  0  0
    6.1560   -5.5684    1.8734 H   0  0  0  0  0  0  0  0  0  0  0  0
    4.7832   -7.7050    1.1345 H   0  0  0  0  0  0  0  0  0  0  0  0
    6.1627   -7.4113    3.5463 H   0  0  0  0  0  0  0  0  0  0  0  0
    3.8796   -8.4317    3.6613 H   0  0  0  0  0  0  0  0  0  0  0  0
    1.7600   -7.4817    3.6842 H   0  0  0  0  0  0  0  0  0  0  0  0
    2.0697   -6.4869    1.0141 H   0  0  0  0  0  0  0  0  0  0  0  0
    0.2326   -6.9351    2.2693 H   0  0  0  0  0  0  0  0  0  0  0  0
    1.5843   -3.9682    2.0932 H   0  0  0  0  0  0  0  0  0  0  0  0
    1.9890   -5.1164   -0.7056 H   0  0  0  0  0  0  0  0  0  0  0  0
    1.4119   -3.5168   -0.2172 H   0  0  0  0  0  0  0  0  0  0  0  0
    2.7742   -2.5019   -1.4933 H   0  0  0  0  0  0  0  0  0  0  0  0
    4.0749   -5.9546    0.0806 H   0  0  0  0  0  0  0  0  0  0  0  0
    6.4427   -5.2499   -0.2997 H   0  0  0  0  0  0  0  0  0  0  0  0
    4.4391   -5.2656   -1.7596 H   0  0  0  0  0  0  0  0  0  0  0  0
    6.5201   -3.6699    1.8303 H   0  0  0  0  0  0  0  0  0  0  0  0
    7.6249   -1.7769   -0.6892 H   0  0  0  0  0  0  0  0  0  0  0  0
    7.4082   -3.1576   -1.7614 H   0  0  0  0  0  0  0  0  0  0  0  0
    6.1998   -0.6593   -2.2345 H   0  0  0  0  0  0  0  0  0  0  0  0
    5.4654   -2.1685   -2.7726 H   0  0  0  0  0  0  0  0  0  0  0  0
    5.4222   -1.3427    1.0148 H   0  0  0  0  0  0  0  0  0  0  0  0
  1  2  1  0
  1 30  1  0
  1 31  1  0
  1 32  1  0
  2  3  1  0
  3 29  1  0
  3  4  1  0
  3 33  1  1
  4 29  1  0
  4  5  1  0
  4 34  1  6
  5 15  1  0
  5  6  1  1
  5  7  1  0
  6 35  1  0
  7  8  1  0
  7 36  1  0
  7 37  1  0
  8 19  1  0
  8  9  1  0
  8 38  1  6
  9 10  1  0
  9 11  1  0
  9 39  1  6
 10 40  1  0
 11 12  2  3
 11 41  1  0
 12 13  1  0
 12 42  1  0
 13 14  1  0
 13 15  1  0
 13 43  1  6
 14 44  1  0
 15 16  1  0
 15 45  1  1
 29 16  1  1
 16 17  1  6
 16 19  1  0
 17 18  1  0
 17 46  1  0
 17 47  1  0
 18 48  1  0
 19 20  1  0
 19 49  1  6
 20 21  1  0
 20 22  1  0
 20 50  1  6
 21 51  1  0
 22 28  1  0
 22 23  1  1
 22 24  1  0
 23 52  1  0
 24 25  1  0
 24 53  1  0
 24 54  1  0
 25 26  1  0
 25 55  1  0
 25 56  1  0
 26 27  2  0
 26 28  1  0
 28 29  1  0
 28 57  1  1
M  END
>  <i_m_ct_stereo_status>  (33) 
1

>  <s_m_source_file>  (33) 
/var/tmp/pbs.5076255.sched01/tmpokz5906q/0mijyat0o.sdf

>  <i_m_source_file_index>  (33) 
12

>  <i_lp_mmshare_version>  (33) 
48012

>  <i_f3d_flags>  (33) 
0

>  <s_epik_input>  (33) 
W0NIM11PW0NAQEhdMVtDQEhdKFtDQF0xMjMpW0NAQF00KFtPSF0pW0NASF01W0NAXTIoW0NIMl1bT0hdKVtDQEhdKFtDQEBIXShbQ0gyXTQpW0NAQEhdKFtPSF0pL1tDSF09W0NIXVxbQ0BIXTVbT0hdKVtDQEBIXShbT0hdKVtDQF02KFtPSF0pW0NASF0zQyg9TylbQ0gyXVtDSDJdNg==

>  <s_epik_cmdline>  (33) 
J2VwaWtfcHl0aG9uJywgJy1waHQnLCAnMi4wJywgJy1waCcsICc3LjAnLCAnLXRuJywgJzgnLCAnLW1hJywgJzIwMCcsICctaW1hZScsICc8aW5maWxlLm1hZT4nLCAnLW9tYWUnLCAnPG91dGZpbGUubWFlPic=

>  <r_lp_tautomer_probability>  (33) 
1

>  <r_epik_Ionization_Penalty>  (33) 
4.65351e-07

>  <r_epik_Ionization_Penalty_Charging>  (33) 
0

>  <r_epik_Ionization_Penalty_Neutral>  (33) 
4.65351e-07

>  <r_epik_State_Penalty>  (33) 
-0

>  <r_epik_Charging_Adjusted_Penalty>  (33) 
0

>  <i_epik_Tot_Q>  (33) 
0

>  <i_epik_Tot_abs_Q>  (33) 
0

>  <s_lp_Force_Field>  (33) 
OPLS3e

>  <r_lp_Energy>  (33) 
60.3196

>  <b_lp_Chiralities_Consistent>  (33) 
1

>  <s_lp_Variant>  (33) 
7:0-1

>  <s_i_glide_gridfile>  (33) 
pfpi4k_grid

>  <i_i_glide_lignum>  (33) 
12

>  <i_i_glide_rotatable_bonds>  (33) 
8

>  <r_i_docking_score>  (33) 
-2.76556

>  <r_i_glide_ligand_efficiency>  (33) 
-0.0953641

>  <r_i_glide_ligand_efficiency_sa>  (33) 
-0.292989

>  <r_i_glide_ligand_efficiency_ln>  (33) 
-0.633243

>  <r_i_glide_gscore>  (33) 
-2.76556

>  <r_i_glide_lipo>  (33) 
-0.230982

>  <r_i_glide_hbond>  (33) 
-0.18873

>  <r_i_glide_metal>  (33) 
-0

>  <r_i_glide_rewards>  (33) 
-1.12426

>  <r_i_glide_evdw>  (33) 
-14.3048

>  <r_i_glide_ecoul>  (33) 
-3.91109

>  <r_i_glide_erotb>  (33) 
0.117976

>  <r_i_glide_esite>  (33) 
-0.0376632

>  <r_i_glide_emodel>  (33) 
-24.3819

>  <r_i_glide_energy>  (33) 
-18.2158

>  <r_i_glide_einternal>  (33) 
8.26999

>  <r_i_glide_intrahb_reward>  (33) 
-0.5

>  <i_i_glide_confnum>  (33) 
5

>  <i_i_glide_posenum>  (33) 
1

>  <r_i_glide_eff_state_penalty>  (33) 
0

>  <ligand_id>  (33) 
7

>  <original_smiles>  (33) 
COC1C2C3(O)CC4C(O)C=CC(O)C3C3(CO)C4C(O)C4(O)CCC(=O)C4C123

>  <smiles>  (33) 
[H]OC([H])([H])C12C3([H])C([H])(O[H])C4(O[H])C([H])([H])C([H])([H])C(=O)C4([H])C14C([H])(OC([H])([H])[H])C4([H])C1(O[H])C([H])([H])C3([H])C([H])(O[H])C([H])=C([H])C([H])(O[H])C12[H]

$$$$
7:1:0
     RDKit          3D

 57 62  0  0  1  0  0  0  0  0999 V2000
    0.0923   -6.4767    0.7236 C   0  0  0  0  0  0  0  0  0  0  0  0
    1.4055   -6.3823    0.2303 O   0  0  0  0  0  0  0  0  0  0  0  0
    1.9649   -5.0823    0.1214 C   0  0  2  0  0  0  0  0  0  0  0  0
    3.4715   -5.0510   -0.1355 C   0  0  1  0  0  0  0  0  0  0  0  0
    4.1877   -3.8431   -0.7197 C   0  0  2  0  0  0  0  0  0  0  0  0
    4.1135   -3.8979   -2.1421 O   0  0  0  0  0  0  0  0  0  0  0  0
    5.6784   -3.9092   -0.3338 C   0  0  0  0  0  0  0  0  0  0  0  0
    6.0423   -3.3095    1.0731 C   0  0  1  0  0  0  0  0  0  0  0  0
    6.8812   -1.9893    0.9581 C   0  0  1  0  0  0  0  0  0  0  0  0
    8.1850   -2.2472    0.4741 O   0  0  0  0  0  0  0  0  0  0  0  0
    6.1724   -1.0659    0.0142 C   0  0  0  0  0  0  0  0  0  0  0  0
    4.9614   -0.6454    0.3867 C   0  0  0  0  0  0  0  0  0  0  0  0
    3.7781   -1.1589   -0.3587 C   0  0  1  0  0  0  0  0  0  0  0  0
    3.9144   -0.9469   -1.7592 O   0  0  0  0  0  0  0  0  0  0  0  0
    3.4406   -2.6590   -0.0396 C   0  0  2  0  0  0  0  0  0  0  0  0
    3.3710   -3.2013    1.4514 C   0  0  2  0  0  0  0  0  0  0  0  0
    2.3025   -2.3605    2.2213 C   0  0  0  0  0  0  0  0  0  0  0  0
    1.9438   -2.8120    3.5046 O   0  0  0  0  0  0  0  0  0  0  0  0
    4.8212   -3.1734    2.0843 C   0  0  1  0  0  0  0  0  0  0  0  0
    5.0142   -4.1069    3.3135 C   0  0  1  0  0  0  0  0  0  0  0  0
    4.3517   -3.5418    4.4255 O   0  0  0  0  0  0  0  0  0  0  0  0
    4.6022   -5.5789    3.0750 C   0  0  1  0  0  0  0  0  0  0  0  0
    5.6124   -6.1917    2.2876 O   0  0  0  0  0  0  0  0  0  0  0  0
    4.4412   -6.3973    4.3929 C   0  0  0  0  0  0  0  0  0  0  0  0
    2.9536   -6.3081    4.7896 C   0  0  0  0  0  0  0  0  0  0  0  0
    2.2701   -5.8115    3.5473 C   0  0  0  0  0  0  0  0  0  0  0  0
    1.0627   -5.5509    3.5364 O   0  0  0  0  0  0  0  0  0  0  0  0
    3.2404   -5.6998    2.3641 C   0  0  1  0  0  0  0  0  0  0  0  0
    2.9571   -4.6871    1.2298 C   0  0  1  0  0  0  0  0  0  0  0  0
   -0.1999   -7.5222    0.7628 H   0  0  0  0  0  0  0  0  0  0  0  0
   -0.5958   -5.9955    0.0335 H   0  0  0  0  0  0  0  0  0  0  0  0
    0.0175   -6.0451    1.6854 H   0  0  0  0  0  0  0  0  0  0  0  0
    1.4034   -4.4035   -0.5161 H   0  0  0  0  0  0  0  0  0  0  0  0
    3.9743   -5.9939   -0.3181 H   0  0  0  0  0  0  0  0  0  0  0  0
    3.5472   -4.6321   -2.3717 H   0  0  0  0  0  0  0  0  0  0  0  0
    6.0149   -4.9462   -0.3651 H   0  0  0  0  0  0  0  0  0  0  0  0
    6.2702   -3.4348   -1.1104 H   0  0  0  0  0  0  0  0  0  0  0  0
    6.7490   -4.0112    1.5030 H   0  0  0  0  0  0  0  0  0  0  0  0
    6.9905   -1.4847    1.9199 H   0  0  0  0  0  0  0  0  0  0  0  0
    8.6501   -2.8142    1.0735 H   0  0  0  0  0  0  0  0  0  0  0  0
    6.2847   -1.3645   -1.0160 H   0  0  0  0  0  0  0  0  0  0  0  0
    4.7478   -0.4681    1.4285 H   0  0  0  0  0  0  0  0  0  0  0  0
    2.9555   -0.5327   -0.0206 H   0  0  0  0  0  0  0  0  0  0  0  0
    3.0536   -0.9783   -2.1480 H   0  0  0  0  0  0  0  0  0  0  0  0
    2.4338   -2.6622   -0.4411 H   0  0  0  0  0  0  0  0  0  0  0  0
    2.6673   -1.3375    2.3202 H   0  0  0  0  0  0  0  0  0  0  0  0
    1.3915   -2.3312    1.6320 H   0  0  0  0  0  0  0  0  0  0  0  0
    2.7560   -3.1134    3.9182 H   0  0  0  0  0  0  0  0  0  0  0  0
    4.9148   -2.1884    2.5286 H   0  0  0  0  0  0  0  0  0  0  0  0
    6.0643   -4.1056    3.6007 H   0  0  0  0  0  0  0  0  0  0  0  0
    4.5327   -4.0728    5.1837 H   0  0  0  0  0  0  0  0  0  0  0  0
    5.4165   -7.1087    2.2003 H   0  0  0  0  0  0  0  0  0  0  0  0
    4.6744   -7.4501    4.1987 H   0  0  0  0  0  0  0  0  0  0  0  0
    5.1104   -6.0385    5.1834 H   0  0  0  0  0  0  0  0  0  0  0  0
    2.5558   -7.2798    5.1263 H   0  0  0  0  0  0  0  0  0  0  0  0
    2.7900   -5.5646    5.5764 H   0  0  0  0  0  0  0  0  0  0  0  0
    3.2136   -6.6936    1.9108 H   0  0  0  0  0  0  0  0  0  0  0  0
  1  2  1  0
  1 30  1  0
  1 31  1  0
  1 32  1  0
  2  3  1  0
  3 29  1  0
  3  4  1  0
  3 33  1  6
  4 29  1  0
  4  5  1  0
  4 34  1  1
  5 15  1  0
  5  6  1  6
  5  7  1  0
  6 35  1  0
  7  8  1  0
  7 36  1  0
  7 37  1  0
  8 19  1  0
  8  9  1  0
  8 38  1  1
  9 10  1  0
  9 11  1  0
  9 39  1  1
 10 40  1  0
 11 12  2  3
 11 41  1  0
 12 13  1  0
 12 42  1  0
 13 14  1  0
 13 15  1  0
 13 43  1  1
 14 44  1  0
 15 16  1  0
 15 45  1  6
 29 16  1  1
 16 17  1  1
 16 19  1  0
 17 18  1  0
 17 46  1  0
 17 47  1  0
 18 48  1  0
 19 20  1  0
 19 49  1  1
 20 21  1  0
 20 22  1  0
 20 50  1  1
 21 51  1  0
 22 28  1  0
 22 23  1  6
 22 24  1  0
 23 52  1  0
 24 25  1  0
 24 53  1  0
 24 54  1  0
 25 26  1  0
 25 55  1  0
 25 56  1  0
 26 27  2  0
 26 28  1  0
 28 29  1  0
 28 57  1  6
M  END
>  <i_m_ct_stereo_status>  (34) 
1

>  <s_m_source_file>  (34) 
/var/tmp/pbs.5076255.sched01/tmpokz5906q/0mijyat0o.sdf

>  <i_m_source_file_index>  (34) 
13

>  <i_lp_mmshare_version>  (34) 
48012

>  <i_f3d_flags>  (34) 
0

>  <s_epik_input>  (34) 
W0NIM11PW0NAQEhdMVtDQEhdKFtDQF0xMjMpW0NAQF00KFtPSF0pW0NASF01W0NAXTIoW0NIMl1bT0hdKVtDQEhdKFtDQEBIXShbQ0gyXTQpW0NAQEhdKFtPSF0pL1tDSF09W0NIXVxbQ0BIXTVbT0hdKVtDQEBIXShbT0hdKVtDQF02KFtPSF0pW0NASF0zQyg9TylbQ0gyXVtDSDJdNg==

>  <s_epik_cmdline>  (34) 
J2VwaWtfcHl0aG9uJywgJy1waHQnLCAnMi4wJywgJy1waCcsICc3LjAnLCAnLXRuJywgJzgnLCAnLW1hJywgJzIwMCcsICctaW1hZScsICc8aW5maWxlLm1hZT4nLCAnLW9tYWUnLCAnPG91dGZpbGUubWFlPic=

>  <r_lp_tautomer_probability>  (34) 
1

>  <r_epik_Ionization_Penalty>  (34) 
4.65351e-07

>  <r_epik_Ionization_Penalty_Charging>  (34) 
0

>  <r_epik_Ionization_Penalty_Neutral>  (34) 
4.65351e-07

>  <r_epik_State_Penalty>  (34) 
-0

>  <r_epik_Charging_Adjusted_Penalty>  (34) 
0

>  <i_epik_Tot_Q>  (34) 
0

>  <i_epik_Tot_abs_Q>  (34) 
0

>  <s_lp_Force_Field>  (34) 
OPLS3e

>  <r_lp_Energy>  (34) 
84.9383

>  <b_lp_Chiralities_Consistent>  (34) 
1

>  <s_lp_Variant>  (34) 
7:0-2

>  <s_i_glide_gridfile>  (34) 
pfpi4k_grid

>  <i_i_glide_lignum>  (34) 
13

>  <i_i_glide_rotatable_bonds>  (34) 
8

>  <r_i_docking_score>  (34) 
-3.17491

>  <r_i_glide_ligand_efficiency>  (34) 
-0.109479

>  <r_i_glide_ligand_efficiency_sa>  (34) 
-0.336356

>  <r_i_glide_ligand_efficiency_ln>  (34) 
-0.726973

>  <r_i_glide_gscore>  (34) 
-3.17491

>  <r_i_glide_lipo>  (34) 
-0.362898

>  <r_i_glide_hbond>  (34) 
-0.145496

>  <r_i_glide_metal>  (34) 
-0

>  <r_i_glide_rewards>  (34) 
-1.12426

>  <r_i_glide_evdw>  (34) 
-15.723

>  <r_i_glide_ecoul>  (34) 
-5.82417

>  <r_i_glide_erotb>  (34) 
0.117976

>  <r_i_glide_esite>  (34) 
-0.000455372

>  <r_i_glide_emodel>  (34) 
-24.0986

>  <r_i_glide_energy>  (34) 
-21.5471

>  <r_i_glide_einternal>  (34) 
9.52443

>  <r_i_glide_intrahb_reward>  (34) 
-0.5

>  <i_i_glide_confnum>  (34) 
5

>  <i_i_glide_posenum>  (34) 
39

>  <r_i_glide_eff_state_penalty>  (34) 
0

>  <ligand_id>  (34) 
7

>  <original_smiles>  (34) 
COC1C2C3(O)CC4C(O)C=CC(O)C3C3(CO)C4C(O)C4(O)CCC(=O)C4C123

>  <smiles>  (34) 
[H]OC([H])([H])C12C3([H])C([H])(O[H])C4(O[H])C([H])([H])C([H])([H])C(=O)C4([H])C14C([H])(OC([H])([H])[H])C4([H])C1(O[H])C([H])([H])C3([H])C([H])(O[H])C([H])=C([H])C([H])(O[H])C12[H]

$$$$
7:1:1
     RDKit          3D

 57 62  0  0  1  0  0  0  0  0999 V2000
    0.0999   -6.4900    0.7466 C   0  0  0  0  0  0  0  0  0  0  0  0
    1.4091   -6.4021    0.1995 O   0  0  0  0  0  0  0  0  0  0  0  0
    1.9676   -5.0965    0.1044 C   0  0  2  0  0  0  0  0  0  0  0  0
    3.4569   -5.0626   -0.1829 C   0  0  1  0  0  0  0  0  0  0  0  0
    4.1736   -3.8333   -0.7374 C   0  0  2  0  0  0  0  0  0  0  0  0
    4.0690   -3.8556   -2.1474 O   0  0  0  0  0  0  0  0  0  0  0  0
    5.6723   -3.9245   -0.3515 C   0  0  0  0  0  0  0  0  0  0  0  0
    6.0458   -3.3447    1.0540 C   0  0  1  0  0  0  0  0  0  0  0  0
    6.8891   -2.0268    0.9485 C   0  0  1  0  0  0  0  0  0  0  0  0
    8.1939   -2.2919    0.4607 O   0  0  0  0  0  0  0  0  0  0  0  0
    6.1769   -1.0740    0.0292 C   0  0  0  0  0  0  0  0  0  0  0  0
    4.9774   -0.6579    0.3984 C   0  0  0  0  0  0  0  0  0  0  0  0
    3.7819   -1.1703   -0.3503 C   0  0  1  0  0  0  0  0  0  0  0  0
    3.9126   -0.9477   -1.7482 O   0  0  0  0  0  0  0  0  0  0  0  0
    3.4314   -2.6604   -0.0464 C   0  0  2  0  0  0  0  0  0  0  0  0
    3.3952   -3.2330    1.4185 C   0  0  2  0  0  0  0  0  0  0  0  0
    2.3084   -2.5356    2.2738 C   0  0  0  0  0  0  0  0  0  0  0  0
    2.6233   -1.2048    2.6129 O   0  0  0  0  0  0  0  0  0  0  0  0
    4.8370   -3.2157    2.0622 C   0  0  1  0  0  0  0  0  0  0  0  0
    5.0025   -4.1502    3.2980 C   0  0  1  0  0  0  0  0  0  0  0  0
    4.3010   -3.5889    4.3903 O   0  0  0  0  0  0  0  0  0  0  0  0
    4.5914   -5.6268    3.0479 C   0  0  1  0  0  0  0  0  0  0  0  0
    5.5927   -6.2543    2.2767 O   0  0  0  0  0  0  0  0  0  0  0  0
    4.4212   -6.4545    4.3448 C   0  0  0  0  0  0  0  0  0  0  0  0
    2.9308   -6.3554    4.7477 C   0  0  0  0  0  0  0  0  0  0  0  0
    2.2568   -5.7683    3.5011 C   0  0  0  0  0  0  0  0  0  0  0  0
    1.1099   -5.3409    3.4698 O   0  0  0  0  0  0  0  0  0  0  0  0
    3.2373   -5.7262    2.3421 C   0  0  1  0  0  0  0  0  0  0  0  0
    2.9822   -4.7117    1.1886 C   0  0  1  0  0  0  0  0  0  0  0  0
   -0.2114   -7.5537    0.7523 H   0  0  0  0  0  0  0  0  0  0  0  0
   -0.6150   -5.9774    0.0634 H   0  0  0  0  0  0  0  0  0  0  0  0
    0.0643   -6.0989    1.7379 H   0  0  0  0  0  0  0  0  0  0  0  0
    1.3912   -4.4107   -0.5201 H   0  0  0  0  0  0  0  0  0  0  0  0
    3.9645   -6.0091   -0.3410 H   0  0  0  0  0  0  0  0  0  0  0  0
    3.5292   -4.6082   -2.3760 H   0  0  0  0  0  0  0  0  0  0  0  0
    5.9992   -4.9736   -0.3929 H   0  0  0  0  0  0  0  0  0  0  0  0
    6.2593   -3.4436   -1.1279 H   0  0  0  0  0  0  0  0  0  0  0  0
    6.7442   -4.0514    1.4839 H   0  0  0  0  0  0  0  0  0  0  0  0
    6.9898   -1.5360    1.9217 H   0  0  0  0  0  0  0  0  0  0  0  0
    8.1368   -2.8726   -0.2911 H   0  0  0  0  0  0  0  0  0  0  0  0
    6.2833   -1.3601   -1.0088 H   0  0  0  0  0  0  0  0  0  0  0  0
    4.7687   -0.4961    1.4487 H   0  0  0  0  0  0  0  0  0  0  0  0
    2.9584   -0.5405   -0.0164 H   0  0  0  0  0  0  0  0  0  0  0  0
    3.0382   -0.9435   -2.1240 H   0  0  0  0  0  0  0  0  0  0  0  0
    2.4166   -2.6560   -0.4353 H   0  0  0  0  0  0  0  0  0  0  0  0
    1.3751   -2.5153    1.7217 H   0  0  0  0  0  0  0  0  0  0  0  0
    2.1028   -3.0663    3.2032 H   0  0  0  0  0  0  0  0  0  0  0  0
    2.5104   -0.6713    1.8353 H   0  0  0  0  0  0  0  0  0  0  0  0
    4.9420   -2.2388    2.5220 H   0  0  0  0  0  0  0  0  0  0  0  0
    6.0471   -4.1465    3.6106 H   0  0  0  0  0  0  0  0  0  0  0  0
    4.6364   -2.7194    4.5641 H   0  0  0  0  0  0  0  0  0  0  0  0
    6.3980   -6.2141    2.7769 H   0  0  0  0  0  0  0  0  0  0  0  0
    4.6437   -7.5044    4.1468 H   0  0  0  0  0  0  0  0  0  0  0  0
    5.0795   -6.1140    5.1489 H   0  0  0  0  0  0  0  0  0  0  0  0
    2.5118   -7.3279    5.0379 H   0  0  0  0  0  0  0  0  0  0  0  0
    2.7915   -5.6428    5.5605 H   0  0  0  0  0  0  0  0  0  0  0  0
    3.1940   -6.7169    1.8910 H   0  0  0  0  0  0  0  0  0  0  0  0
  1  2  1  0
  1 30  1  0
  1 31  1  0
  1 32  1  0
  2  3  1  0
  3 29  1  0
  3  4  1  0
  3 33  1  6
  4 29  1  0
  4  5  1  0
  4 34  1  1
  5 15  1  0
  5  6  1  6
  5  7  1  0
  6 35  1  0
  7  8  1  0
  7 36  1  0
  7 37  1  0
  8 19  1  0
  8  9  1  0
  8 38  1  1
  9 10  1  0
  9 11  1  0
  9 39  1  1
 10 40  1  0
 11 12  2  3
 11 41  1  0
 12 13  1  0
 12 42  1  0
 13 14  1  0
 13 15  1  0
 13 43  1  1
 14 44  1  0
 15 16  1  0
 15 45  1  6
 29 16  1  1
 16 17  1  1
 16 19  1  0
 17 18  1  0
 17 46  1  0
 17 47  1  0
 18 48  1  0
 19 20  1  0
 19 49  1  1
 20 21  1  0
 20 22  1  0
 20 50  1  1
 21 51  1  0
 22 28  1  0
 22 23  1  6
 22 24  1  0
 23 52  1  0
 24 25  1  0
 24 53  1  0
 24 54  1  0
 25 26  1  0
 25 55  1  0
 25 56  1  0
 26 27  2  0
 26 28  1  0
 28 29  1  0
 28 57  1  6
M  END
>  <i_m_ct_stereo_status>  (35) 
1

>  <s_m_source_file>  (35) 
/var/tmp/pbs.5076255.sched01/tmpokz5906q/0mijyat0o.sdf

>  <i_m_source_file_index>  (35) 
13

>  <i_lp_mmshare_version>  (35) 
48012

>  <i_f3d_flags>  (35) 
0

>  <s_epik_input>  (35) 
W0NIM11PW0NAQEhdMVtDQEhdKFtDQF0xMjMpW0NAQF00KFtPSF0pW0NASF01W0NAXTIoW0NIMl1bT0hdKVtDQEhdKFtDQEBIXShbQ0gyXTQpW0NAQEhdKFtPSF0pL1tDSF09W0NIXVxbQ0BIXTVbT0hdKVtDQEBIXShbT0hdKVtDQF02KFtPSF0pW0NASF0zQyg9TylbQ0gyXVtDSDJdNg==

>  <s_epik_cmdline>  (35) 
J2VwaWtfcHl0aG9uJywgJy1waHQnLCAnMi4wJywgJy1waCcsICc3LjAnLCAnLXRuJywgJzgnLCAnLW1hJywgJzIwMCcsICctaW1hZScsICc8aW5maWxlLm1hZT4nLCAnLW9tYWUnLCAnPG91dGZpbGUubWFlPic=

>  <r_lp_tautomer_probability>  (35) 
1

>  <r_epik_Ionization_Penalty>  (35) 
4.65351e-07

>  <r_epik_Ionization_Penalty_Charging>  (35) 
0

>  <r_epik_Ionization_Penalty_Neutral>  (35) 
4.65351e-07

>  <r_epik_State_Penalty>  (35) 
-0

>  <r_epik_Charging_Adjusted_Penalty>  (35) 
0

>  <i_epik_Tot_Q>  (35) 
0

>  <i_epik_Tot_abs_Q>  (35) 
0

>  <s_lp_Force_Field>  (35) 
OPLS3e

>  <r_lp_Energy>  (35) 
84.9383

>  <b_lp_Chiralities_Consistent>  (35) 
1

>  <s_lp_Variant>  (35) 
7:0-2

>  <s_i_glide_gridfile>  (35) 
pfpi4k_grid

>  <i_i_glide_lignum>  (35) 
13

>  <i_i_glide_rotatable_bonds>  (35) 
8

>  <r_i_docking_score>  (35) 
-2.94201

>  <r_i_glide_ligand_efficiency>  (35) 
-0.101449

>  <r_i_glide_ligand_efficiency_sa>  (35) 
-0.311683

>  <r_i_glide_ligand_efficiency_ln>  (35) 
-0.673646

>  <r_i_glide_gscore>  (35) 
-2.94201

>  <r_i_glide_lipo>  (35) 
-0.363186

>  <r_i_glide_hbond>  (35) 
-0.152308

>  <r_i_glide_metal>  (35) 
-0

>  <r_i_glide_rewards>  (35) 
-0.624258

>  <r_i_glide_evdw>  (35) 
-16.7078

>  <r_i_glide_ecoul>  (35) 
-7.22936

>  <r_i_glide_erotb>  (35) 
0.117976

>  <r_i_glide_esite>  (35) 
-0.000441947

>  <r_i_glide_emodel>  (35) 
-25.6692

>  <r_i_glide_energy>  (35) 
-23.9372

>  <r_i_glide_einternal>  (35) 
2.35871

>  <r_i_glide_intrahb_reward>  (35) 
-0

>  <i_i_glide_confnum>  (35) 
4

>  <i_i_glide_posenum>  (35) 
11

>  <r_i_glide_eff_state_penalty>  (35) 
0

>  <ligand_id>  (35) 
7

>  <original_smiles>  (35) 
COC1C2C3(O)CC4C(O)C=CC(O)C3C3(CO)C4C(O)C4(O)CCC(=O)C4C123

>  <smiles>  (35) 
[H]OC([H])([H])C12C3([H])C([H])(O[H])C4(O[H])C([H])([H])C([H])([H])C(=O)C4([H])C14C([H])(OC([H])([H])[H])C4([H])C1(O[H])C([H])([H])C3([H])C([H])(O[H])C([H])=C([H])C([H])(O[H])C12[H]

$$$$
7:1:2
     RDKit          3D

 57 62  0  0  1  0  0  0  0  0999 V2000
    0.0949   -6.5276    0.8494 C   0  0  0  0  0  0  0  0  0  0  0  0
    1.4443   -6.4432    0.3490 O   0  0  0  0  0  0  0  0  0  0  0  0
    1.9695   -5.1235    0.2120 C   0  0  2  0  0  0  0  0  0  0  0  0
    3.4566   -5.0631   -0.1042 C   0  0  1  0  0  0  0  0  0  0  0  0
    4.1536   -3.8420   -0.6689 C   0  0  2  0  0  0  0  0  0  0  0  0
    4.0166   -3.8553   -2.0851 O   0  0  0  0  0  0  0  0  0  0  0  0
    5.6488   -3.9220   -0.3090 C   0  0  0  0  0  0  0  0  0  0  0  0
    6.0429   -3.3252    1.0833 C   0  0  1  0  0  0  0  0  0  0  0  0
    6.8714   -1.9967    0.9703 C   0  0  1  0  0  0  0  0  0  0  0  0
    8.1526   -2.2755    0.4352 O   0  0  0  0  0  0  0  0  0  0  0  0
    6.1375   -1.0656    0.0563 C   0  0  0  0  0  0  0  0  0  0  0  0
    4.9377   -0.6579    0.4502 C   0  0  0  0  0  0  0  0  0  0  0  0
    3.7420   -1.1788   -0.2844 C   0  0  1  0  0  0  0  0  0  0  0  0
    3.8290   -0.9811   -1.6809 O   0  0  0  0  0  0  0  0  0  0  0  0
    3.4068   -2.6721    0.0354 C   0  0  2  0  0  0  0  0  0  0  0  0
    3.4009   -3.2431    1.5005 C   0  0  2  0  0  0  0  0  0  0  0  0
    2.3231   -2.5608    2.3766 C   0  0  0  0  0  0  0  0  0  0  0  0
    2.6108   -1.2042    2.6373 O   0  0  0  0  0  0  0  0  0  0  0  0
    4.8569   -3.2115    2.1212 C   0  0  1  0  0  0  0  0  0  0  0  0
    5.0535   -4.1477    3.3437 C   0  0  1  0  0  0  0  0  0  0  0  0
    4.3672   -3.5804    4.4492 O   0  0  0  0  0  0  0  0  0  0  0  0
    4.6469   -5.6205    3.0994 C   0  0  1  0  0  0  0  0  0  0  0  0
    5.6082   -6.2579    2.2763 O   0  0  0  0  0  0  0  0  0  0  0  0
    4.5188   -6.4539    4.4059 C   0  0  0  0  0  0  0  0  0  0  0  0
    3.0344   -6.3696    4.8457 C   0  0  0  0  0  0  0  0  0  0  0  0
    2.3309   -5.7703    3.6199 C   0  0  0  0  0  0  0  0  0  0  0  0
    1.1890   -5.3363    3.6324 O   0  0  0  0  0  0  0  0  0  0  0  0
    3.2787   -5.7236    2.4277 C   0  0  1  0  0  0  0  0  0  0  0  0
    3.0033   -4.7308    1.2767 C   0  0  1  0  0  0  0  0  0  0  0  0
   -0.1999   -7.6039    0.8586 H   0  0  0  0  0  0  0  0  0  0  0  0
   -0.5998   -6.0489    0.1190 H   0  0  0  0  0  0  0  0  0  0  0  0
    0.0196   -6.1165    1.7922 H   0  0  0  0  0  0  0  0  0  0  0  0
    1.4037   -4.4566   -0.4294 H   0  0  0  0  0  0  0  0  0  0  0  0
    3.9571   -6.0144   -0.3034 H   0  0  0  0  0  0  0  0  0  0  0  0
    3.5122   -4.6161   -2.3095 H   0  0  0  0  0  0  0  0  0  0  0  0
    6.0007   -4.9609   -0.3654 H   0  0  0  0  0  0  0  0  0  0  0  0
    6.2219   -3.4214   -1.0901 H   0  0  0  0  0  0  0  0  0  0  0  0
    6.7631   -4.0205    1.5111 H   0  0  0  0  0  0  0  0  0  0  0  0
    6.9859   -1.5062    1.9403 H   0  0  0  0  0  0  0  0  0  0  0  0
    8.6490   -2.7736    1.0533 H   0  0  0  0  0  0  0  0  0  0  0  0
    6.2316   -1.3549   -0.9775 H   0  0  0  0  0  0  0  0  0  0  0  0
    4.7497   -0.4926    1.5006 H   0  0  0  0  0  0  0  0  0  0  0  0
    2.9230   -0.5493    0.0608 H   0  0  0  0  0  0  0  0  0  0  0  0
    2.9539   -0.9816   -2.0292 H   0  0  0  0  0  0  0  0  0  0  0  0
    2.3896   -2.6797   -0.3350 H   0  0  0  0  0  0  0  0  0  0  0  0
    1.3662   -2.6035    1.8704 H   0  0  0  0  0  0  0  0  0  0  0  0
    2.1800   -3.0614    3.3302 H   0  0  0  0  0  0  0  0  0  0  0  0
    2.4470   -0.7169    1.8538 H   0  0  0  0  0  0  0  0  0  0  0  0
    4.9515   -2.2319    2.5770 H   0  0  0  0  0  0  0  0  0  0  0  0
    6.1029   -4.1507    3.6353 H   0  0  0  0  0  0  0  0  0  0  0  0
    4.7209   -2.7348    4.6445 H   0  0  0  0  0  0  0  0  0  0  0  0
    5.7170   -5.7594    1.4940 H   0  0  0  0  0  0  0  0  0  0  0  0
    4.7457   -7.4984    4.1899 H   0  0  0  0  0  0  0  0  0  0  0  0
    5.1931   -6.1034    5.1907 H   0  0  0  0  0  0  0  0  0  0  0  0
    2.6285   -7.3473    5.1310 H   0  0  0  0  0  0  0  0  0  0  0  0
    2.9035   -5.6595    5.6512 H   0  0  0  0  0  0  0  0  0  0  0  0
    3.2381   -6.7249    1.9809 H   0  0  0  0  0  0  0  0  0  0  0  0
  1  2  1  0
  1 30  1  0
  1 31  1  0
  1 32  1  0
  2  3  1  0
  3 29  1  0
  3  4  1  0
  3 33  1  6
  4 29  1  0
  4  5  1  0
  4 34  1  1
  5 15  1  0
  5  6  1  6
  5  7  1  0
  6 35  1  0
  7  8  1  0
  7 36  1  0
  7 37  1  0
  8 19  1  0
  8  9  1  0
  8 38  1  1
  9 10  1  0
  9 11  1  0
  9 39  1  1
 10 40  1  0
 11 12  2  3
 11 41  1  0
 12 13  1  0
 12 42  1  0
 13 14  1  0
 13 15  1  0
 13 43  1  1
 14 44  1  0
 15 16  1  0
 15 45  1  6
 29 16  1  1
 16 17  1  1
 16 19  1  0
 17 18  1  0
 17 46  1  0
 17 47  1  0
 18 48  1  0
 19 20  1  0
 19 49  1  1
 20 21  1  0
 20 22  1  0
 20 50  1  1
 21 51  1  0
 22 28  1  0
 22 23  1  6
 22 24  1  0
 23 52  1  0
 24 25  1  0
 24 53  1  0
 24 54  1  0
 25 26  1  0
 25 55  1  0
 25 56  1  0
 26 27  2  0
 26 28  1  0
 28 29  1  0
 28 57  1  6
M  END
>  <i_m_ct_stereo_status>  (36) 
1

>  <s_m_source_file>  (36) 
/var/tmp/pbs.5076255.sched01/tmpokz5906q/0mijyat0o.sdf

>  <i_m_source_file_index>  (36) 
13

>  <i_lp_mmshare_version>  (36) 
48012

>  <i_f3d_flags>  (36) 
0

>  <s_epik_input>  (36) 
W0NIM11PW0NAQEhdMVtDQEhdKFtDQF0xMjMpW0NAQF00KFtPSF0pW0NASF01W0NAXTIoW0NIMl1bT0hdKVtDQEhdKFtDQEBIXShbQ0gyXTQpW0NAQEhdKFtPSF0pL1tDSF09W0NIXVxbQ0BIXTVbT0hdKVtDQEBIXShbT0hdKVtDQF02KFtPSF0pW0NASF0zQyg9TylbQ0gyXVtDSDJdNg==

>  <s_epik_cmdline>  (36) 
J2VwaWtfcHl0aG9uJywgJy1waHQnLCAnMi4wJywgJy1waCcsICc3LjAnLCAnLXRuJywgJzgnLCAnLW1hJywgJzIwMCcsICctaW1hZScsICc8aW5maWxlLm1hZT4nLCAnLW9tYWUnLCAnPG91dGZpbGUubWFlPic=

>  <r_lp_tautomer_probability>  (36) 
1

>  <r_epik_Ionization_Penalty>  (36) 
4.65351e-07

>  <r_epik_Ionization_Penalty_Charging>  (36) 
0

>  <r_epik_Ionization_Penalty_Neutral>  (36) 
4.65351e-07

>  <r_epik_State_Penalty>  (36) 
-0

>  <r_epik_Charging_Adjusted_Penalty>  (36) 
0

>  <i_epik_Tot_Q>  (36) 
0

>  <i_epik_Tot_abs_Q>  (36) 
0

>  <s_lp_Force_Field>  (36) 
OPLS3e

>  <r_lp_Energy>  (36) 
84.9383

>  <b_lp_Chiralities_Consistent>  (36) 
1

>  <s_lp_Variant>  (36) 
7:0-2

>  <s_i_glide_gridfile>  (36) 
pfpi4k_grid

>  <i_i_glide_lignum>  (36) 
13

>  <i_i_glide_rotatable_bonds>  (36) 
8

>  <r_i_docking_score>  (36) 
-2.89124

>  <r_i_glide_ligand_efficiency>  (36) 
-0.0996979

>  <r_i_glide_ligand_efficiency_sa>  (36) 
-0.306304

>  <r_i_glide_ligand_efficiency_ln>  (36) 
-0.662021

>  <r_i_glide_gscore>  (36) 
-2.89124

>  <r_i_glide_lipo>  (36) 
-0.362402

>  <r_i_glide_hbond>  (36) 
-0.0599576

>  <r_i_glide_metal>  (36) 
-0

>  <r_i_glide_rewards>  (36) 
-0.624258

>  <r_i_glide_evdw>  (36) 
-17.4438

>  <r_i_glide_ecoul>  (36) 
-7.26705

>  <r_i_glide_erotb>  (36) 
0.117976

>  <r_i_glide_esite>  (36) 
-0.00035088

>  <r_i_glide_emodel>  (36) 
-26.524

>  <r_i_glide_energy>  (36) 
-24.7108

>  <r_i_glide_einternal>  (36) 
2.60981

>  <r_i_glide_intrahb_reward>  (36) 
-0

>  <i_i_glide_confnum>  (36) 
4

>  <i_i_glide_posenum>  (36) 
21

>  <r_i_glide_eff_state_penalty>  (36) 
0

>  <ligand_id>  (36) 
7

>  <original_smiles>  (36) 
COC1C2C3(O)CC4C(O)C=CC(O)C3C3(CO)C4C(O)C4(O)CCC(=O)C4C123

>  <smiles>  (36) 
[H]OC([H])([H])C12C3([H])C([H])(O[H])C4(O[H])C([H])([H])C([H])([H])C(=O)C4([H])C14C([H])(OC([H])([H])[H])C4([H])C1(O[H])C([H])([H])C3([H])C([H])(O[H])C([H])=C([H])C([H])(O[H])C12[H]

$$$$
9:0:0
     RDKit          3D

 85 93  0  0  1  0  0  0  0  0999 V2000
   -0.0591    0.6236    2.2306 C   0  0  0  0  0  0  0  0  0  0  0  0
   -0.7727    0.5875    3.4717 O   0  0  0  0  0  0  0  0  0  0  0  0
   -1.1555    1.8204    4.0825 C   0  0  2  0  0  0  0  0  0  0  0  0
   -1.1058    3.0707    3.1356 C   0  0  0  0  0  0  0  0  0  0  0  0
   -1.1817    4.4672    3.7676 C   0  0  0  0  0  0  0  0  0  0  0  0
    0.0156    4.8276    4.7035 C   0  0  1  0  0  0  0  0  0  0  0  0
   -0.0756    6.2208    4.9352 O   0  0  0  0  0  0  0  0  0  0  0  0
    0.0512    4.0544    6.0989 C   0  0  1  0  0  0  0  0  0  0  0  0
   -0.9979    3.1766    6.1644 N   0  0  0  0  0  0  0  0  0  0  0  0
   -0.4740    1.9811    5.4732 C   0  0  2  0  0  0  0  0  0  0  0  0
    1.1120    2.1669    5.4053 C   0  0  1  0  0  0  0  0  0  0  0  0
    1.6918    2.4885    4.1659 O   0  0  0  0  0  0  0  0  0  0  0  0
    1.3244    3.1987    6.5767 C   0  0  1  0  0  0  0  0  0  0  0  0
    2.5191    4.2373    6.7264 C   0  0  1  0  0  0  0  0  0  0  0  0
    3.4552    4.4176    5.4938 C   0  0  0  0  0  0  0  0  0  0  0  0
    4.2265    3.2445    5.2652 O   0  0  0  0  0  0  0  0  0  0  0  0
    2.1206    5.6030    7.3347 C   0  0  0  0  0  0  0  0  0  0  0  0
    1.0208    5.7291    8.3711 N   0  0  1  0  0  0  0  0  0  0  0  0
    0.1715    6.9299    8.1526 C   0  0  0  0  0  0  0  0  0  0  0  0
    0.4519    4.5769    9.2019 C   0  0  2  0  0  0  0  0  0  0  0  0
    1.5869    4.0018   10.2204 C   0  0  1  0  0  0  0  0  0  0  0  0
    0.7792    3.4743   11.3559 C   0  0  1  0  0  0  0  0  0  0  0  0
   -0.1868    4.2843   12.0069 O   0  0  0  0  0  0  0  0  0  0  0  0
    0.2353    2.3084   10.5878 C   0  0  1  0  0  0  0  0  0  0  0  0
   -0.9898    2.3013    9.7874 C   0  0  2  0  0  0  0  0  0  0  0  0
   -0.7286    0.9276    9.3300 O   0  0  0  0  0  0  0  0  0  0  0  0
    0.5646    0.5722    9.5108 C   0  0  0  0  0  0  0  0  0  0  0  0
    1.1006   -0.5330    9.6192 O   0  0  0  0  0  0  0  0  0  0  0  0
    1.2292    1.9267    9.4169 C   0  0  2  0  0  0  0  0  0  0  0  0
    2.4048    2.6425    9.9648 C   0  0  2  0  0  0  0  0  0  0  0  0
    3.5447    2.0052    9.1025 C   0  0  0  0  0  0  0  0  0  0  0  0
    2.8659    1.4763    7.8129 C   0  0  0  0  0  0  0  0  0  0  0  0
    1.4079    2.0472    7.7881 C   0  0  2  0  0  0  0  0  0  0  0  0
   -0.9555    3.6347    8.8990 C   0  0  1  0  0  0  0  0  0  0  0  0
   -2.2424    4.3241    9.5190 C   0  0  1  0  0  0  0  0  0  0  0  0
   -2.4026    5.6821    9.1059 O   0  0  0  0  0  0  0  0  0  0  0  0
   -2.1751    6.6490   10.1314 C   0  0  0  0  0  0  0  0  0  0  0  0
   -3.4738    3.5080    8.9880 C   0  0  0  0  0  0  0  0  0  0  0  0
   -3.0225    2.7318    7.7361 C   0  0  0  0  0  0  0  0  0  0  0  0
   -1.6554    3.3358    7.4825 C   0  0  2  0  0  0  0  0  0  0  0  0
    0.1903   -0.3528    1.8933 H   0  0  0  0  0  0  0  0  0  0  0  0
    0.8697    1.1996    2.3213 H   0  0  0  0  0  0  0  0  0  0  0  0
   -0.6729    1.1125    1.4587 H   0  0  0  0  0  0  0  0  0  0  0  0
   -2.2116    1.6841    4.3254 H   0  0  0  0  0  0  0  0  0  0  0  0
   -0.1996    3.0550    2.5299 H   0  0  0  0  0  0  0  0  0  0  0  0
   -1.9385    2.9735    2.4338 H   0  0  0  0  0  0  0  0  0  0  0  0
   -1.1600    5.1584    2.9195 H   0  0  0  0  0  0  0  0  0  0  0  0
   -2.1470    4.6075    4.2615 H   0  0  0  0  0  0  0  0  0  0  0  0
    0.9262    4.7578    4.1374 H   0  0  0  0  0  0  0  0  0  0  0  0
    0.2084    6.6670    4.1517 H   0  0  0  0  0  0  0  0  0  0  0  0
   -0.2015    4.8579    6.7436 H   0  0  0  0  0  0  0  0  0  0  0  0
   -0.7352    1.1043    6.0533 H   0  0  0  0  0  0  0  0  0  0  0  0
    1.5876    1.2017    5.5540 H   0  0  0  0  0  0  0  0  0  0  0  0
    1.2047    3.1848    3.7717 H   0  0  0  0  0  0  0  0  0  0  0  0
    3.2458    3.8729    7.4397 H   0  0  0  0  0  0  0  0  0  0  0  0
    2.9495    4.6988    4.5688 H   0  0  0  0  0  0  0  0  0  0  0  0
    4.1683    5.2233    5.6848 H   0  0  0  0  0  0  0  0  0  0  0  0
    3.6299    2.6041    4.9041 H   0  0  0  0  0  0  0  0  0  0  0  0
    3.0101    6.0443    7.7712 H   0  0  0  0  0  0  0  0  0  0  0  0
    1.8896    6.2534    6.4911 H   0  0  0  0  0  0  0  0  0  0  0  0
   -0.7134    6.7111    7.5035 H   0  0  0  0  0  0  0  0  0  0  0  0
    0.7275    7.6810    7.5581 H   0  0  0  0  0  0  0  0  0  0  0  0
   -0.1297    7.3783    9.0362 H   0  0  0  0  0  0  0  0  0  0  0  0
    0.0129    5.2502    9.8501 H   0  0  0  0  0  0  0  0  0  0  0  0
    2.2253    4.8191   10.6043 H   0  0  0  0  0  0  0  0  0  0  0  0
    1.4549    3.1259   12.1512 H   0  0  0  0  0  0  0  0  0  0  0  0
   -0.6829    3.7461   12.6079 H   0  0  0  0  0  0  0  0  0  0  0  0
    0.1130    1.6209   11.4412 H   0  0  0  0  0  0  0  0  0  0  0  0
   -1.8428    2.2530   10.4762 H   0  0  0  0  0  0  0  0  0  0  0  0
    2.7755    3.4420    9.3408 H   0  0  0  0  0  0  0  0  0  0  0  0
    4.4273    2.6361    8.9083 H   0  0  0  0  0  0  0  0  0  0  0  0
    3.9376    1.1422    9.6496 H   0  0  0  0  0  0  0  0  0  0  0  0
    3.4565    1.6945    6.9372 H   0  0  0  0  0  0  0  0  0  0  0  0
    2.8429    0.3882    7.8536 H   0  0  0  0  0  0  0  0  0  0  0  0
    0.8192    1.2323    7.4023 H   0  0  0  0  0  0  0  0  0  0  0  0
   -2.2715    4.2879   10.6087 H   0  0  0  0  0  0  0  0  0  0  0  0
   -2.3093    7.6463    9.6384 H   0  0  0  0  0  0  0  0  0  0  0  0
   -1.1684    6.6234   10.4810 H   0  0  0  0  0  0  0  0  0  0  0  0
   -2.8860    6.6046   10.8963 H   0  0  0  0  0  0  0  0  0  0  0  0
   -3.8467    2.8061    9.7352 H   0  0  0  0  0  0  0  0  0  0  0  0
   -4.3052    4.1757    8.7879 H   0  0  0  0  0  0  0  0  0  0  0  0
   -2.9636    1.6597    7.9067 H   0  0  0  0  0  0  0  0  0  0  0  0
   -3.7007    2.8976    6.8882 H   0  0  0  0  0  0  0  0  0  0  0  0
   -2.0259    4.3367    7.2656 H   0  0  0  0  0  0  0  0  0  0  0  0
    1.5887    6.1349    9.1203 H   0  0  0  0  0  0  0  0  0  0  0  0
  1  2  1  0
  1 41  1  0
  1 42  1  0
  1 43  1  0
  2  3  1  0
  3 10  1  0
  3  4  1  0
  3 44  1  1
  4  5  1  0
  4 45  1  0
  4 46  1  0
  5  6  1  0
  5 47  1  0
  5 48  1  0
  6  7  1  0
  6  8  1  0
  6 49  1  6
  7 50  1  0
  8 13  1  0
  8  9  1  0
  8 51  1  1
  9 40  1  0
  9 10  1  0
 10 11  1  0
 10 52  1  1
 11 12  1  0
 11 13  1  0
 11 53  1  1
 12 54  1  0
 13 33  1  0
 13 14  1  6
 14 15  1  0
 14 17  1  0
 14 55  1  1
 15 16  1  0
 15 56  1  0
 15 57  1  0
 16 58  1  0
 17 18  1  0
 17 59  1  0
 17 60  1  0
 18 19  1  0
 18 20  1  0
 18 85  1  1
 19 61  1  0
 19 62  1  0
 19 63  1  0
 20 34  1  0
 20 21  1  0
 20 64  1  1
 21 30  1  0
 21 22  1  0
 21 65  1  1
 22 23  1  0
 22 24  1  0
 22 66  1  1
 23 67  1  0
 24 29  1  0
 24 25  1  0
 24 68  1  1
 25 26  1  0
 25 34  1  0
 25 69  1  1
 26 27  1  0
 27 28  2  0
 29 27  1  6
 29 33  1  0
 29 30  1  0
 30 31  1  0
 30 70  1  1
 31 32  1  0
 31 71  1  0
 31 72  1  0
 32 33  1  0
 32 73  1  0
 32 74  1  0
 33 75  1  6
 34 40  1  0
 34 35  1  1
 35 36  1  0
 35 38  1  0
 35 76  1  1
 36 37  1  0
 37 77  1  0
 37 78  1  0
 37 79  1  0
 38 39  1  0
 38 80  1  0
 38 81  1  0
 39 40  1  0
 39 82  1  0
 39 83  1  0
 40 84  1  6
M  CHG  1  18   1
M  END
>  <i_m_ct_stereo_status>  (37) 
1

>  <s_m_source_file>  (37) 
/var/tmp/pbs.5076255.sched01/tmpokz5906q/0mijyat0o.sdf

>  <i_m_source_file_index>  (37) 
15

>  <i_lp_mmshare_version>  (37) 
48012

>  <i_f3d_flags>  (37) 
0

>  <s_epik_input>  (37) 
W09IXVtDQEBIXTFbQ0gyXVtDSDJdW0NAQEhdKE9bQ0gzXSlbQ0BASF0oW0NASF0yW09IXSlOKFtDQEhdMVtDQEBdMjM0KVtDQEBIXTVbQ0BdNihbQ0BASF0oT1tDSDNdKVtDSDJdW0NIMl01KVtDQEhdKE4oW0NIM10pW0NIMl1bQ0BASF0zW0NIMl1bT0hdKVtDQEBIXTdbQ0BASF04W0NAXTkoW0NAQEhdNFtDSDJdW0NIMl04KVtDQEBIXShbQ0BASF03W09IXSlbQ0BASF02T0M5PU8=

>  <s_epik_cmdline>  (37) 
J2VwaWtfcHl0aG9uJywgJy1waHQnLCAnMi4wJywgJy1waCcsICc3LjAnLCAnLXRuJywgJzgnLCAnLW1hJywgJzIwMCcsICctaW1hZScsICc8aW5maWxlLm1hZT4nLCAnLW9tYWUnLCAnPG91dGZpbGUubWFlPic=

>  <r_epik_Ionization_Penalty>  (37) 
0.112842

>  <r_epik_Ionization_Penalty_Charging>  (37) 
0.0218763

>  <r_epik_Ionization_Penalty_Neutral>  (37) 
0.0909655

>  <r_epik_State_Penalty>  (37) 
0.177933

>  <r_epik_Charging_Adjusted_Penalty>  (37) 
0.19981

>  <i_epik_Tot_Q>  (37) 
1

>  <i_epik_Tot_abs_Q>  (37) 
1

>  <s_epik_Chemistry_Notes>  (37) 
This compound has an ester and may undergo hydrolysis at high or low pH.

>  <s_lp_Force_Field>  (37) 
OPLS3e

>  <r_lp_Energy>  (37) 
423.37

>  <b_lp_Chiralities_Consistent>  (37) 
1

>  <s_lp_Variant>  (37) 
9:0-1

>  <s_i_glide_gridfile>  (37) 
pfpi4k_grid

>  <i_i_glide_lignum>  (37) 
15

>  <i_i_glide_rotatable_bonds>  (37) 
7

>  <r_i_docking_score>  (37) 
-2.66363

>  <r_i_glide_ligand_efficiency>  (37) 
-0.0665907

>  <r_i_glide_ligand_efficiency_sa>  (37) 
-0.227737

>  <r_i_glide_ligand_efficiency_ln>  (37) 
-0.568073

>  <r_i_glide_gscore>  (37) 
-2.66363

>  <r_i_glide_lipo>  (37) 
-0.273808

>  <r_i_glide_hbond>  (37) 
-0.0076738

>  <r_i_glide_metal>  (37) 
-0

>  <r_i_glide_rewards>  (37) 
-0.5

>  <r_i_glide_evdw>  (37) 
-21.2124

>  <r_i_glide_ecoul>  (37) 
-5.81856

>  <r_i_glide_erotb>  (37) 
0.0659203

>  <r_i_glide_esite>  (37) 
-0.0146607

>  <r_i_glide_emodel>  (37) 
-28.2304

>  <r_i_glide_energy>  (37) 
-27.031

>  <r_i_glide_einternal>  (37) 
13.8138

>  <r_i_glide_intrahb_reward>  (37) 
-0.5

>  <i_i_glide_confnum>  (37) 
2

>  <i_i_glide_posenum>  (37) 
1

>  <r_i_glide_eff_state_penalty>  (37) 
0

>  <ligand_id>  (37) 
9

>  <original_smiles>  (37) 
COC1CCC(O)C2N3C1C(O)C21C(CO)CN(C)C2C4C(O)C5C(OC(=O)C56C4CCC61)C21C(OC)CCC31

>  <smiles>  (37) 
[H]OC([H])([H])C1([H])C23C([H])(O[H])C4([H])N(C2([H])C([H])(O[H])C([H])([H])C([H])([H])C4([H])OC([H])([H])[H])C2([H])C([H])([H])C([H])([H])C([H])(OC([H])([H])[H])C24C2([H])OC(=O)C56C2([H])C([H])(O[H])C([H])(C5([H])C([H])([H])C([H])([H])C63[H])C4([H])[N+]([H])(C([H])([H])[H])C1([H])[H]

$$$$
9:0:1
     RDKit          3D

 85 93  0  0  1  0  0  0  0  0999 V2000
   -4.2539    3.2472    2.5377 C   0  0  0  0  0  0  0  0  0  0  0  0
   -3.1688    2.5693    3.1675 O   0  0  0  0  0  0  0  0  0  0  0  0
   -2.2929    3.3348    3.9762 C   0  0  2  0  0  0  0  0  0  0  0  0
   -1.7297    4.5233    3.1586 C   0  0  0  0  0  0  0  0  0  0  0  0
   -0.4362    5.1934    3.6725 C   0  0  0  0  0  0  0  0  0  0  0  0
    0.8311    4.2962    3.6595 C   0  0  1  0  0  0  0  0  0  0  0  0
    1.9093    5.1720    3.9186 O   0  0  0  0  0  0  0  0  0  0  0  0
    0.8595    3.1087    4.7037 C   0  0  1  0  0  0  0  0  0  0  0  0
   -0.3094    3.1037    5.4279 N   0  0  0  0  0  0  0  0  0  0  0  0
   -1.2423    2.3614    4.5699 C   0  0  2  0  0  0  0  0  0  0  0  0
   -0.3344    1.6065    3.4948 C   0  0  1  0  0  0  0  0  0  0  0  0
   -0.3603    2.0425    2.1487 O   0  0  0  0  0  0  0  0  0  0  0  0
    1.0555    1.5858    4.2497 C   0  0  1  0  0  0  0  0  0  0  0  0
    2.4787    1.5033    3.6044 C   0  0  1  0  0  0  0  0  0  0  0  0
    2.5624    1.6832    2.0666 C   0  0  0  0  0  0  0  0  0  0  0  0
    2.0187    0.5907    1.3586 O   0  0  0  0  0  0  0  0  0  0  0  0
    3.5627    2.3519    4.3583 C   0  0  0  0  0  0  0  0  0  0  0  0
    3.5671    2.5446    5.8591 N   0  0  1  0  0  0  0  0  0  0  0  0
    3.8869    3.9387    6.2721 C   0  0  0  0  0  0  0  0  0  0  0  0
    2.7486    1.7131    6.8143 C   0  0  2  0  0  0  0  0  0  0  0  0
    3.3499    0.2014    6.8728 C   0  0  1  0  0  0  0  0  0  0  0  0
    3.0208   -0.2330    8.2612 C   0  0  1  0  0  0  0  0  0  0  0  0
    3.4642    0.5065    9.3890 O   0  0  0  0  0  0  0  0  0  0  0  0
    1.5346   -0.3034    8.0050 C   0  0  1  0  0  0  0  0  0  0  0  0
    0.5597    0.7724    8.1936 C   0  0  2  0  0  0  0  0  0  0  0  0
   -0.5206   -0.0583    7.6678 O   0  0  0  0  0  0  0  0  0  0  0  0
   -0.0390   -1.1309    6.9503 C   0  0  0  0  0  0  0  0  0  0  0  0
   -0.5536   -2.2190    6.6756 O   0  0  0  0  0  0  0  0  0  0  0  0
    1.2667   -0.5531    6.4713 C   0  0  2  0  0  0  0  0  0  0  0  0
    2.6233   -1.0340    6.1377 C   0  0  2  0  0  0  0  0  0  0  0  0
    2.3603   -1.6975    4.7603 C   0  0  0  0  0  0  0  0  0  0  0  0
    1.0724   -1.0356    4.2009 C   0  0  0  0  0  0  0  0  0  0  0  0
    0.7552    0.1954    5.1146 C   0  0  2  0  0  0  0  0  0  0  0  0
    1.1981    2.0552    7.4905 C   0  0  1  0  0  0  0  0  0  0  0  0
    1.3143    2.9614    8.7849 C   0  0  1  0  0  0  0  0  0  0  0  0
    2.0956    4.1241    8.5346 O   0  0  0  0  0  0  0  0  0  0  0  0
    2.5372    4.8250    9.6914 C   0  0  0  0  0  0  0  0  0  0  0  0
   -0.1476    3.3862    9.1674 C   0  0  0  0  0  0  0  0  0  0  0  0
   -1.0226    3.2058    7.9121 C   0  0  0  0  0  0  0  0  0  0  0  0
    0.0348    2.9522    6.8519 C   0  0  2  0  0  0  0  0  0  0  0  0
   -4.8715    2.5331    1.9946 H   0  0  0  0  0  0  0  0  0  0  0  0
   -3.9283    3.9833    1.8014 H   0  0  0  0  0  0  0  0  0  0  0  0
   -4.9014    3.7242    3.2727 H   0  0  0  0  0  0  0  0  0  0  0  0
   -2.8510    3.7404    4.8231 H   0  0  0  0  0  0  0  0  0  0  0  0
   -1.5963    4.2251    2.1243 H   0  0  0  0  0  0  0  0  0  0  0  0
   -2.5106    5.2783    3.0860 H   0  0  0  0  0  0  0  0  0  0  0  0
   -0.2582    6.0457    3.0155 H   0  0  0  0  0  0  0  0  0  0  0  0
   -0.5886    5.6150    4.6694 H   0  0  0  0  0  0  0  0  0  0  0  0
    1.0287    3.9825    2.6500 H   0  0  0  0  0  0  0  0  0  0  0  0
    1.8728    5.8643    3.2748 H   0  0  0  0  0  0  0  0  0  0  0  0
    1.6068    3.4714    5.3619 H   0  0  0  0  0  0  0  0  0  0  0  0
   -1.7848    1.6388    5.1784 H   0  0  0  0  0  0  0  0  0  0  0  0
   -0.7435    0.6173    3.2959 H   0  0  0  0  0  0  0  0  0  0  0  0
   -0.1893    2.9749    2.0691 H   0  0  0  0  0  0  0  0  0  0  0  0
    2.8935    0.5166    3.6752 H   0  0  0  0  0  0  0  0  0  0  0  0
    2.1633    2.6174    1.6811 H   0  0  0  0  0  0  0  0  0  0  0  0
    3.6008    1.6654    1.7688 H   0  0  0  0  0  0  0  0  0  0  0  0
    1.1012    0.7653    1.1784 H   0  0  0  0  0  0  0  0  0  0  0  0
    4.5257    1.8961    4.1186 H   0  0  0  0  0  0  0  0  0  0  0  0
    3.6074    3.3254    3.8735 H   0  0  0  0  0  0  0  0  0  0  0  0
    3.0269    4.6081    6.2643 H   0  0  0  0  0  0  0  0  0  0  0  0
    4.6301    4.3708    5.6039 H   0  0  0  0  0  0  0  0  0  0  0  0
    4.3245    3.9773    7.2712 H   0  0  0  0  0  0  0  0  0  0  0  0
    3.2979    2.0994    7.6635 H   0  0  0  0  0  0  0  0  0  0  0  0
    4.4401    0.1870    6.7615 H   0  0  0  0  0  0  0  0  0  0  0  0
    3.4148   -1.2380    8.4120 H   0  0  0  0  0  0  0  0  0  0  0  0
    3.0753    1.3627    9.3955 H   0  0  0  0  0  0  0  0  0  0  0  0
    1.3196   -1.1115    8.7317 H   0  0  0  0  0  0  0  0  0  0  0  0
    0.3910    0.9015    9.2614 H   0  0  0  0  0  0  0  0  0  0  0  0
    3.1506   -0.4130    5.4329 H   0  0  0  0  0  0  0  0  0  0  0  0
    3.1963   -1.7018    4.0490 H   0  0  0  0  0  0  0  0  0  0  0  0
    2.1357   -2.7538    4.9253 H   0  0  0  0  0  0  0  0  0  0  0  0
    1.1563   -0.8137    3.1437 H   0  0  0  0  0  0  0  0  0  0  0  0
    0.2591   -1.7622    4.2474 H   0  0  0  0  0  0  0  0  0  0  0  0
   -0.3281    0.1851    5.1911 H   0  0  0  0  0  0  0  0  0  0  0  0
    1.7732    2.4350    9.6208 H   0  0  0  0  0  0  0  0  0  0  0  0
    3.0614    5.7235    9.3715 H   0  0  0  0  0  0  0  0  0  0  0  0
    3.2255    4.2206   10.2767 H   0  0  0  0  0  0  0  0  0  0  0  0
    1.7172    5.1416   10.3385 H   0  0  0  0  0  0  0  0  0  0  0  0
   -0.5457    2.7662    9.9736 H   0  0  0  0  0  0  0  0  0  0  0  0
   -0.2001    4.4139    9.5237 H   0  0  0  0  0  0  0  0  0  0  0  0
   -1.7185    2.3695    8.0101 H   0  0  0  0  0  0  0  0  0  0  0  0
   -1.6008    4.1062    7.6949 H   0  0  0  0  0  0  0  0  0  0  0  0
    0.5026    3.9352    6.9270 H   0  0  0  0  0  0  0  0  0  0  0  0
    4.4664    2.1269    6.0497 H   0  0  0  0  0  0  0  0  0  0  0  0
  1  2  1  0
  1 41  1  0
  1 42  1  0
  1 43  1  0
  2  3  1  0
  3 10  1  0
  3  4  1  0
  3 44  1  1
  4  5  1  0
  4 45  1  0
  4 46  1  0
  5  6  1  0
  5 47  1  0
  5 48  1  0
  6  7  1  0
  6  8  1  0
  6 49  1  6
  7 50  1  0
  8 13  1  0
  8  9  1  0
  8 51  1  1
  9 40  1  0
  9 10  1  0
 10 11  1  0
 10 52  1  1
 11 12  1  0
 11 13  1  0
 11 53  1  6
 12 54  1  0
 13 33  1  0
 13 14  1  6
 14 15  1  0
 14 17  1  0
 14 55  1  6
 15 16  1  0
 15 56  1  0
 15 57  1  0
 16 58  1  0
 17 18  1  0
 17 59  1  0
 17 60  1  0
 18 19  1  0
 18 20  1  0
 18 85  1  1
 19 61  1  0
 19 62  1  0
 19 63  1  0
 20 34  1  0
 20 21  1  0
 20 64  1  1
 21 30  1  0
 21 22  1  0
 21 65  1  1
 22 23  1  0
 22 24  1  0
 22 66  1  1
 23 67  1  0
 24 29  1  0
 24 25  1  0
 24 68  1  1
 25 26  1  0
 25 34  1  0
 25 69  1  1
 26 27  1  0
 27 28  2  0
 29 27  1  1
 29 33  1  0
 29 30  1  0
 30 31  1  0
 30 70  1  1
 31 32  1  0
 31 71  1  0
 31 72  1  0
 32 33  1  0
 32 73  1  0
 32 74  1  0
 33 75  1  1
 34 40  1  0
 34 35  1  1
 35 36  1  0
 35 38  1  0
 35 76  1  1
 36 37  1  0
 37 77  1  0
 37 78  1  0
 37 79  1  0
 38 39  1  0
 38 80  1  0
 38 81  1  0
 39 40  1  0
 39 82  1  0
 39 83  1  0
 40 84  1  1
M  CHG  1  18   1
M  END
>  <i_m_ct_stereo_status>  (38) 
1

>  <s_m_source_file>  (38) 
/var/tmp/pbs.5076255.sched01/tmpokz5906q/0mijyat0o.sdf

>  <i_m_source_file_index>  (38) 
15

>  <i_lp_mmshare_version>  (38) 
48012

>  <i_f3d_flags>  (38) 
0

>  <s_epik_input>  (38) 
W09IXVtDQEBIXTFbQ0gyXVtDSDJdW0NAQEhdKE9bQ0gzXSlbQ0BASF0oW0NASF0yW09IXSlOKFtDQEhdMVtDQEBdMjM0KVtDQEBIXTVbQ0BdNihbQ0BASF0oT1tDSDNdKVtDSDJdW0NIMl01KVtDQEhdKE4oW0NIM10pW0NIMl1bQ0BASF0zW0NIMl1bT0hdKVtDQEBIXTdbQ0BASF04W0NAXTkoW0NAQEhdNFtDSDJdW0NIMl04KVtDQEBIXShbQ0BASF03W09IXSlbQ0BASF02T0M5PU8=

>  <s_epik_cmdline>  (38) 
J2VwaWtfcHl0aG9uJywgJy1waHQnLCAnMi4wJywgJy1waCcsICc3LjAnLCAnLXRuJywgJzgnLCAnLW1hJywgJzIwMCcsICctaW1hZScsICc8aW5maWxlLm1hZT4nLCAnLW9tYWUnLCAnPG91dGZpbGUubWFlPic=

>  <r_epik_Ionization_Penalty>  (38) 
0.112842

>  <r_epik_Ionization_Penalty_Charging>  (38) 
0.0218763

>  <r_epik_Ionization_Penalty_Neutral>  (38) 
0.0909655

>  <r_epik_State_Penalty>  (38) 
0.177933

>  <r_epik_Charging_Adjusted_Penalty>  (38) 
0.19981

>  <i_epik_Tot_Q>  (38) 
1

>  <i_epik_Tot_abs_Q>  (38) 
1

>  <s_epik_Chemistry_Notes>  (38) 
This compound has an ester and may undergo hydrolysis at high or low pH.

>  <s_lp_Force_Field>  (38) 
OPLS3e

>  <r_lp_Energy>  (38) 
423.37

>  <b_lp_Chiralities_Consistent>  (38) 
1

>  <s_lp_Variant>  (38) 
9:0-1

>  <s_i_glide_gridfile>  (38) 
pfpi4k_grid

>  <i_i_glide_lignum>  (38) 
15

>  <i_i_glide_rotatable_bonds>  (38) 
7

>  <r_i_docking_score>  (38) 
-2.08796

>  <r_i_glide_ligand_efficiency>  (38) 
-0.052199

>  <r_i_glide_ligand_efficiency_sa>  (38) 
-0.178518

>  <r_i_glide_ligand_efficiency_ln>  (38) 
-0.4453

>  <r_i_glide_gscore>  (38) 
-2.08796

>  <r_i_glide_lipo>  (38) 
-0.122279

>  <r_i_glide_hbond>  (38) 
-0.041039

>  <r_i_glide_metal>  (38) 
-0

>  <r_i_glide_rewards>  (38) 
-0.5

>  <r_i_glide_evdw>  (38) 
-15.0186

>  <r_i_glide_ecoul>  (38) 
-4.61874

>  <r_i_glide_erotb>  (38) 
0.0659203

>  <r_i_glide_esite>  (38) 
-0.0468186

>  <r_i_glide_emodel>  (38) 
-27.063

>  <r_i_glide_energy>  (38) 
-19.6374

>  <r_i_glide_einternal>  (38) 
2.25573

>  <r_i_glide_intrahb_reward>  (38) 
-0.5

>  <i_i_glide_confnum>  (38) 
5

>  <i_i_glide_posenum>  (38) 
12

>  <r_i_glide_eff_state_penalty>  (38) 
0

>  <ligand_id>  (38) 
9

>  <original_smiles>  (38) 
COC1CCC(O)C2N3C1C(O)C21C(CO)CN(C)C2C4C(O)C5C(OC(=O)C56C4CCC61)C21C(OC)CCC31

>  <smiles>  (38) 
[H]OC([H])([H])C1([H])C23C([H])(O[H])C4([H])N(C2([H])C([H])(O[H])C([H])([H])C([H])([H])C4([H])OC([H])([H])[H])C2([H])C([H])([H])C([H])([H])C([H])(OC([H])([H])[H])C24C2([H])OC(=O)C56C2([H])C([H])(O[H])C([H])(C5([H])C([H])([H])C([H])([H])C63[H])C4([H])[N+]([H])(C([H])([H])[H])C1([H])[H]

$$$$
9:0:2
     RDKit          3D

 85 93  0  0  1  0  0  0  0  0999 V2000
   -3.1776    2.9504    3.9684 C   0  0  0  0  0  0  0  0  0  0  0  0
   -2.1854    1.9480    4.1048 O   0  0  0  0  0  0  0  0  0  0  0  0
   -0.9842    2.3716    4.7463 C   0  0  2  0  0  0  0  0  0  0  0  0
   -0.2369    3.4401    3.8970 C   0  0  0  0  0  0  0  0  0  0  0  0
    1.2441    3.6959    4.2497 C   0  0  0  0  0  0  0  0  0  0  0  0
    2.1774    2.4902    3.9893 C   0  0  1  0  0  0  0  0  0  0  0  0
    3.4917    2.9717    4.1058 O   0  0  0  0  0  0  0  0  0  0  0  0
    2.0388    1.2376    4.9401 C   0  0  1  0  0  0  0  0  0  0  0  0
    1.0307    1.4831    5.8529 N   0  0  0  0  0  0  0  0  0  0  0  0
   -0.1811    1.0999    5.1191 C   0  0  2  0  0  0  0  0  0  0  0  0
    0.3141    0.2197    3.8807 C   0  0  1  0  0  0  0  0  0  0  0  0
    0.2270    0.7614    2.5818 O   0  0  0  0  0  0  0  0  0  0  0  0
    1.7341   -0.2313    4.4054 C   0  0  1  0  0  0  0  0  0  0  0  0
    2.9917   -0.6317    3.5418 C   0  0  1  0  0  0  0  0  0  0  0  0
    2.9315   -0.4749    1.9907 C   0  0  0  0  0  0  0  0  0  0  0  0
    3.1343    0.8340    1.5042 O   0  0  0  0  0  0  0  0  0  0  0  0
    4.3746   -0.2256    4.1544 C   0  0  0  0  0  0  0  0  0  0  0  0
    4.6182   -0.1654    5.6541 N   0  0  1  0  0  0  0  0  0  0  0  0
    5.3834    1.0568    6.0635 C   0  0  0  0  0  0  0  0  0  0  0  0
    3.7251   -0.8074    6.6935 C   0  0  2  0  0  0  0  0  0  0  0  0
    3.8653   -2.4220    6.5995 C   0  0  1  0  0  0  0  0  0  0  0  0
    3.6231   -2.8545    8.0041 C   0  0  1  0  0  0  0  0  0  0  0  0
    4.4098   -2.3640    9.0750 O   0  0  0  0  0  0  0  0  0  0  0  0
    2.1537   -2.4893    7.9801 C   0  0  1  0  0  0  0  0  0  0  0  0
    1.5705   -1.2071    8.3677 C   0  0  2  0  0  0  0  0  0  0  0  0
    0.2232   -1.6664    8.0081 O   0  0  0  0  0  0  0  0  0  0  0  0
    0.2639   -2.7569    7.1699 C   0  0  0  0  0  0  0  0  0  0  0  0
   -0.5818   -3.6128    6.9282 O   0  0  0  0  0  0  0  0  0  0  0  0
    1.6038   -2.5239    6.5026 C   0  0  2  0  0  0  0  0  0  0  0  0
    2.7144   -3.3385    5.9402 C   0  0  2  0  0  0  0  0  0  0  0  0
    2.0931   -3.7865    4.5915 C   0  0  0  0  0  0  0  0  0  0  0  0
    0.9980   -2.7409    4.2480 C   0  0  0  0  0  0  0  0  0  0  0  0
    1.1707   -1.5557    5.2553 C   0  0  2  0  0  0  0  0  0  0  0  0
    2.4500   -0.0983    7.6135 C   0  0  1  0  0  0  0  0  0  0  0  0
    3.0050    0.6343    8.9065 C   0  0  1  0  0  0  0  0  0  0  0  0
    4.0480    1.5477    8.5782 O   0  0  0  0  0  0  0  0  0  0  0  0
    4.8271    2.0078    9.6748 C   0  0  0  0  0  0  0  0  0  0  0  0
    1.7974    1.4211    9.5280 C   0  0  0  0  0  0  0  0  0  0  0  0
    0.7427    1.5937    8.4198 C   0  0  0  0  0  0  0  0  0  0  0  0
    1.5201    1.1321    7.1971 C   0  0  2  0  0  0  0  0  0  0  0  0
   -4.0688    2.5431    3.4931 H   0  0  0  0  0  0  0  0  0  0  0  0
   -2.8485    3.7751    3.3366 H   0  0  0  0  0  0  0  0  0  0  0  0
   -3.4617    3.3419    4.9463 H   0  0  0  0  0  0  0  0  0  0  0  0
   -1.2536    2.8431    5.6902 H   0  0  0  0  0  0  0  0  0  0  0  0
   -0.3238    3.2081    2.8382 H   0  0  0  0  0  0  0  0  0  0  0  0
   -0.7602    4.3868    3.9988 H   0  0  0  0  0  0  0  0  0  0  0  0
    1.5750    4.5038    3.5981 H   0  0  0  0  0  0  0  0  0  0  0  0
    1.3443    4.0831    5.2723 H   0  0  0  0  0  0  0  0  0  0  0  0
    2.0421    2.2816    2.9346 H   0  0  0  0  0  0  0  0  0  0  0  0
    3.9144    3.0063    3.2541 H   0  0  0  0  0  0  0  0  0  0  0  0
    2.9426    1.3077    5.4963 H   0  0  0  0  0  0  0  0  0  0  0  0
   -0.8200    0.5065    5.7735 H   0  0  0  0  0  0  0  0  0  0  0  0
   -0.3855   -0.6003    3.7104 H   0  0  0  0  0  0  0  0  0  0  0  0
    0.7375    1.5562    2.5328 H   0  0  0  0  0  0  0  0  0  0  0  0
    3.0732   -1.7045    3.5368 H   0  0  0  0  0  0  0  0  0  0  0  0
    3.7020   -1.0951    1.5298 H   0  0  0  0  0  0  0  0  0  0  0  0
    1.9837   -0.8573    1.5930 H   0  0  0  0  0  0  0  0  0  0  0  0
    3.8427    1.2541    1.9642 H   0  0  0  0  0  0  0  0  0  0  0  0
    5.1221   -0.9055    3.7505 H   0  0  0  0  0  0  0  0  0  0  0  0
    4.6388    0.7350    3.7314 H   0  0  0  0  0  0  0  0  0  0  0  0
    4.7588    1.9330    6.2109 H   0  0  0  0  0  0  0  0  0  0  0  0
    6.1200    1.3110    5.3066 H   0  0  0  0  0  0  0  0  0  0  0  0
    5.9467    0.8893    6.9818 H   0  0  0  0  0  0  0  0  0  0  0  0
    4.4801   -0.6558    7.4547 H   0  0  0  0  0  0  0  0  0  0  0  0
    4.8786   -2.7343    6.3208 H   0  0  0  0  0  0  0  0  0  0  0  0
    3.7334   -3.9403    8.0569 H   0  0  0  0  0  0  0  0  0  0  0  0
    4.3120   -1.4267    9.1537 H   0  0  0  0  0  0  0  0  0  0  0  0
    1.8245   -3.2597    8.6998 H   0  0  0  0  0  0  0  0  0  0  0  0
    1.6035   -1.1204    9.4581 H   0  0  0  0  0  0  0  0  0  0  0  0
    3.2946   -2.8314    5.1853 H   0  0  0  0  0  0  0  0  0  0  0  0
    2.7907   -3.9785    3.7643 H   0  0  0  0  0  0  0  0  0  0  0  0
    1.5941   -4.7468    4.7520 H   0  0  0  0  0  0  0  0  0  0  0  0
    1.0192   -2.4533    3.1981 H   0  0  0  0  0  0  0  0  0  0  0  0
    0.0218   -3.2109    4.3834 H   0  0  0  0  0  0  0  0  0  0  0  0
    0.1532   -1.2802    5.5052 H   0  0  0  0  0  0  0  0  0  0  0  0
    3.4073   -0.0638    9.6412 H   0  0  0  0  0  0  0  0  0  0  0  0
    5.5412    2.7459    9.3112 H   0  0  0  0  0  0  0  0  0  0  0  0
    5.3900    1.1912   10.1258 H   0  0  0  0  0  0  0  0  0  0  0  0
    4.2345    2.4895   10.4523 H   0  0  0  0  0  0  0  0  0  0  0  0
    1.3570    0.8795   10.3650 H   0  0  0  0  0  0  0  0  0  0  0  0
    2.0956    2.3932    9.9193 H   0  0  0  0  0  0  0  0  0  0  0  0
   -0.1454    0.9838    8.5955 H   0  0  0  0  0  0  0  0  0  0  0  0
    0.4301    2.6346    8.3235 H   0  0  0  0  0  0  0  0  0  0  0  0
    2.2557    1.9367    7.2336 H   0  0  0  0  0  0  0  0  0  0  0  0
    5.3773   -0.8250    5.6948 H   0  0  0  0  0  0  0  0  0  0  0  0
  1  2  1  0
  1 41  1  0
  1 42  1  0
  1 43  1  0
  2  3  1  0
  3 10  1  0
  3  4  1  0
  3 44  1  1
  4  5  1  0
  4 45  1  0
  4 46  1  0
  5  6  1  0
  5 47  1  0
  5 48  1  0
  6  7  1  0
  6  8  1  0
  6 49  1  6
  7 50  1  0
  8 13  1  0
  8  9  1  0
  8 51  1  1
  9 40  1  0
  9 10  1  0
 10 11  1  0
 10 52  1  1
 11 12  1  0
 11 13  1  0
 11 53  1  6
 12 54  1  0
 13 33  1  0
 13 14  1  6
 14 15  1  0
 14 17  1  0
 14 55  1  6
 15 16  1  0
 15 56  1  0
 15 57  1  0
 16 58  1  0
 17 18  1  0
 17 59  1  0
 17 60  1  0
 18 19  1  0
 18 20  1  0
 18 85  1  6
 19 61  1  0
 19 62  1  0
 19 63  1  0
 20 34  1  0
 20 21  1  0
 20 64  1  1
 21 30  1  0
 21 22  1  0
 21 65  1  6
 22 23  1  0
 22 24  1  0
 22 66  1  6
 23 67  1  0
 24 29  1  0
 24 25  1  0
 24 68  1  1
 25 26  1  0
 25 34  1  0
 25 69  1  1
 26 27  1  0
 27 28  2  0
 29 27  1  1
 29 33  1  0
 29 30  1  0
 30 31  1  0
 30 70  1  1
 31 32  1  0
 31 71  1  0
 31 72  1  0
 32 33  1  0
 32 73  1  0
 32 74  1  0
 33 75  1  1
 34 40  1  0
 34 35  1  1
 35 36  1  0
 35 38  1  0
 35 76  1  1
 36 37  1  0
 37 77  1  0
 37 78  1  0
 37 79  1  0
 38 39  1  0
 38 80  1  0
 38 81  1  0
 39 40  1  0
 39 82  1  0
 39 83  1  0
 40 84  1  1
M  CHG  1  18   1
M  END
>  <i_m_ct_stereo_status>  (39) 
1

>  <s_m_source_file>  (39) 
/var/tmp/pbs.5076255.sched01/tmpokz5906q/0mijyat0o.sdf

>  <i_m_source_file_index>  (39) 
15

>  <i_lp_mmshare_version>  (39) 
48012

>  <i_f3d_flags>  (39) 
0

>  <s_epik_input>  (39) 
W09IXVtDQEBIXTFbQ0gyXVtDSDJdW0NAQEhdKE9bQ0gzXSlbQ0BASF0oW0NASF0yW09IXSlOKFtDQEhdMVtDQEBdMjM0KVtDQEBIXTVbQ0BdNihbQ0BASF0oT1tDSDNdKVtDSDJdW0NIMl01KVtDQEhdKE4oW0NIM10pW0NIMl1bQ0BASF0zW0NIMl1bT0hdKVtDQEBIXTdbQ0BASF04W0NAXTkoW0NAQEhdNFtDSDJdW0NIMl04KVtDQEBIXShbQ0BASF03W09IXSlbQ0BASF02T0M5PU8=

>  <s_epik_cmdline>  (39) 
J2VwaWtfcHl0aG9uJywgJy1waHQnLCAnMi4wJywgJy1waCcsICc3LjAnLCAnLXRuJywgJzgnLCAnLW1hJywgJzIwMCcsICctaW1hZScsICc8aW5maWxlLm1hZT4nLCAnLW9tYWUnLCAnPG91dGZpbGUubWFlPic=

>  <r_epik_Ionization_Penalty>  (39) 
0.112842

>  <r_epik_Ionization_Penalty_Charging>  (39) 
0.0218763

>  <r_epik_Ionization_Penalty_Neutral>  (39) 
0.0909655

>  <r_epik_State_Penalty>  (39) 
0.177933

>  <r_epik_Charging_Adjusted_Penalty>  (39) 
0.19981

>  <i_epik_Tot_Q>  (39) 
1

>  <i_epik_Tot_abs_Q>  (39) 
1

>  <s_epik_Chemistry_Notes>  (39) 
This compound has an ester and may undergo hydrolysis at high or low pH.

>  <s_lp_Force_Field>  (39) 
OPLS3e

>  <r_lp_Energy>  (39) 
423.37

>  <b_lp_Chiralities_Consistent>  (39) 
1

>  <s_lp_Variant>  (39) 
9:0-1

>  <s_i_glide_gridfile>  (39) 
pfpi4k_grid

>  <i_i_glide_lignum>  (39) 
15

>  <i_i_glide_rotatable_bonds>  (39) 
7

>  <r_i_docking_score>  (39) 
-1.73266

>  <r_i_glide_ligand_efficiency>  (39) 
-0.0433165

>  <r_i_glide_ligand_efficiency_sa>  (39) 
-0.14814

>  <r_i_glide_ligand_efficiency_ln>  (39) 
-0.369526

>  <r_i_glide_gscore>  (39) 
-1.73266

>  <r_i_glide_lipo>  (39) 
-0.0791216

>  <r_i_glide_hbond>  (39) 
-0.0382155

>  <r_i_glide_metal>  (39) 
-0

>  <r_i_glide_rewards>  (39) 
0

>  <r_i_glide_evdw>  (39) 
-18.0453

>  <r_i_glide_ecoul>  (39) 
-5.00826

>  <r_i_glide_erotb>  (39) 
0.0659203

>  <r_i_glide_esite>  (39) 
-0.0277421

>  <r_i_glide_emodel>  (39) 
-24.9194

>  <r_i_glide_energy>  (39) 
-23.0535

>  <r_i_glide_einternal>  (39) 
3.00427

>  <r_i_glide_intrahb_reward>  (39) 
-0

>  <i_i_glide_confnum>  (39) 
3

>  <i_i_glide_posenum>  (39) 
10

>  <r_i_glide_eff_state_penalty>  (39) 
0

>  <ligand_id>  (39) 
9

>  <original_smiles>  (39) 
COC1CCC(O)C2N3C1C(O)C21C(CO)CN(C)C2C4C(O)C5C(OC(=O)C56C4CCC61)C21C(OC)CCC31

>  <smiles>  (39) 
[H]OC([H])([H])C1([H])C23C([H])(O[H])C4([H])N(C2([H])C([H])(O[H])C([H])([H])C([H])([H])C4([H])OC([H])([H])[H])C2([H])C([H])([H])C([H])([H])C([H])(OC([H])([H])[H])C24C2([H])OC(=O)C56C2([H])C([H])(O[H])C([H])(C5([H])C([H])([H])C([H])([H])C63[H])C4([H])[N+]([H])(C([H])([H])[H])C1([H])[H]

$$$$
9:1:0
     RDKit          3D

 85 93  0  0  1  0  0  0  0  0999 V2000
    4.8671   -1.1797   -1.3667 C   0  0  0  0  0  0  0  0  0  0  0  0
    5.0790   -1.9313   -0.1778 O   0  0  0  0  0  0  0  0  0  0  0  0
    3.8942   -2.4500    0.4293 C   0  0  2  0  0  0  0  0  0  0  0  0
    3.1694   -1.2848    1.1519 C   0  0  0  0  0  0  0  0  0  0  0  0
    2.0986   -1.7183    2.1628 C   0  0  0  0  0  0  0  0  0  0  0  0
    2.6785   -2.3709    3.4312 C   0  0  1  0  0  0  0  0  0  0  0  0
    1.6451   -2.3033    4.3874 O   0  0  0  0  0  0  0  0  0  0  0  0
    3.1430   -3.8784    3.2822 C   0  0  1  0  0  0  0  0  0  0  0  0
    3.1754   -4.3238    1.9893 N   0  0  2  0  0  0  0  0  0  0  0  0
    4.3025   -3.6843    1.2887 C   0  0  2  0  0  0  0  0  0  0  0  0
    5.2478   -3.4278    2.5748 C   0  0  1  0  0  0  0  0  0  0  0  0
    5.5128   -2.0744    2.9157 O   0  0  0  0  0  0  0  0  0  0  0  0
    4.5686   -4.3808    3.6798 C   0  0  1  0  0  0  0  0  0  0  0  0
    4.5920   -4.3022    5.2598 C   0  0  1  0  0  0  0  0  0  0  0  0
    4.8464   -2.9109    5.8874 C   0  0  0  0  0  0  0  0  0  0  0  0
    5.1184   -3.0344    7.2687 O   0  0  0  0  0  0  0  0  0  0  0  0
    3.4156   -5.0774    5.9958 C   0  0  0  0  0  0  0  0  0  0  0  0
    2.3126   -5.7962    5.2982 N   0  0  0  0  0  0  0  0  0  0  0  0
    1.2852   -6.1432    6.2840 C   0  0  0  0  0  0  0  0  0  0  0  0
    2.5433   -6.8712    4.2905 C   0  0  2  0  0  0  0  0  0  0  0  0
    3.6225   -7.9175    4.9020 C   0  0  1  0  0  0  0  0  0  0  0  0
    3.3720   -9.1271    4.0905 C   0  0  1  0  0  0  0  0  0  0  0  0
    2.0673   -9.6693    3.9924 O   0  0  0  0  0  0  0  0  0  0  0  0
    3.9096   -8.5114    2.8167 C   0  0  1  0  0  0  0  0  0  0  0  0
    3.1093   -7.8264    1.8006 C   0  0  2  0  0  0  0  0  0  0  0  0
    4.3030   -7.5926    0.9902 O   0  0  0  0  0  0  0  0  0  0  0  0
    5.4648   -7.7521    1.7102 C   0  0  0  0  0  0  0  0  0  0  0  0
    6.6260   -7.9891    1.3555 O   0  0  0  0  0  0  0  0  0  0  0  0
    4.9966   -7.3922    3.0978 C   0  0  2  0  0  0  0  0  0  0  0  0
    5.1679   -7.7887    4.5121 C   0  0  2  0  0  0  0  0  0  0  0  0
    6.4899   -7.1164    4.9378 C   0  0  0  0  0  0  0  0  0  0  0  0
    6.6663   -5.9659    3.9030 C   0  0  0  0  0  0  0  0  0  0  0  0
    5.2957   -5.7939    3.1582 C   0  0  2  0  0  0  0  0  0  0  0  0
    2.2892   -6.7202    2.6083 C   0  0  1  0  0  0  0  0  0  0  0  0
    0.8214   -7.1873    2.2668 C   0  0  1  0  0  0  0  0  0  0  0  0
   -0.1592   -6.4907    3.0463 O   0  0  0  0  0  0  0  0  0  0  0  0
   -1.3047   -7.2637    3.3921 C   0  0  0  0  0  0  0  0  0  0  0  0
    0.5892   -6.8160    0.7671 C   0  0  0  0  0  0  0  0  0  0  0  0
    1.6725   -5.7679    0.3537 C   0  0  0  0  0  0  0  0  0  0  0  0
    2.1528   -5.3837    1.7305 C   0  0  2  0  0  0  0  0  0  0  0  0
    5.8254   -0.8643   -1.7705 H   0  0  0  0  0  0  0  0  0  0  0  0
    4.2825   -0.2724   -1.2085 H   0  0  0  0  0  0  0  0  0  0  0  0
    4.3875   -1.7887   -2.1327 H   0  0  0  0  0  0  0  0  0  0  0  0
    3.2291   -2.8261   -0.3506 H   0  0  0  0  0  0  0  0  0  0  0  0
    3.8689   -0.6018    1.6356 H   0  0  0  0  0  0  0  0  0  0  0  0
    2.6980   -0.6579    0.3937 H   0  0  0  0  0  0  0  0  0  0  0  0
    1.5532   -0.8153    2.4466 H   0  0  0  0  0  0  0  0  0  0  0  0
    1.3740   -2.3648    1.6786 H   0  0  0  0  0  0  0  0  0  0  0  0
    3.4175   -1.6967    3.8355 H   0  0  0  0  0  0  0  0  0  0  0  0
    1.4557   -1.4004    4.5595 H   0  0  0  0  0  0  0  0  0  0  0  0
    2.2892   -4.3082    3.7249 H   0  0  0  0  0  0  0  0  0  0  0  0
    4.8035   -4.3755    0.6167 H   0  0  0  0  0  0  0  0  0  0  0  0
    6.2771   -3.7029    2.3485 H   0  0  0  0  0  0  0  0  0  0  0  0
    4.7330   -1.6107    3.1006 H   0  0  0  0  0  0  0  0  0  0  0  0
    5.4624   -4.8120    5.6485 H   0  0  0  0  0  0  0  0  0  0  0  0
    5.7311   -2.4511    5.4510 H   0  0  0  0  0  0  0  0  0  0  0  0
    4.0085   -2.2298    5.7862 H   0  0  0  0  0  0  0  0  0  0  0  0
    5.2324   -2.1813    7.6361 H   0  0  0  0  0  0  0  0  0  0  0  0
    3.8480   -5.7495    6.7402 H   0  0  0  0  0  0  0  0  0  0  0  0
    2.9077   -4.3148    6.5890 H   0  0  0  0  0  0  0  0  0  0  0  0
    0.3573   -6.4728    5.8102 H   0  0  0  0  0  0  0  0  0  0  0  0
    1.0267   -5.2741    6.8938 H   0  0  0  0  0  0  0  0  0  0  0  0
    1.6300   -6.9350    6.9533 H   0  0  0  0  0  0  0  0  0  0  0  0
    1.6339   -7.4337    4.4918 H   0  0  0  0  0  0  0  0  0  0  0  0
    3.4575   -8.1383    5.9627 H   0  0  0  0  0  0  0  0  0  0  0  0
    4.0201   -9.9317    4.4449 H   0  0  0  0  0  0  0  0  0  0  0  0
    2.1194  -10.5253    3.6151 H   0  0  0  0  0  0  0  0  0  0  0  0
    4.2524   -9.4718    2.3876 H   0  0  0  0  0  0  0  0  0  0  0  0
    2.4738   -8.5537    1.2871 H   0  0  0  0  0  0  0  0  0  0  0  0
    4.8693   -6.9488    5.1224 H   0  0  0  0  0  0  0  0  0  0  0  0
    6.5542   -6.7876    5.9838 H   0  0  0  0  0  0  0  0  0  0  0  0
    7.3149   -7.8229    4.8054 H   0  0  0  0  0  0  0  0  0  0  0  0
    7.0648   -5.0582    4.3512 H   0  0  0  0  0  0  0  0  0  0  0  0
    7.4398   -6.2798    3.1964 H   0  0  0  0  0  0  0  0  0  0  0  0
    5.6430   -5.5681    2.1586 H   0  0  0  0  0  0  0  0  0  0  0  0
    0.6850   -8.2672    2.3947 H   0  0  0  0  0  0  0  0  0  0  0  0
   -1.9670   -6.6518    4.0001 H   0  0  0  0  0  0  0  0  0  0  0  0
   -1.0442   -8.1338    3.9948 H   0  0  0  0  0  0  0  0  0  0  0  0
   -1.8673   -7.5913    2.5171 H   0  0  0  0  0  0  0  0  0  0  0  0
    0.6864   -7.7287    0.1886 H   0  0  0  0  0  0  0  0  0  0  0  0
   -0.4425   -6.4794    0.6108 H   0  0  0  0  0  0  0  0  0  0  0  0
    2.4709   -6.1730   -0.2646 H   0  0  0  0  0  0  0  0  0  0  0  0
    1.2497   -4.9739   -0.2567 H   0  0  0  0  0  0  0  0  0  0  0  0
    1.2694   -4.8656    2.0984 H   0  0  0  0  0  0  0  0  0  0  0  0
    3.8040   -5.0873    2.1935 H   0  0  0  0  0  0  0  0  0  0  0  0
  1  2  1  0
  1 41  1  0
  1 42  1  0
  1 43  1  0
  2  3  1  0
  3 10  1  0
  3  4  1  0
  3 44  1  6
  4  5  1  0
  4 45  1  0
  4 46  1  0
  5  6  1  0
  5 47  1  0
  5 48  1  0
  6  7  1  0
  6  8  1  0
  6 49  1  1
  7 50  1  0
  8 13  1  0
  8  9  1  0
  8 51  1  1
  9 40  1  0
  9 10  1  0
  9 85  1  6
 10 11  1  0
 10 52  1  6
 11 12  1  0
 11 13  1  0
 11 53  1  6
 12 54  1  0
 13 33  1  0
 13 14  1  1
 14 15  1  0
 14 17  1  0
 14 55  1  1
 15 16  1  0
 15 56  1  0
 15 57  1  0
 16 58  1  0
 17 18  1  0
 17 59  1  0
 17 60  1  0
 18 19  1  0
 18 20  1  0
 19 61  1  0
 19 62  1  0
 19 63  1  0
 20 34  1  0
 20 21  1  0
 20 64  1  1
 21 30  1  0
 21 22  1  0
 21 65  1  1
 22 23  1  0
 22 24  1  0
 22 66  1  1
 23 67  1  0
 24 29  1  0
 24 25  1  0
 24 68  1  6
 25 26  1  0
 25 34  1  0
 25 69  1  6
 26 27  1  0
 27 28  2  0
 29 27  1  6
 29 33  1  0
 29 30  1  0
 30 31  1  0
 30 70  1  6
 31 32  1  0
 31 71  1  0
 31 72  1  0
 32 33  1  0
 32 73  1  0
 32 74  1  0
 33 75  1  6
 34 40  1  0
 34 35  1  1
 35 36  1  0
 35 38  1  0
 35 76  1  6
 36 37  1  0
 37 77  1  0
 37 78  1  0
 37 79  1  0
 38 39  1  0
 38 80  1  0
 38 81  1  0
 39 40  1  0
 39 82  1  0
 39 83  1  0
 40 84  1  1
M  CHG  1   9   1
M  END
>  <i_m_ct_stereo_status>  (40) 
1

>  <s_m_source_file>  (40) 
/var/tmp/pbs.5076255.sched01/tmpokz5906q/0mijyat0o.sdf

>  <i_m_source_file_index>  (40) 
16

>  <i_lp_mmshare_version>  (40) 
48012

>  <i_f3d_flags>  (40) 
0

>  <s_epik_input>  (40) 
W09IXVtDQEBIXTFbQ0gyXVtDSDJdW0NAQEhdKE9bQ0gzXSlbQ0BASF0oW0NASF0yW09IXSlOKFtDQEhdMVtDQEBdMjM0KVtDQEBIXTVbQ0BdNihbQ0BASF0oT1tDSDNdKVtDSDJdW0NIMl01KVtDQEhdKE4oW0NIM10pW0NIMl1bQ0BASF0zW0NIMl1bT0hdKVtDQEBIXTdbQ0BASF04W0NAXTkoW0NAQEhdNFtDSDJdW0NIMl04KVtDQEBIXShbQ0BASF03W09IXSlbQ0BASF02T0M5PU8=

>  <s_epik_cmdline>  (40) 
J2VwaWtfcHl0aG9uJywgJy1waHQnLCAnMi4wJywgJy1waCcsICc3LjAnLCAnLXRuJywgJzgnLCAnLW1hJywgJzIwMCcsICctaW1hZScsICc8aW5maWxlLm1hZT4nLCAnLW9tYWUnLCAnPG91dGZpbGUubWFlPic=

>  <r_epik_Ionization_Penalty>  (40) 
0.365361

>  <r_epik_Ionization_Penalty_Charging>  (40) 
0.153445

>  <r_epik_Ionization_Penalty_Neutral>  (40) 
0.211916

>  <r_epik_State_Penalty>  (40) 
1.13065

>  <r_epik_Charging_Adjusted_Penalty>  (40) 
1.28409

>  <i_epik_Tot_Q>  (40) 
1

>  <i_epik_Tot_abs_Q>  (40) 
1

>  <s_epik_Chemistry_Notes>  (40) 
This compound has an ester and may undergo hydrolysis at high or low pH.

>  <s_lp_Force_Field>  (40) 
OPLS3e

>  <r_lp_Energy>  (40) 
434.286

>  <b_lp_Chiralities_Consistent>  (40) 
1

>  <s_lp_Variant>  (40) 
9:0-2

>  <s_i_glide_gridfile>  (40) 
pfpi4k_grid

>  <i_i_glide_lignum>  (40) 
16

>  <i_i_glide_rotatable_bonds>  (40) 
7

>  <r_i_docking_score>  (40) 
-2.08084

>  <r_i_glide_ligand_efficiency>  (40) 
-0.052021

>  <r_i_glide_ligand_efficiency_sa>  (40) 
-0.177909

>  <r_i_glide_ligand_efficiency_ln>  (40) 
-0.443782

>  <r_i_glide_gscore>  (40) 
-2.08084

>  <r_i_glide_lipo>  (40) 
-0.0730533

>  <r_i_glide_hbond>  (40) 
-0.150417

>  <r_i_glide_metal>  (40) 
-0

>  <r_i_glide_rewards>  (40) 
-0.0926673

>  <r_i_glide_evdw>  (40) 
-23.4657

>  <r_i_glide_ecoul>  (40) 
-4.38228

>  <r_i_glide_erotb>  (40) 
0.0659203

>  <r_i_glide_esite>  (40) 
0

>  <r_i_glide_emodel>  (40) 
-30.616

>  <r_i_glide_energy>  (40) 
-27.8479

>  <r_i_glide_einternal>  (40) 
1.77965

>  <r_i_glide_intrahb_reward>  (40) 
-0

>  <i_i_glide_confnum>  (40) 
1

>  <i_i_glide_posenum>  (40) 
28

>  <r_i_glide_eff_state_penalty>  (40) 
0

>  <ligand_id>  (40) 
9

>  <original_smiles>  (40) 
COC1CCC(O)C2N3C1C(O)C21C(CO)CN(C)C2C4C(O)C5C(OC(=O)C56C4CCC61)C21C(OC)CCC31

>  <smiles>  (40) 
[H]OC([H])([H])C1([H])C([H])([H])N(C([H])([H])[H])C2([H])C3([H])C([H])(O[H])C4([H])C5([H])OC(=O)C46C3([H])C([H])([H])C([H])([H])C6([H])C13C([H])(O[H])C1([H])C([H])(OC([H])([H])[H])C([H])([H])C([H])([H])C([H])(O[H])C3([H])[N+]1([H])C1([H])C([H])([H])C([H])([H])C([H])(OC([H])([H])[H])C521

$$$$
9:1:1
     RDKit          3D

 85 93  0  0  1  0  0  0  0  0999 V2000
    5.9103   -2.0126    1.4778 C   0  0  0  0  0  0  0  0  0  0  0  0
    5.7874   -3.2077    2.2350 O   0  0  0  0  0  0  0  0  0  0  0  0
    4.4502   -3.6233    2.5128 C   0  0  2  0  0  0  0  0  0  0  0  0
    3.7723   -2.6119    3.4695 C   0  0  0  0  0  0  0  0  0  0  0  0
    2.4797   -3.1024    4.1324 C   0  0  0  0  0  0  0  0  0  0  0  0
    2.7391   -4.1799    5.1949 C   0  0  1  0  0  0  0  0  0  0  0  0
    1.5681   -4.1780    5.9957 O   0  0  0  0  0  0  0  0  0  0  0  0
    3.0051   -5.6411    4.6520 C   0  0  1  0  0  0  0  0  0  0  0  0
    3.1833   -5.7176    3.2650 N   0  0  2  0  0  0  0  0  0  0  0  0
    4.5203   -5.1150    2.9711 C   0  0  2  0  0  0  0  0  0  0  0  0
    5.2658   -5.4674    4.3632 C   0  0  1  0  0  0  0  0  0  0  0  0
    5.6483   -4.3686    5.1640 O   0  0  0  0  0  0  0  0  0  0  0  0
    4.2447   -6.5283    5.0218 C   0  0  1  0  0  0  0  0  0  0  0  0
    4.0149   -6.9177    6.5491 C   0  0  1  0  0  0  0  0  0  0  0  0
    4.4457   -5.9298    7.6727 C   0  0  0  0  0  0  0  0  0  0  0  0
    3.4629   -4.9587    7.9816 O   0  0  0  0  0  0  0  0  0  0  0  0
    2.6415   -7.6461    6.8863 C   0  0  0  0  0  0  0  0  0  0  0  0
    1.5530   -7.8564    5.8882 N   0  0  0  0  0  0  0  0  0  0  0  0
    0.3458   -8.2630    6.6221 C   0  0  0  0  0  0  0  0  0  0  0  0
    1.7650   -8.6093    4.6154 C   0  0  2  0  0  0  0  0  0  0  0  0
    2.5589   -9.9964    4.9447 C   0  0  1  0  0  0  0  0  0  0  0  0
    2.2297  -10.8319    3.7669 C   0  0  1  0  0  0  0  0  0  0  0  0
    0.8717  -11.0214    3.4125 O   0  0  0  0  0  0  0  0  0  0  0  0
    3.0645  -10.0118    2.8021 C   0  0  1  0  0  0  0  0  0  0  0  0
    2.5732   -8.8963    1.9985 C   0  0  2  0  0  0  0  0  0  0  0  0
    3.9119   -8.6844    1.4288 O   0  0  0  0  0  0  0  0  0  0  0  0
    4.8995   -9.2906    2.1754 C   0  0  0  0  0  0  0  0  0  0  0  0
    6.0592   -9.5978    1.8688 O   0  0  0  0  0  0  0  0  0  0  0  0
    4.2577   -9.2698    3.5475 C   0  0  2  0  0  0  0  0  0  0  0  0
    4.1476  -10.0899    4.7724 C   0  0  2  0  0  0  0  0  0  0  0  0
    5.4709   -9.8583    5.5330 C   0  0  0  0  0  0  0  0  0  0  0  0
    5.9969   -8.5151    4.9443 C   0  0  0  0  0  0  0  0  0  0  0  0
    4.8096   -7.8534    4.1565 C   0  0  2  0  0  0  0  0  0  0  0  0
    1.7947   -7.9433    3.0208 C   0  0  1  0  0  0  0  0  0  0  0  0
    0.3616   -7.9744    2.3800 C   0  0  1  0  0  0  0  0  0  0  0  0
   -0.6333   -7.3838    3.2211 O   0  0  0  0  0  0  0  0  0  0  0  0
   -1.6103   -8.2803    3.7239 C   0  0  0  0  0  0  0  0  0  0  0  0
    0.4534   -7.1196    1.0714 C   0  0  0  0  0  0  0  0  0  0  0  0
    1.7261   -6.2397    1.1345 C   0  0  0  0  0  0  0  0  0  0  0  0
    2.0483   -6.4079    2.6055 C   0  0  2  0  0  0  0  0  0  0  0  0
    6.9650   -1.8213    1.2921 H   0  0  0  0  0  0  0  0  0  0  0  0
    5.5179   -1.1361    1.9931 H   0  0  0  0  0  0  0  0  0  0  0  0
    5.4155   -2.1075    0.5127 H   0  0  0  0  0  0  0  0  0  0  0  0
    3.8708   -3.6162    1.5892 H   0  0  0  0  0  0  0  0  0  0  0  0
    4.4678   -2.2814    4.2414 H   0  0  0  0  0  0  0  0  0  0  0  0
    3.5301   -1.7029    2.9166 H   0  0  0  0  0  0  0  0  0  0  0  0
    2.0700   -2.2469    4.6668 H   0  0  0  0  0  0  0  0  0  0  0  0
    1.7171   -3.3922    3.4002 H   0  0  0  0  0  0  0  0  0  0  0  0
    3.5183   -3.8112    5.8524 H   0  0  0  0  0  0  0  0  0  0  0  0
    1.6976   -4.7561    6.7352 H   0  0  0  0  0  0  0  0  0  0  0  0
    2.0393   -6.0295    4.8119 H   0  0  0  0  0  0  0  0  0  0  0  0
    4.9845   -5.6754    2.1603 H   0  0  0  0  0  0  0  0  0  0  0  0
    6.2609   -5.8856    4.1750 H   0  0  0  0  0  0  0  0  0  0  0  0
    6.1670   -4.6806    5.8816 H   0  0  0  0  0  0  0  0  0  0  0  0
    4.7137   -7.6991    6.8003 H   0  0  0  0  0  0  0  0  0  0  0  0
    4.6218   -6.5078    8.5935 H   0  0  0  0  0  0  0  0  0  0  0  0
    5.4052   -5.4606    7.4413 H   0  0  0  0  0  0  0  0  0  0  0  0
    3.3660   -4.3356    7.2562 H   0  0  0  0  0  0  0  0  0  0  0  0
    2.8503   -8.5966    7.3856 H   0  0  0  0  0  0  0  0  0  0  0  0
    2.1796   -7.0227    7.6524 H   0  0  0  0  0  0  0  0  0  0  0  0
   -0.5402   -8.1984    5.9921 H   0  0  0  0  0  0  0  0  0  0  0  0
    0.2449   -7.6230    7.5018 H   0  0  0  0  0  0  0  0  0  0  0  0
    0.4527   -9.2791    7.0015 H   0  0  0  0  0  0  0  0  0  0  0  0
    0.7633   -8.9959    4.5572 H   0  0  0  0  0  0  0  0  0  0  0  0
    2.1963  -10.4859    5.8552 H   0  0  0  0  0  0  0  0  0  0  0  0
    2.6591  -11.8297    3.8907 H   0  0  0  0  0  0  0  0  0  0  0  0
    0.4348  -11.4841    4.1082 H   0  0  0  0  0  0  0  0  0  0  0  0
    3.2925  -10.8602    2.1239 H   0  0  0  0  0  0  0  0  0  0  0  0
    1.9175   -9.2834    1.2157 H   0  0  0  0  0  0  0  0  0  0  0  0
    3.8871   -9.4342    5.5861 H   0  0  0  0  0  0  0  0  0  0  0  0
    5.3998   -9.8780    6.6314 H   0  0  0  0  0  0  0  0  0  0  0  0
    6.1726  -10.6545    5.2659 H   0  0  0  0  0  0  0  0  0  0  0  0
    6.4697   -7.8742    5.6889 H   0  0  0  0  0  0  0  0  0  0  0  0
    6.8004   -8.7647    4.2495 H   0  0  0  0  0  0  0  0  0  0  0  0
    5.3395   -7.4168    3.3183 H   0  0  0  0  0  0  0  0  0  0  0  0
    0.0518   -8.9820    2.1061 H   0  0  0  0  0  0  0  0  0  0  0  0
   -2.1879   -7.6899    4.4237 H   0  0  0  0  0  0  0  0  0  0  0  0
   -1.1456   -9.0628    4.3172 H   0  0  0  0  0  0  0  0  0  0  0  0
   -2.2958   -8.6439    2.9442 H   0  0  0  0  0  0  0  0  0  0  0  0
    0.5363   -7.7693    0.2045 H   0  0  0  0  0  0  0  0  0  0  0  0
   -0.4648   -6.5443    0.9502 H   0  0  0  0  0  0  0  0  0  0  0  0
    2.5251   -6.6341    0.5059 H   0  0  0  0  0  0  0  0  0  0  0  0
    1.5466   -5.2021    0.8483 H   0  0  0  0  0  0  0  0  0  0  0  0
    1.2162   -5.8308    3.0114 H   0  0  0  0  0  0  0  0  0  0  0  0
    3.6387   -6.6190    3.3020 H   0  0  0  0  0  0  0  0  0  0  0  0
  1  2  1  0
  1 41  1  0
  1 42  1  0
  1 43  1  0
  2  3  1  0
  3 10  1  0
  3  4  1  0
  3 44  1  6
  4  5  1  0
  4 45  1  0
  4 46  1  0
  5  6  1  0
  5 47  1  0
  5 48  1  0
  6  7  1  0
  6  8  1  0
  6 49  1  1
  7 50  1  0
  8 13  1  0
  8  9  1  0
  8 51  1  6
  9 40  1  0
  9 10  1  0
  9 85  1  6
 10 11  1  0
 10 52  1  6
 11 12  1  0
 11 13  1  0
 11 53  1  6
 12 54  1  0
 13 33  1  0
 13 14  1  1
 14 15  1  0
 14 17  1  0
 14 55  1  1
 15 16  1  0
 15 56  1  0
 15 57  1  0
 16 58  1  0
 17 18  1  0
 17 59  1  0
 17 60  1  0
 18 19  1  0
 18 20  1  0
 19 61  1  0
 19 62  1  0
 19 63  1  0
 20 34  1  0
 20 21  1  0
 20 64  1  6
 21 30  1  0
 21 22  1  0
 21 65  1  1
 22 23  1  0
 22 24  1  0
 22 66  1  1
 23 67  1  0
 24 29  1  0
 24 25  1  0
 24 68  1  6
 25 26  1  0
 25 34  1  0
 25 69  1  6
 26 27  1  0
 27 28  2  0
 29 27  1  6
 29 33  1  0
 29 30  1  0
 30 31  1  0
 30 70  1  6
 31 32  1  0
 31 71  1  0
 31 72  1  0
 32 33  1  0
 32 73  1  0
 32 74  1  0
 33 75  1  6
 34 40  1  0
 34 35  1  6
 35 36  1  0
 35 38  1  0
 35 76  1  6
 36 37  1  0
 37 77  1  0
 37 78  1  0
 37 79  1  0
 38 39  1  0
 38 80  1  0
 38 81  1  0
 39 40  1  0
 39 82  1  0
 39 83  1  0
 40 84  1  1
M  CHG  1   9   1
M  END
>  <i_m_ct_stereo_status>  (41) 
1

>  <s_m_source_file>  (41) 
/var/tmp/pbs.5076255.sched01/tmpokz5906q/0mijyat0o.sdf

>  <i_m_source_file_index>  (41) 
16

>  <i_lp_mmshare_version>  (41) 
48012

>  <i_f3d_flags>  (41) 
0

>  <s_epik_input>  (41) 
W09IXVtDQEBIXTFbQ0gyXVtDSDJdW0NAQEhdKE9bQ0gzXSlbQ0BASF0oW0NASF0yW09IXSlOKFtDQEhdMVtDQEBdMjM0KVtDQEBIXTVbQ0BdNihbQ0BASF0oT1tDSDNdKVtDSDJdW0NIMl01KVtDQEhdKE4oW0NIM10pW0NIMl1bQ0BASF0zW0NIMl1bT0hdKVtDQEBIXTdbQ0BASF04W0NAXTkoW0NAQEhdNFtDSDJdW0NIMl04KVtDQEBIXShbQ0BASF03W09IXSlbQ0BASF02T0M5PU8=

>  <s_epik_cmdline>  (41) 
J2VwaWtfcHl0aG9uJywgJy1waHQnLCAnMi4wJywgJy1waCcsICc3LjAnLCAnLXRuJywgJzgnLCAnLW1hJywgJzIwMCcsICctaW1hZScsICc8aW5maWxlLm1hZT4nLCAnLW9tYWUnLCAnPG91dGZpbGUubWFlPic=

>  <r_epik_Ionization_Penalty>  (41) 
0.365361

>  <r_epik_Ionization_Penalty_Charging>  (41) 
0.153445

>  <r_epik_Ionization_Penalty_Neutral>  (41) 
0.211916

>  <r_epik_State_Penalty>  (41) 
1.13065

>  <r_epik_Charging_Adjusted_Penalty>  (41) 
1.28409

>  <i_epik_Tot_Q>  (41) 
1

>  <i_epik_Tot_abs_Q>  (41) 
1

>  <s_epik_Chemistry_Notes>  (41) 
This compound has an ester and may undergo hydrolysis at high or low pH.

>  <s_lp_Force_Field>  (41) 
OPLS3e

>  <r_lp_Energy>  (41) 
434.286

>  <b_lp_Chiralities_Consistent>  (41) 
1

>  <s_lp_Variant>  (41) 
9:0-2

>  <s_i_glide_gridfile>  (41) 
pfpi4k_grid

>  <i_i_glide_lignum>  (41) 
16

>  <i_i_glide_rotatable_bonds>  (41) 
7

>  <r_i_docking_score>  (41) 
-2.03429

>  <r_i_glide_ligand_efficiency>  (41) 
-0.0508573

>  <r_i_glide_ligand_efficiency_sa>  (41) 
-0.173929

>  <r_i_glide_ligand_efficiency_ln>  (41) 
-0.433854

>  <r_i_glide_gscore>  (41) 
-2.03429

>  <r_i_glide_lipo>  (41) 
-0.1536

>  <r_i_glide_hbond>  (41) 
0

>  <r_i_glide_metal>  (41) 
-0

>  <r_i_glide_rewards>  (41) 
0

>  <r_i_glide_evdw>  (41) 
-25.4982

>  <r_i_glide_ecoul>  (41) 
-4.27843

>  <r_i_glide_erotb>  (41) 
0.0659203

>  <r_i_glide_esite>  (41) 
-0.0299348

>  <r_i_glide_emodel>  (41) 
-29.7643

>  <r_i_glide_energy>  (41) 
-29.7767

>  <r_i_glide_einternal>  (41) 
5.47375

>  <r_i_glide_intrahb_reward>  (41) 
-0

>  <i_i_glide_confnum>  (41) 
3

>  <i_i_glide_posenum>  (41) 
10

>  <r_i_glide_eff_state_penalty>  (41) 
0

>  <ligand_id>  (41) 
9

>  <original_smiles>  (41) 
COC1CCC(O)C2N3C1C(O)C21C(CO)CN(C)C2C4C(O)C5C(OC(=O)C56C4CCC61)C21C(OC)CCC31

>  <smiles>  (41) 
[H]OC([H])([H])C1([H])C([H])([H])N(C([H])([H])[H])C2([H])C3([H])C([H])(O[H])C4([H])C5([H])OC(=O)C46C3([H])C([H])([H])C([H])([H])C6([H])C13C([H])(O[H])C1([H])C([H])(OC([H])([H])[H])C([H])([H])C([H])([H])C([H])(O[H])C3([H])[N+]1([H])C1([H])C([H])([H])C([H])([H])C([H])(OC([H])([H])[H])C521

$$$$
9:1:2
     RDKit          3D

 85 93  0  0  1  0  0  0  0  0999 V2000
    4.7579   -0.8450   -0.3818 C   0  0  0  0  0  0  0  0  0  0  0  0
    4.8932   -1.8630    0.6009 O   0  0  0  0  0  0  0  0  0  0  0  0
    3.6749   -2.4487    1.0424 C   0  0  2  0  0  0  0  0  0  0  0  0
    2.8207   -1.3717    1.7501 C   0  0  0  0  0  0  0  0  0  0  0  0
    1.6749   -1.8980    2.6142 C   0  0  0  0  0  0  0  0  0  0  0  0
    2.1334   -2.6052    3.8910 C   0  0  1  0  0  0  0  0  0  0  0  0
    0.9646   -2.6340    4.6820 O   0  0  0  0  0  0  0  0  0  0  0  0
    2.6885   -4.0744    3.7295 C   0  0  1  0  0  0  0  0  0  0  0  0
    2.8738   -4.4990    2.3881 N   0  0  2  0  0  0  0  0  0  0  0  0
    4.0533   -3.7187    1.8770 C   0  0  2  0  0  0  0  0  0  0  0  0
    4.8493   -3.5196    3.2660 C   0  0  1  0  0  0  0  0  0  0  0  0
    5.0523   -2.1986    3.7200 O   0  0  0  0  0  0  0  0  0  0  0  0
    4.0889   -4.5624    4.2346 C   0  0  1  0  0  0  0  0  0  0  0  0
    3.9354   -4.5744    5.8136 C   0  0  1  0  0  0  0  0  0  0  0  0
    4.1242   -3.2376    6.5923 C   0  0  0  0  0  0  0  0  0  0  0  0
    2.9864   -2.4407    6.7222 O   0  0  0  0  0  0  0  0  0  0  0  0
    2.7531   -5.4531    6.3989 C   0  0  0  0  0  0  0  0  0  0  0  0
    1.7409   -6.1562    5.5510 N   0  0  0  0  0  0  0  0  0  0  0  0
    0.6340   -6.5932    6.4140 C   0  0  0  0  0  0  0  0  0  0  0  0
    2.1012   -7.1549    4.5105 C   0  0  2  0  0  0  0  0  0  0  0  0
    3.1645   -8.2056    5.1553 C   0  0  1  0  0  0  0  0  0  0  0  0
    3.0324   -9.3801    4.2552 C   0  0  1  0  0  0  0  0  0  0  0  0
    1.7616   -9.9595    4.0205 O   0  0  0  0  0  0  0  0  0  0  0  0
    3.6729   -8.6847    3.0728 C   0  0  1  0  0  0  0  0  0  0  0  0
    2.9470   -7.9539    2.0317 C   0  0  2  0  0  0  0  0  0  0  0  0
    4.2009   -7.6195    1.3563 O   0  0  0  0  0  0  0  0  0  0  0  0
    5.3022   -7.7957    2.1731 C   0  0  0  0  0  0  0  0  0  0  0  0
    6.4824   -7.9791    1.8914 O   0  0  0  0  0  0  0  0  0  0  0  0
    4.6690   -7.5343    3.5387 C   0  0  2  0  0  0  0  0  0  0  0  0
    4.7341   -8.0001    4.9315 C   0  0  2  0  0  0  0  0  0  0  0  0
    5.9908   -7.3203    5.5208 C   0  0  0  0  0  0  0  0  0  0  0  0
    6.2290   -6.1083    4.5753 C   0  0  0  0  0  0  0  0  0  0  0  0
    4.9191   -5.9264    3.7178 C   0  0  2  0  0  0  0  0  0  0  0  0
    1.9847   -6.9466    2.8042 C   0  0  1  0  0  0  0  0  0  0  0  0
    0.5833   -7.4169    2.2903 C   0  0  1  0  0  0  0  0  0  0  0  0
   -0.4716   -6.7835    3.0229 O   0  0  0  0  0  0  0  0  0  0  0  0
   -1.6322   -7.5898    3.1977 C   0  0  0  0  0  0  0  0  0  0  0  0
    0.4933   -6.9610    0.7935 C   0  0  0  0  0  0  0  0  0  0  0  0
    1.5581   -5.8626    0.5425 C   0  0  0  0  0  0  0  0  0  0  0  0
    1.9191   -5.5451    2.0077 C   0  0  2  0  0  0  0  0  0  0  0  0
    5.7488   -0.5097   -0.6883 H   0  0  0  0  0  0  0  0  0  0  0  0
    4.2322    0.0384   -0.0120 H   0  0  0  0  0  0  0  0  0  0  0  0
    4.2423   -1.2136   -1.2697 H   0  0  0  0  0  0  0  0  0  0  0  0
    3.1135   -2.7991    0.1793 H   0  0  0  0  0  0  0  0  0  0  0  0
    3.4339   -0.6973    2.3483 H   0  0  0  0  0  0  0  0  0  0  0  0
    2.3630   -0.7367    0.9875 H   0  0  0  0  0  0  0  0  0  0  0  0
    1.0758   -1.0277    2.8917 H   0  0  0  0  0  0  0  0  0  0  0  0
    1.0132   -2.5435    2.0439 H   0  0  0  0  0  0  0  0  0  0  0  0
    2.8009   -1.9505    4.4351 H   0  0  0  0  0  0  0  0  0  0  0  0
    0.8401   -1.7690    5.0226 H   0  0  0  0  0  0  0  0  0  0  0  0
    1.8244   -4.5825    4.0559 H   0  0  0  0  0  0  0  0  0  0  0  0
    4.6238   -4.3724    1.2142 H   0  0  0  0  0  0  0  0  0  0  0  0
    5.8957   -3.7749    3.1187 H   0  0  0  0  0  0  0  0  0  0  0  0
    4.2219   -1.7739    3.8437 H   0  0  0  0  0  0  0  0  0  0  0  0
    4.7932   -5.0873    6.2222 H   0  0  0  0  0  0  0  0  0  0  0  0
    4.4894   -3.4754    7.6063 H   0  0  0  0  0  0  0  0  0  0  0  0
    4.9387   -2.6468    6.1746 H   0  0  0  0  0  0  0  0  0  0  0  0
    3.2371   -1.6031    7.0598 H   0  0  0  0  0  0  0  0  0  0  0  0
    3.1492   -6.1629    7.1262 H   0  0  0  0  0  0  0  0  0  0  0  0
    2.1516   -4.7677    6.9971 H   0  0  0  0  0  0  0  0  0  0  0  0
   -0.2262   -6.9189    5.8263 H   0  0  0  0  0  0  0  0  0  0  0  0
    0.2892   -5.7697    7.0392 H   0  0  0  0  0  0  0  0  0  0  0  0
    0.9443   -7.4135    7.0624 H   0  0  0  0  0  0  0  0  0  0  0  0
    1.2033   -7.7637    4.5839 H   0  0  0  0  0  0  0  0  0  0  0  0
    2.9011   -8.5022    6.1821 H   0  0  0  0  0  0  0  0  0  0  0  0
    3.6707  -10.1841    4.6336 H   0  0  0  0  0  0  0  0  0  0  0  0
    1.8833  -10.7882    3.5789 H   0  0  0  0  0  0  0  0  0  0  0  0
    4.0794   -9.6182    2.6262 H   0  0  0  0  0  0  0  0  0  0  0  0
    2.3956   -8.6646    1.4147 H   0  0  0  0  0  0  0  0  0  0  0  0
    4.3446   -7.2217    5.5621 H   0  0  0  0  0  0  0  0  0  0  0  0
    5.9458   -7.0546    6.5854 H   0  0  0  0  0  0  0  0  0  0  0  0
    6.8405   -8.0020    5.4313 H   0  0  0  0  0  0  0  0  0  0  0  0
    6.5634   -5.2099    5.0959 H   0  0  0  0  0  0  0  0  0  0  0  0
    7.0672   -6.3613    3.9233 H   0  0  0  0  0  0  0  0  0  0  0  0
    5.3498   -5.6322    2.7644 H   0  0  0  0  0  0  0  0  0  0  0  0
    0.4773   -8.5005    2.3606 H   0  0  0  0  0  0  0  0  0  0  0  0
   -2.3648   -7.0284    3.7736 H   0  0  0  0  0  0  0  0  0  0  0  0
   -1.4145   -8.4980    3.7607 H   0  0  0  0  0  0  0  0  0  0  0  0
   -2.0941   -7.8681    2.2499 H   0  0  0  0  0  0  0  0  0  0  0  0
    0.6624   -7.8122    0.1388 H   0  0  0  0  0  0  0  0  0  0  0  0
   -0.5193   -6.6195    0.5797 H   0  0  0  0  0  0  0  0  0  0  0  0
    2.4268   -6.2356    0.0081 H   0  0  0  0  0  0  0  0  0  0  0  0
    1.1883   -5.0018   -0.0161 H   0  0  0  0  0  0  0  0  0  0  0  0
    0.9905   -5.0614    2.3046 H   0  0  0  0  0  0  0  0  0  0  0  0
    3.5214   -5.2358    2.6435 H   0  0  0  0  0  0  0  0  0  0  0  0
  1  2  1  0
  1 41  1  0
  1 42  1  0
  1 43  1  0
  2  3  1  0
  3 10  1  0
  3  4  1  0
  3 44  1  6
  4  5  1  0
  4 45  1  0
  4 46  1  0
  5  6  1  0
  5 47  1  0
  5 48  1  0
  6  7  1  0
  6  8  1  0
  6 49  1  1
  7 50  1  0
  8 13  1  0
  8  9  1  0
  8 51  1  1
  9 40  1  0
  9 10  1  0
  9 85  1  6
 10 11  1  0
 10 52  1  6
 11 12  1  0
 11 13  1  0
 11 53  1  6
 12 54  1  0
 13 33  1  0
 13 14  1  1
 14 15  1  0
 14 17  1  0
 14 55  1  1
 15 16  1  0
 15 56  1  0
 15 57  1  0
 16 58  1  0
 17 18  1  0
 17 59  1  0
 17 60  1  0
 18 19  1  0
 18 20  1  0
 19 61  1  0
 19 62  1  0
 19 63  1  0
 20 34  1  0
 20 21  1  0
 20 64  1  1
 21 30  1  0
 21 22  1  0
 21 65  1  1
 22 23  1  0
 22 24  1  0
 22 66  1  1
 23 67  1  0
 24 29  1  0
 24 25  1  0
 24 68  1  6
 25 26  1  0
 25 34  1  0
 25 69  1  6
 26 27  1  0
 27 28  2  0
 29 27  1  6
 29 33  1  0
 29 30  1  0
 30 31  1  0
 30 70  1  6
 31 32  1  0
 31 71  1  0
 31 72  1  0
 32 33  1  0
 32 73  1  0
 32 74  1  0
 33 75  1  6
 34 40  1  0
 34 35  1  6
 35 36  1  0
 35 38  1  0
 35 76  1  6
 36 37  1  0
 37 77  1  0
 37 78  1  0
 37 79  1  0
 38 39  1  0
 38 80  1  0
 38 81  1  0
 39 40  1  0
 39 82  1  0
 39 83  1  0
 40 84  1  1
M  CHG  1   9   1
M  END
>  <i_m_ct_stereo_status>  (42) 
1

>  <s_m_source_file>  (42) 
/var/tmp/pbs.5076255.sched01/tmpokz5906q/0mijyat0o.sdf

>  <i_m_source_file_index>  (42) 
16

>  <i_lp_mmshare_version>  (42) 
48012

>  <i_f3d_flags>  (42) 
0

>  <s_epik_input>  (42) 
W09IXVtDQEBIXTFbQ0gyXVtDSDJdW0NAQEhdKE9bQ0gzXSlbQ0BASF0oW0NASF0yW09IXSlOKFtDQEhdMVtDQEBdMjM0KVtDQEBIXTVbQ0BdNihbQ0BASF0oT1tDSDNdKVtDSDJdW0NIMl01KVtDQEhdKE4oW0NIM10pW0NIMl1bQ0BASF0zW0NIMl1bT0hdKVtDQEBIXTdbQ0BASF04W0NAXTkoW0NAQEhdNFtDSDJdW0NIMl04KVtDQEBIXShbQ0BASF03W09IXSlbQ0BASF02T0M5PU8=

>  <s_epik_cmdline>  (42) 
J2VwaWtfcHl0aG9uJywgJy1waHQnLCAnMi4wJywgJy1waCcsICc3LjAnLCAnLXRuJywgJzgnLCAnLW1hJywgJzIwMCcsICctaW1hZScsICc8aW5maWxlLm1hZT4nLCAnLW9tYWUnLCAnPG91dGZpbGUubWFlPic=

>  <r_epik_Ionization_Penalty>  (42) 
0.365361

>  <r_epik_Ionization_Penalty_Charging>  (42) 
0.153445

>  <r_epik_Ionization_Penalty_Neutral>  (42) 
0.211916

>  <r_epik_State_Penalty>  (42) 
1.13065

>  <r_epik_Charging_Adjusted_Penalty>  (42) 
1.28409

>  <i_epik_Tot_Q>  (42) 
1

>  <i_epik_Tot_abs_Q>  (42) 
1

>  <s_epik_Chemistry_Notes>  (42) 
This compound has an ester and may undergo hydrolysis at high or low pH.

>  <s_lp_Force_Field>  (42) 
OPLS3e

>  <r_lp_Energy>  (42) 
434.286

>  <b_lp_Chiralities_Consistent>  (42) 
1

>  <s_lp_Variant>  (42) 
9:0-2

>  <s_i_glide_gridfile>  (42) 
pfpi4k_grid

>  <i_i_glide_lignum>  (42) 
16

>  <i_i_glide_rotatable_bonds>  (42) 
7

>  <r_i_docking_score>  (42) 
-1.9541

>  <r_i_glide_ligand_efficiency>  (42) 
-0.0488526

>  <r_i_glide_ligand_efficiency_sa>  (42) 
-0.167074

>  <r_i_glide_ligand_efficiency_ln>  (42) 
-0.416753

>  <r_i_glide_gscore>  (42) 
-1.9541

>  <r_i_glide_lipo>  (42) 
-0.038958

>  <r_i_glide_hbond>  (42) 
-0.16

>  <r_i_glide_metal>  (42) 
-0

>  <r_i_glide_rewards>  (42) 
-0.0312651

>  <r_i_glide_evdw>  (42) 
-23.1777

>  <r_i_glide_ecoul>  (42) 
-4.18674

>  <r_i_glide_erotb>  (42) 
0.0659203

>  <r_i_glide_esite>  (42) 
-0.00290721

>  <r_i_glide_emodel>  (42) 
-28.3229

>  <r_i_glide_energy>  (42) 
-27.3644

>  <r_i_glide_einternal>  (42) 
4.49936

>  <r_i_glide_intrahb_reward>  (42) 
-0

>  <i_i_glide_confnum>  (42) 
3

>  <i_i_glide_posenum>  (42) 
18

>  <r_i_glide_eff_state_penalty>  (42) 
0

>  <ligand_id>  (42) 
9

>  <original_smiles>  (42) 
COC1CCC(O)C2N3C1C(O)C21C(CO)CN(C)C2C4C(O)C5C(OC(=O)C56C4CCC61)C21C(OC)CCC31

>  <smiles>  (42) 
[H]OC([H])([H])C1([H])C([H])([H])N(C([H])([H])[H])C2([H])C3([H])C([H])(O[H])C4([H])C5([H])OC(=O)C46C3([H])C([H])([H])C([H])([H])C6([H])C13C([H])(O[H])C1([H])C([H])(OC([H])([H])[H])C([H])([H])C([H])([H])C([H])(O[H])C3([H])[N+]1([H])C1([H])C([H])([H])C([H])([H])C([H])(OC([H])([H])[H])C521

$$$$
9:2:0
     RDKit          3D

 86 94  0  0  1  0  0  0  0  0999 V2000
   -4.2378    3.3580    2.4514 C   0  0  0  0  0  0  0  0  0  0  0  0
   -3.1286    2.5827    2.8933 O   0  0  0  0  0  0  0  0  0  0  0  0
   -2.2607    3.1467    3.8562 C   0  0  2  0  0  0  0  0  0  0  0  0
   -1.6259    4.3898    3.2146 C   0  0  0  0  0  0  0  0  0  0  0  0
   -0.3333    4.9092    3.8423 C   0  0  0  0  0  0  0  0  0  0  0  0
    0.8482    3.9514    3.6159 C   0  0  1  0  0  0  0  0  0  0  0  0
    1.9853    4.7435    3.8542 O   0  0  0  0  0  0  0  0  0  0  0  0
    0.9069    2.6747    4.5221 C   0  0  1  0  0  0  0  0  0  0  0  0
   -0.2489    2.4282    5.2675 N   0  0  2  0  0  0  0  0  0  0  0  0
   -1.2952    2.0055    4.2966 C   0  0  2  0  0  0  0  0  0  0  0  0
   -0.3035    1.3169    3.2130 C   0  0  1  0  0  0  0  0  0  0  0  0
   -0.2571    1.7643    1.8775 O   0  0  0  0  0  0  0  0  0  0  0  0
    1.0858    1.2269    4.0214 C   0  0  1  0  0  0  0  0  0  0  0  0
    2.5775    1.2280    3.5449 C   0  0  1  0  0  0  0  0  0  0  0  0
    2.7375    1.5369    2.0472 C   0  0  0  0  0  0  0  0  0  0  0  0
    2.2703    0.4340    1.3147 O   0  0  0  0  0  0  0  0  0  0  0  0
    3.6543    1.9755    4.4463 C   0  0  0  0  0  0  0  0  0  0  0  0
    3.5442    2.2736    5.9481 N   0  0  1  0  0  0  0  0  0  0  0  0
    3.7945    3.7068    6.2824 C   0  0  0  0  0  0  0  0  0  0  0  0
    2.6438    1.5317    6.9140 C   0  0  2  0  0  0  0  0  0  0  0  0
    3.1954    0.0098    7.0557 C   0  0  1  0  0  0  0  0  0  0  0  0
    2.6573   -0.4290    8.3660 C   0  0  1  0  0  0  0  0  0  0  0  0
    2.9069    0.3379    9.5255 O   0  0  0  0  0  0  0  0  0  0  0  0
    1.2202   -0.4270    7.8876 C   0  0  1  0  0  0  0  0  0  0  0  0
    0.3075    0.6986    8.0121 C   0  0  2  0  0  0  0  0  0  0  0  0
   -0.7262   -0.0463    7.3058 O   0  0  0  0  0  0  0  0  0  0  0  0
   -0.2355   -1.1918    6.7116 C   0  0  0  0  0  0  0  0  0  0  0  0
   -0.8188   -2.2315    6.3742 O   0  0  0  0  0  0  0  0  0  0  0  0
    1.1145   -0.7176    6.3339 C   0  0  2  0  0  0  0  0  0  0  0  0
    2.5105   -1.1492    6.2117 C   0  0  2  0  0  0  0  0  0  0  0  0
    2.5925   -1.9172    4.8876 C   0  0  0  0  0  0  0  0  0  0  0  0
    1.3363   -1.4189    4.1035 C   0  0  0  0  0  0  0  0  0  0  0  0
    0.7805   -0.1546    4.8564 C   0  0  2  0  0  0  0  0  0  0  0  0
    1.0471    1.9705    7.4305 C   0  0  1  0  0  0  0  0  0  0  0  0
    1.0519    2.8993    8.6993 C   0  0  1  0  0  0  0  0  0  0  0  0
    1.8790    4.0384    8.4784 O   0  0  0  0  0  0  0  0  0  0  0  0
    2.2563    4.7455    9.6554 C   0  0  0  0  0  0  0  0  0  0  0  0
   -0.4304    3.3753    8.9166 C   0  0  0  0  0  0  0  0  0  0  0  0
   -1.2201    3.0951    7.6143 C   0  0  0  0  0  0  0  0  0  0  0  0
   -0.0573    2.8442    6.6688 C   0  0  2  0  0  0  0  0  0  0  0  0
   -4.8944    2.7700    1.8010 H   0  0  0  0  0  0  0  0  0  0  0  0
   -3.9530    4.2283    1.8555 H   0  0  0  0  0  0  0  0  0  0  0  0
   -4.8576    3.6917    3.2927 H   0  0  0  0  0  0  0  0  0  0  0  0
   -2.8191    3.4604    4.7396 H   0  0  0  0  0  0  0  0  0  0  0  0
   -1.4440    4.1754    2.1699 H   0  0  0  0  0  0  0  0  0  0  0  0
   -2.3653    5.1858    3.1891 H   0  0  0  0  0  0  0  0  0  0  0  0
   -0.1213    5.8423    3.3286 H   0  0  0  0  0  0  0  0  0  0  0  0
   -0.4786    5.1579    4.8920 H   0  0  0  0  0  0  0  0  0  0  0  0
    0.9493    3.7355    2.5599 H   0  0  0  0  0  0  0  0  0  0  0  0
    1.9795    5.4396    3.2106 H   0  0  0  0  0  0  0  0  0  0  0  0
    1.5995    3.0143    5.2183 H   0  0  0  0  0  0  0  0  0  0  0  0
   -1.9107    1.2189    4.7379 H   0  0  0  0  0  0  0  0  0  0  0  0
   -0.6888    0.3367    2.9227 H   0  0  0  0  0  0  0  0  0  0  0  0
   -0.1179    2.7054    1.8036 H   0  0  0  0  0  0  0  0  0  0  0  0
    2.9981    0.2352    3.5466 H   0  0  0  0  0  0  0  0  0  0  0  0
    2.2963    2.4681    1.6913 H   0  0  0  0  0  0  0  0  0  0  0  0
    3.7830    1.5778    1.7892 H   0  0  0  0  0  0  0  0  0  0  0  0
    1.4031    0.6197    0.9768 H   0  0  0  0  0  0  0  0  0  0  0  0
    4.5805    1.4153    4.3348 H   0  0  0  0  0  0  0  0  0  0  0  0
    3.8503    2.9129    3.9415 H   0  0  0  0  0  0  0  0  0  0  0  0
    2.9099    4.3337    6.2126 H   0  0  0  0  0  0  0  0  0  0  0  0
    4.5429    4.1347    5.6223 H   0  0  0  0  0  0  0  0  0  0  0  0
    4.1830    3.8111    7.2936 H   0  0  0  0  0  0  0  0  0  0  0  0
    3.1406    1.9322    7.7903 H   0  0  0  0  0  0  0  0  0  0  0  0
    4.2896   -0.0541    7.0615 H   0  0  0  0  0  0  0  0  0  0  0  0
    2.9931   -1.4488    8.5755 H   0  0  0  0  0  0  0  0  0  0  0  0
    2.5579   -0.1214   10.2754 H   0  0  0  0  0  0  0  0  0  0  0  0
    0.8968   -1.2075    8.6045 H   0  0  0  0  0  0  0  0  0  0  0  0
    0.0281    0.8109    9.0628 H   0  0  0  0  0  0  0  0  0  0  0  0
    2.9547   -0.4317    5.5433 H   0  0  0  0  0  0  0  0  0  0  0  0
    3.5396   -1.8102    4.3447 H   0  0  0  0  0  0  0  0  0  0  0  0
    2.4764   -2.9849    5.0911 H   0  0  0  0  0  0  0  0  0  0  0  0
    1.5248   -1.2774    3.0416 H   0  0  0  0  0  0  0  0  0  0  0  0
    0.5961   -2.2220    4.1313 H   0  0  0  0  0  0  0  0  0  0  0  0
   -0.2858   -0.3128    4.6977 H   0  0  0  0  0  0  0  0  0  0  0  0
    1.4070    2.3853    9.5930 H   0  0  0  0  0  0  0  0  0  0  0  0
    2.8455    5.6119    9.3626 H   0  0  0  0  0  0  0  0  0  0  0  0
    2.8742    4.1362   10.3158 H   0  0  0  0  0  0  0  0  0  0  0  0
    1.4064    5.1176   10.2275 H   0  0  0  0  0  0  0  0  0  0  0  0
   -0.8942    2.8581    9.7572 H   0  0  0  0  0  0  0  0  0  0  0  0
   -0.4690    4.4356    9.1745 H   0  0  0  0  0  0  0  0  0  0  0  0
   -1.8900    2.2395    7.7327 H   0  0  0  0  0  0  0  0  0  0  0  0
   -1.8193    3.9544    7.3246 H   0  0  0  0  0  0  0  0  0  0  0  0
    0.3407    3.8585    6.5821 H   0  0  0  0  0  0  0  0  0  0  0  0
    4.4312    1.8937    6.2418 H   0  0  0  0  0  0  0  0  0  0  0  0
   -0.0513    1.4711    5.4895 H   0  0  0  0  0  0  0  0  0  0  0  0
  1  2  1  0
  1 41  1  0
  1 42  1  0
  1 43  1  0
  2  3  1  0
  3 10  1  0
  3  4  1  0
  3 44  1  1
  4  5  1  0
  4 45  1  0
  4 46  1  0
  5  6  1  0
  5 47  1  0
  5 48  1  0
  6  7  1  0
  6  8  1  0
  6 49  1  6
  7 50  1  0
  8 13  1  0
  8  9  1  0
  8 51  1  1
  9 40  1  0
  9 10  1  0
  9 86  1  1
 10 11  1  0
 10 52  1  1
 11 12  1  0
 11 13  1  0
 11 53  1  6
 12 54  1  0
 13 33  1  0
 13 14  1  6
 14 15  1  0
 14 17  1  0
 14 55  1  6
 15 16  1  0
 15 56  1  0
 15 57  1  0
 16 58  1  0
 17 18  1  0
 17 59  1  0
 17 60  1  0
 18 19  1  0
 18 20  1  0
 18 85  1  1
 19 61  1  0
 19 62  1  0
 19 63  1  0
 20 34  1  0
 20 21  1  0
 20 64  1  1
 21 30  1  0
 21 22  1  0
 21 65  1  1
 22 23  1  0
 22 24  1  0
 22 66  1  1
 23 67  1  0
 24 29  1  0
 24 25  1  0
 24 68  1  1
 25 26  1  0
 25 34  1  0
 25 69  1  1
 26 27  1  0
 27 28  2  0
 29 27  1  1
 29 33  1  0
 29 30  1  0
 30 31  1  0
 30 70  1  1
 31 32  1  0
 31 71  1  0
 31 72  1  0
 32 33  1  0
 32 73  1  0
 32 74  1  0
 33 75  1  1
 34 40  1  0
 34 35  1  1
 35 36  1  0
 35 38  1  0
 35 76  1  1
 36 37  1  0
 37 77  1  0
 37 78  1  0
 37 79  1  0
 38 39  1  0
 38 80  1  0
 38 81  1  0
 39 40  1  0
 39 82  1  0
 39 83  1  0
 40 84  1  6
M  CHG  2   9   1  18   1
M  END
>  <i_m_ct_stereo_status>  (43) 
1

>  <s_m_source_file>  (43) 
/var/tmp/pbs.5076255.sched01/tmpokz5906q/0mijyat0o.sdf

>  <i_m_source_file_index>  (43) 
17

>  <i_lp_mmshare_version>  (43) 
48012

>  <i_f3d_flags>  (43) 
0

>  <s_epik_input>  (43) 
W09IXVtDQEBIXTFbQ0gyXVtDSDJdW0NAQEhdKE9bQ0gzXSlbQ0BASF0oW0NASF0yW09IXSlOKFtDQEhdMVtDQEBdMjM0KVtDQEBIXTVbQ0BdNihbQ0BASF0oT1tDSDNdKVtDSDJdW0NIMl01KVtDQEhdKE4oW0NIM10pW0NIMl1bQ0BASF0zW0NIMl1bT0hdKVtDQEBIXTdbQ0BASF04W0NAXTkoW0NAQEhdNFtDSDJdW0NIMl04KVtDQEBIXShbQ0BASF03W09IXSlbQ0BASF02T0M5PU8=

>  <s_epik_cmdline>  (43) 
J2VwaWtfcHl0aG9uJywgJy1waHQnLCAnMi4wJywgJy1waCcsICc3LjAnLCAnLXRuJywgJzgnLCAnLW1hJywgJzIwMCcsICctaW1hZScsICc8aW5maWxlLm1hZT4nLCAnLW9tYWUnLCAnPG91dGZpbGUubWFlPic=

>  <r_epik_Ionization_Penalty>  (43) 
1.86709

>  <r_epik_Ionization_Penalty_Charging>  (43) 
1.86709

>  <r_epik_Ionization_Penalty_Neutral>  (43) 
2.32299e-06

>  <r_epik_State_Penalty>  (43) 
1.48886

>  <r_epik_Charging_Adjusted_Penalty>  (43) 
3.35595

>  <i_epik_Tot_Q>  (43) 
2

>  <i_epik_Tot_abs_Q>  (43) 
2

>  <s_epik_Chemistry_Notes>  (43) 
This compound has an ester and may undergo hydrolysis at high or low pH.

>  <s_lp_Force_Field>  (43) 
OPLS3e

>  <r_lp_Energy>  (43) 
454.435

>  <b_lp_Chiralities_Consistent>  (43) 
1

>  <s_lp_Variant>  (43) 
9:0-3

>  <s_i_glide_gridfile>  (43) 
pfpi4k_grid

>  <i_i_glide_lignum>  (43) 
17

>  <i_i_glide_rotatable_bonds>  (43) 
7

>  <r_i_docking_score>  (43) 
-2.24382

>  <r_i_glide_ligand_efficiency>  (43) 
-0.0560956

>  <r_i_glide_ligand_efficiency_sa>  (43) 
-0.191844

>  <r_i_glide_ligand_efficiency_ln>  (43) 
-0.478541

>  <r_i_glide_gscore>  (43) 
-2.24382

>  <r_i_glide_lipo>  (43) 
-0.198949

>  <r_i_glide_hbond>  (43) 
-0.0804686

>  <r_i_glide_metal>  (43) 
-0

>  <r_i_glide_rewards>  (43) 
-0.5

>  <r_i_glide_evdw>  (43) 
-14.1541

>  <r_i_glide_ecoul>  (43) 
-5.1151

>  <r_i_glide_erotb>  (43) 
0.0657021

>  <r_i_glide_esite>  (43) 
-0.0551383

>  <r_i_glide_emodel>  (43) 
-24.2277

>  <r_i_glide_energy>  (43) 
-19.2692

>  <r_i_glide_einternal>  (43) 
1.94418

>  <r_i_glide_intrahb_reward>  (43) 
-0.5

>  <i_i_glide_confnum>  (43) 
4

>  <i_i_glide_posenum>  (43) 
38

>  <r_i_glide_eff_state_penalty>  (43) 
0

>  <ligand_id>  (43) 
9

>  <original_smiles>  (43) 
COC1CCC(O)C2N3C1C(O)C21C(CO)CN(C)C2C4C(O)C5C(OC(=O)C56C4CCC61)C21C(OC)CCC31

>  <smiles>  (43) 
[H]OC([H])([H])C1([H])C23C([H])(O[H])C4([H])C([H])(OC([H])([H])[H])C([H])([H])C([H])([H])C([H])(O[H])C2([H])[N+]4([H])C2([H])C([H])([H])C([H])([H])C([H])(OC([H])([H])[H])C24C2([H])OC(=O)C56C2([H])C([H])(O[H])C([H])(C5([H])C([H])([H])C([H])([H])C63[H])C4([H])[N+]([H])(C([H])([H])[H])C1([H])[H]

$$$$
9:2:1
     RDKit          3D

 86 94  0  0  1  0  0  0  0  0999 V2000
   -0.6324    1.3391    2.3176 C   0  0  0  0  0  0  0  0  0  0  0  0
   -0.0163    1.3688    3.6057 O   0  0  0  0  0  0  0  0  0  0  0  0
   -0.3745    2.4590    4.4481 C   0  0  2  0  0  0  0  0  0  0  0  0
   -0.0167    3.7988    3.7658 C   0  0  0  0  0  0  0  0  0  0  0  0
    0.0148    5.0223    4.6843 C   0  0  0  0  0  0  0  0  0  0  0  0
    1.2036    5.0068    5.6590 C   0  0  1  0  0  0  0  0  0  0  0  0
    1.3414    6.3360    6.0925 O   0  0  0  0  0  0  0  0  0  0  0  0
    1.0469    4.0552    6.9253 C   0  0  1  0  0  0  0  0  0  0  0  0
   -0.0362    3.1934    6.8949 N   0  0  2  0  0  0  0  0  0  0  0  0
    0.2653    2.1782    5.8438 C   0  0  2  0  0  0  0  0  0  0  0  0
    1.8845    2.1955    5.9919 C   0  0  1  0  0  0  0  0  0  0  0  0
    2.6553    2.5966    4.8712 O   0  0  0  0  0  0  0  0  0  0  0  0
    2.0919    3.0134    7.3747 C   0  0  1  0  0  0  0  0  0  0  0  0
    3.2902    3.9047    7.8868 C   0  0  1  0  0  0  0  0  0  0  0  0
    4.3467    4.2273    6.8097 C   0  0  0  0  0  0  0  0  0  0  0  0
    5.5063    4.8176    7.3840 O   0  0  0  0  0  0  0  0  0  0  0  0
    2.9303    5.1864    8.7663 C   0  0  0  0  0  0  0  0  0  0  0  0
    1.6347    5.4212    9.5364 N   0  0  1  0  0  0  0  0  0  0  0  0
    1.0064    6.7435    9.2347 C   0  0  0  0  0  0  0  0  0  0  0  0
    0.6927    4.3205   10.0670 C   0  0  2  0  0  0  0  0  0  0  0  0
    1.4717    3.4507   11.1923 C   0  0  1  0  0  0  0  0  0  0  0  0
    0.3790    2.8521   11.9882 C   0  0  1  0  0  0  0  0  0  0  0  0
   -0.6317    3.6711   12.5566 O   0  0  0  0  0  0  0  0  0  0  0  0
   -0.0790    1.9376   10.8670 C   0  0  1  0  0  0  0  0  0  0  0  0
   -1.1236    2.2795    9.9163 C   0  0  2  0  0  0  0  0  0  0  0  0
   -0.9531    0.9900    9.2319 O   0  0  0  0  0  0  0  0  0  0  0  0
    0.2174    0.3780    9.6047 C   0  0  0  0  0  0  0  0  0  0  0  0
    0.5153   -0.8481    9.5742 O   0  0  0  0  0  0  0  0  0  0  0  0
    1.1036    1.5547    9.8766 C   0  0  2  0  0  0  0  0  0  0  0  0
    2.1455    2.0770   10.7870 C   0  0  2  0  0  0  0  0  0  0  0  0
    3.4781    1.4752   10.3170 C   0  0  0  0  0  0  0  0  0  0  0  0
    3.1733    1.0709    8.8407 C   0  0  0  0  0  0  0  0  0  0  0  0
    1.8158    1.7581    8.4311 C   0  0  2  0  0  0  0  0  0  0  0  0
   -0.7580    3.7115    9.3254 C   0  0  1  0  0  0  0  0  0  0  0  0
   -2.0310    4.5190    9.7629 C   0  0  1  0  0  0  0  0  0  0  0  0
   -1.8889    5.9212    9.5447 O   0  0  0  0  0  0  0  0  0  0  0  0
   -1.8186    6.7304   10.7223 C   0  0  0  0  0  0  0  0  0  0  0  0
   -3.1974    4.0176    8.8345 C   0  0  0  0  0  0  0  0  0  0  0  0
   -2.5824    3.2499    7.6412 C   0  0  0  0  0  0  0  0  0  0  0  0
   -1.1446    3.7039    7.7755 C   0  0  2  0  0  0  0  0  0  0  0  0
   -0.3348    0.4351    1.7848 H   0  0  0  0  0  0  0  0  0  0  0  0
   -0.3162    2.1644    1.6829 H   0  0  0  0  0  0  0  0  0  0  0  0
   -1.7211    1.3486    2.3873 H   0  0  0  0  0  0  0  0  0  0  0  0
   -1.4558    2.4411    4.5900 H   0  0  0  0  0  0  0  0  0  0  0  0
    0.9261    3.7304    3.2211 H   0  0  0  0  0  0  0  0  0  0  0  0
   -0.7615    3.9984    2.9898 H   0  0  0  0  0  0  0  0  0  0  0  0
    0.1217    5.8888    4.0259 H   0  0  0  0  0  0  0  0  0  0  0  0
   -0.9410    5.1506    5.1928 H   0  0  0  0  0  0  0  0  0  0  0  0
    2.1046    4.8493    5.0961 H   0  0  0  0  0  0  0  0  0  0  0  0
    1.5574    6.8637    5.3428 H   0  0  0  0  0  0  0  0  0  0  0  0
    0.7894    4.7865    7.6234 H   0  0  0  0  0  0  0  0  0  0  0  0
   -0.1016    1.2104    6.1791 H   0  0  0  0  0  0  0  0  0  0  0  0
    2.2688    1.1773    6.0475 H   0  0  0  0  0  0  0  0  0  0  0  0
    2.3402    3.3974    4.5137 H   0  0  0  0  0  0  0  0  0  0  0  0
    3.9005    3.3450    8.5756 H   0  0  0  0  0  0  0  0  0  0  0  0
    4.6825    3.3100    6.3164 H   0  0  0  0  0  0  0  0  0  0  0  0
    3.9935    4.9089    6.0352 H   0  0  0  0  0  0  0  0  0  0  0  0
    6.1349    4.9544    6.7127 H   0  0  0  0  0  0  0  0  0  0  0  0
    3.7301    5.3107    9.4955 H   0  0  0  0  0  0  0  0  0  0  0  0
    3.0702    6.0360    8.0975 H   0  0  0  0  0  0  0  0  0  0  0  0
    0.2672    6.6907    8.4339 H   0  0  0  0  0  0  0  0  0  0  0  0
    1.7590    7.4651    8.8991 H   0  0  0  0  0  0  0  0  0  0  0  0
    0.5607    7.1703   10.1158 H   0  0  0  0  0  0  0  0  0  0  0  0
    0.2147    4.9916   10.7433 H   0  0  0  0  0  0  0  0  0  0  0  0
    2.1054    4.0753   11.8441 H   0  0  0  0  0  0  0  0  0  0  0  0
    0.7993    2.2696   12.8147 H   0  0  0  0  0  0  0  0  0  0  0  0
   -1.2942    3.1085   12.9431 H   0  0  0  0  0  0  0  0  0  0  0  0
   -0.4815    1.1697   11.5529 H   0  0  0  0  0  0  0  0  0  0  0  0
   -2.0919    2.2635   10.4293 H   0  0  0  0  0  0  0  0  0  0  0  0
    2.6197    2.8868   10.2578 H   0  0  0  0  0  0  0  0  0  0  0  0
    4.3616    2.1216   10.4348 H   0  0  0  0  0  0  0  0  0  0  0  0
    3.6857    0.5768   10.9022 H   0  0  0  0  0  0  0  0  0  0  0  0
    4.0051    1.2625    8.1617 H   0  0  0  0  0  0  0  0  0  0  0  0
    3.0492   -0.0123    8.8255 H   0  0  0  0  0  0  0  0  0  0  0  0
    1.3949    0.9824    7.8016 H   0  0  0  0  0  0  0  0  0  0  0  0
   -2.3315    4.3439   10.7989 H   0  0  0  0  0  0  0  0  0  0  0  0
   -1.7106    7.7721   10.4085 H   0  0  0  0  0  0  0  0  0  0  0  0
   -0.9696    6.4828   11.3520 H   0  0  0  0  0  0  0  0  0  0  0  0
   -2.7023    6.6945   11.3335 H   0  0  0  0  0  0  0  0  0  0  0  0
   -3.8892    3.3734    9.3855 H   0  0  0  0  0  0  0  0  0  0  0  0
   -3.7850    4.8693    8.4795 H   0  0  0  0  0  0  0  0  0  0  0  0
   -2.7216    2.1725    7.7475 H   0  0  0  0  0  0  0  0  0  0  0  0
   -3.0349    3.5508    6.6943 H   0  0  0  0  0  0  0  0  0  0  0  0
   -1.2383    4.7381    7.4523 H   0  0  0  0  0  0  0  0  0  0  0  0
    2.0502    5.6772   10.4423 H   0  0  0  0  0  0  0  0  0  0  0  0
    0.2628    2.5534    7.6250 H   0  0  0  0  0  0  0  0  0  0  0  0
  1  2  1  0
  1 41  1  0
  1 42  1  0
  1 43  1  0
  2  3  1  0
  3 10  1  0
  3  4  1  0
  3 44  1  1
  4  5  1  0
  4 45  1  0
  4 46  1  0
  5  6  1  0
  5 47  1  0
  5 48  1  0
  6  7  1  0
  6  8  1  0
  6 49  1  6
  7 50  1  0
  8 13  1  0
  8  9  1  0
  8 51  1  1
  9 40  1  0
  9 10  1  0
  9 86  1  1
 10 11  1  0
 10 52  1  1
 11 12  1  0
 11 13  1  0
 11 53  1  1
 12 54  1  0
 13 33  1  0
 13 14  1  6
 14 15  1  0
 14 17  1  0
 14 55  1  1
 15 16  1  0
 15 56  1  0
 15 57  1  0
 16 58  1  0
 17 18  1  0
 17 59  1  0
 17 60  1  0
 18 19  1  0
 18 20  1  0
 18 85  1  1
 19 61  1  0
 19 62  1  0
 19 63  1  0
 20 34  1  0
 20 21  1  0
 20 64  1  1
 21 30  1  0
 21 22  1  0
 21 65  1  1
 22 23  1  0
 22 24  1  0
 22 66  1  1
 23 67  1  0
 24 29  1  0
 24 25  1  0
 24 68  1  1
 25 26  1  0
 25 34  1  0
 25 69  1  1
 26 27  1  0
 27 28  2  0
 29 27  1  1
 29 33  1  0
 29 30  1  0
 30 31  1  0
 30 70  1  1
 31 32  1  0
 31 71  1  0
 31 72  1  0
 32 33  1  0
 32 73  1  0
 32 74  1  0
 33 75  1  6
 34 40  1  0
 34 35  1  1
 35 36  1  0
 35 38  1  0
 35 76  1  1
 36 37  1  0
 37 77  1  0
 37 78  1  0
 37 79  1  0
 38 39  1  0
 38 80  1  0
 38 81  1  0
 39 40  1  0
 39 82  1  0
 39 83  1  0
 40 84  1  6
M  CHG  2   9   1  18   1
M  END
>  <i_m_ct_stereo_status>  (44) 
1

>  <s_m_source_file>  (44) 
/var/tmp/pbs.5076255.sched01/tmpokz5906q/0mijyat0o.sdf

>  <i_m_source_file_index>  (44) 
17

>  <i_lp_mmshare_version>  (44) 
48012

>  <i_f3d_flags>  (44) 
0

>  <s_epik_input>  (44) 
W09IXVtDQEBIXTFbQ0gyXVtDSDJdW0NAQEhdKE9bQ0gzXSlbQ0BASF0oW0NASF0yW09IXSlOKFtDQEhdMVtDQEBdMjM0KVtDQEBIXTVbQ0BdNihbQ0BASF0oT1tDSDNdKVtDSDJdW0NIMl01KVtDQEhdKE4oW0NIM10pW0NIMl1bQ0BASF0zW0NIMl1bT0hdKVtDQEBIXTdbQ0BASF04W0NAXTkoW0NAQEhdNFtDSDJdW0NIMl04KVtDQEBIXShbQ0BASF03W09IXSlbQ0BASF02T0M5PU8=

>  <s_epik_cmdline>  (44) 
J2VwaWtfcHl0aG9uJywgJy1waHQnLCAnMi4wJywgJy1waCcsICc3LjAnLCAnLXRuJywgJzgnLCAnLW1hJywgJzIwMCcsICctaW1hZScsICc8aW5maWxlLm1hZT4nLCAnLW9tYWUnLCAnPG91dGZpbGUubWFlPic=

>  <r_epik_Ionization_Penalty>  (44) 
1.86709

>  <r_epik_Ionization_Penalty_Charging>  (44) 
1.86709

>  <r_epik_Ionization_Penalty_Neutral>  (44) 
2.32299e-06

>  <r_epik_State_Penalty>  (44) 
1.48886

>  <r_epik_Charging_Adjusted_Penalty>  (44) 
3.35595

>  <i_epik_Tot_Q>  (44) 
2

>  <i_epik_Tot_abs_Q>  (44) 
2

>  <s_epik_Chemistry_Notes>  (44) 
This compound has an ester and may undergo hydrolysis at high or low pH.

>  <s_lp_Force_Field>  (44) 
OPLS3e

>  <r_lp_Energy>  (44) 
454.435

>  <b_lp_Chiralities_Consistent>  (44) 
1

>  <s_lp_Variant>  (44) 
9:0-3

>  <s_i_glide_gridfile>  (44) 
pfpi4k_grid

>  <i_i_glide_lignum>  (44) 
17

>  <i_i_glide_rotatable_bonds>  (44) 
7

>  <r_i_docking_score>  (44) 
-2.13255

>  <r_i_glide_ligand_efficiency>  (44) 
-0.0533137

>  <r_i_glide_ligand_efficiency_sa>  (44) 
-0.18233

>  <r_i_glide_ligand_efficiency_ln>  (44) 
-0.45481

>  <r_i_glide_gscore>  (44) 
-2.13255

>  <r_i_glide_lipo>  (44) 
-0.220624

>  <r_i_glide_hbond>  (44) 
-0.118232

>  <r_i_glide_metal>  (44) 
-0

>  <r_i_glide_rewards>  (44) 
0

>  <r_i_glide_evdw>  (44) 
-17.9844

>  <r_i_glide_ecoul>  (44) 
-6.21548

>  <r_i_glide_erotb>  (44) 
0.0657021

>  <r_i_glide_esite>  (44) 
-0.0278525

>  <r_i_glide_emodel>  (44) 
-25.5183

>  <r_i_glide_energy>  (44) 
-24.1999

>  <r_i_glide_einternal>  (44) 
2.91602

>  <r_i_glide_intrahb_reward>  (44) 
-0

>  <i_i_glide_confnum>  (44) 
4

>  <i_i_glide_posenum>  (44) 
12

>  <r_i_glide_eff_state_penalty>  (44) 
0

>  <ligand_id>  (44) 
9

>  <original_smiles>  (44) 
COC1CCC(O)C2N3C1C(O)C21C(CO)CN(C)C2C4C(O)C5C(OC(=O)C56C4CCC61)C21C(OC)CCC31

>  <smiles>  (44) 
[H]OC([H])([H])C1([H])C23C([H])(O[H])C4([H])C([H])(OC([H])([H])[H])C([H])([H])C([H])([H])C([H])(O[H])C2([H])[N+]4([H])C2([H])C([H])([H])C([H])([H])C([H])(OC([H])([H])[H])C24C2([H])OC(=O)C56C2([H])C([H])(O[H])C([H])(C5([H])C([H])([H])C([H])([H])C63[H])C4([H])[N+]([H])(C([H])([H])[H])C1([H])[H]

$$$$
9:2:2
     RDKit          3D

 86 94  0  0  1  0  0  0  0  0999 V2000
   -0.7837    0.9379    2.0573 C   0  0  0  0  0  0  0  0  0  0  0  0
   -0.2815    0.9778    3.3945 O   0  0  0  0  0  0  0  0  0  0  0  0
   -0.7421    2.0309    4.2298 C   0  0  2  0  0  0  0  0  0  0  0  0
   -0.6833    3.3706    3.4720 C   0  0  0  0  0  0  0  0  0  0  0  0
   -0.7586    4.6356    4.3078 C   0  0  0  0  0  0  0  0  0  0  0  0
    0.5176    4.8672    5.1309 C   0  0  1  0  0  0  0  0  0  0  0  0
    0.4878    6.2293    5.4704 O   0  0  0  0  0  0  0  0  0  0  0  0
    0.6541    3.9936    6.4438 C   0  0  1  0  0  0  0  0  0  0  0  0
   -0.2877    2.9557    6.5826 N   0  0  2  0  0  0  0  0  0  0  0  0
    0.0795    1.9335    5.5521 C   0  0  2  0  0  0  0  0  0  0  0  0
    1.6761    2.2229    5.5196 C   0  0  1  0  0  0  0  0  0  0  0  0
    2.2481    2.6550    4.3038 O   0  0  0  0  0  0  0  0  0  0  0  0
    1.8884    3.1416    6.8327 C   0  0  1  0  0  0  0  0  0  0  0  0
    2.9808    4.2410    7.1503 C   0  0  1  0  0  0  0  0  0  0  0  0
    3.8502    4.6611    5.9502 C   0  0  0  0  0  0  0  0  0  0  0  0
    4.9253    5.4814    6.3653 O   0  0  0  0  0  0  0  0  0  0  0  0
    2.5191    5.5054    7.9963 C   0  0  0  0  0  0  0  0  0  0  0  0
    1.2822    5.5897    8.9135 N   0  0  1  0  0  0  0  0  0  0  0  0
    0.4157    6.7948    8.6096 C   0  0  0  0  0  0  0  0  0  0  0  0
    0.5774    4.3938    9.5937 C   0  0  2  0  0  0  0  0  0  0  0  0
    1.6124    3.7264   10.6667 C   0  0  1  0  0  0  0  0  0  0  0  0
    0.7093    3.0206   11.6044 C   0  0  1  0  0  0  0  0  0  0  0  0
   -0.3629    3.7149   12.2313 O   0  0  0  0  0  0  0  0  0  0  0  0
    0.2975    1.9798   10.5849 C   0  0  1  0  0  0  0  0  0  0  0  0
   -0.8861    2.0830    9.7506 C   0  0  2  0  0  0  0  0  0  0  0  0
   -0.5844    0.7892    9.1357 O   0  0  0  0  0  0  0  0  0  0  0  0
    0.7210    0.3786    9.3849 C   0  0  0  0  0  0  0  0  0  0  0  0
    1.2032   -0.7487    9.3773 O   0  0  0  0  0  0  0  0  0  0  0  0
    1.4164    1.7276    9.4943 C   0  0  2  0  0  0  0  0  0  0  0  0
    2.4506    2.4429   10.2566 C   0  0  2  0  0  0  0  0  0  0  0  0
    3.8039    2.0376    9.6644 C   0  0  0  0  0  0  0  0  0  0  0  0
    3.4195    1.4961    8.2558 C   0  0  0  0  0  0  0  0  0  0  0  0
    1.9335    1.9334    7.9690 C   0  0  2  0  0  0  0  0  0  0  0  0
   -0.8146    3.5165    9.0571 C   0  0  1  0  0  0  0  0  0  0  0  0
   -2.1507    4.1448    9.5816 C   0  0  1  0  0  0  0  0  0  0  0  0
   -2.2630    5.5423    9.3044 O   0  0  0  0  0  0  0  0  0  0  0  0
   -2.0687    6.4359   10.4017 C   0  0  0  0  0  0  0  0  0  0  0  0
   -3.3074    3.4054    8.8273 C   0  0  0  0  0  0  0  0  0  0  0  0
   -2.7139    2.6686    7.6068 C   0  0  0  0  0  0  0  0  0  0  0  0
   -1.3545    3.3477    7.5565 C   0  0  2  0  0  0  0  0  0  0  0  0
   -0.4175    0.0489    1.5465 H   0  0  0  0  0  0  0  0  0  0  0  0
   -0.4270    1.7544    1.4330 H   0  0  0  0  0  0  0  0  0  0  0  0
   -1.8723    0.9380    2.0204 H   0  0  0  0  0  0  0  0  0  0  0  0
   -1.7900    1.8449    4.4728 H   0  0  0  0  0  0  0  0  0  0  0  0
    0.2219    3.4222    2.8765 H   0  0  0  0  0  0  0  0  0  0  0  0
   -1.5086    3.4041    2.7567 H   0  0  0  0  0  0  0  0  0  0  0  0
   -0.8455    5.4505    3.5882 H   0  0  0  0  0  0  0  0  0  0  0  0
   -1.6694    4.6416    4.9107 H   0  0  0  0  0  0  0  0  0  0  0  0
    1.3698    4.8045    4.4737 H   0  0  0  0  0  0  0  0  0  0  0  0
    0.6942    6.7160    4.6850 H   0  0  0  0  0  0  0  0  0  0  0  0
    0.3454    4.7113    7.1312 H   0  0  0  0  0  0  0  0  0  0  0  0
   -0.0924    0.9396    5.9717 H   0  0  0  0  0  0  0  0  0  0  0  0
    2.2240    1.2837    5.5767 H   0  0  0  0  0  0  0  0  0  0  0  0
    1.7590    3.3700    3.9247 H   0  0  0  0  0  0  0  0  0  0  0  0
    3.7383    3.8391    7.8025 H   0  0  0  0  0  0  0  0  0  0  0  0
    4.2913    3.7784    5.4844 H   0  0  0  0  0  0  0  0  0  0  0  0
    3.3063    5.2047    5.1801 H   0  0  0  0  0  0  0  0  0  0  0  0
    5.4066    5.7546    5.5930 H   0  0  0  0  0  0  0  0  0  0  0  0
    3.3471    5.8087    8.6378 H   0  0  0  0  0  0  0  0  0  0  0  0
    2.4424    6.3234    7.2874 H   0  0  0  0  0  0  0  0  0  0  0  0
   -0.3801    6.5648    7.9022 H   0  0  0  0  0  0  0  0  0  0  0  0
    1.0190    7.5684    8.1160 H   0  0  0  0  0  0  0  0  0  0  0  0
    0.0198    7.1914    9.5277 H   0  0  0  0  0  0  0  0  0  0  0  0
    0.0805    5.0273   10.2790 H   0  0  0  0  0  0  0  0  0  0  0  0
    2.1915    4.4853   11.2042 H   0  0  0  0  0  0  0  0  0  0  0  0
    1.3017    2.5702   12.4094 H   0  0  0  0  0  0  0  0  0  0  0  0
   -0.8987    3.0930   12.7216 H   0  0  0  0  0  0  0  0  0  0  0  0
    0.0991    1.2082   11.3437 H   0  0  0  0  0  0  0  0  0  0  0  0
   -1.7805    1.9626   10.3681 H   0  0  0  0  0  0  0  0  0  0  0  0
    2.7283    3.2801    9.6389 H   0  0  0  0  0  0  0  0  0  0  0  0
    4.5744    2.8218    9.6525 H   0  0  0  0  0  0  0  0  0  0  0  0
    4.2113    1.2262   10.2660 H   0  0  0  0  0  0  0  0  0  0  0  0
    4.1318    1.7722    7.4787 H   0  0  0  0  0  0  0  0  0  0  0  0
    3.4695    0.4116    8.3074 H   0  0  0  0  0  0  0  0  0  0  0  0
    1.5758    1.0618    7.4324 H   0  0  0  0  0  0  0  0  0  0  0  0
   -2.3192    3.9998   10.6478 H   0  0  0  0  0  0  0  0  0  0  0  0
   -2.2200    7.4580   10.0235 H   0  0  0  0  0  0  0  0  0  0  0  0
   -1.0774    6.3729   10.8121 H   0  0  0  0  0  0  0  0  0  0  0  0
   -2.7731    6.3044   11.2085 H   0  0  0  0  0  0  0  0  0  0  0  0
   -3.8273    2.7045    9.4771 H   0  0  0  0  0  0  0  0  0  0  0  0
   -4.0803    4.1181    8.5495 H   0  0  0  0  0  0  0  0  0  0  0  0
   -2.6606    1.5913    7.7764 H   0  0  0  0  0  0  0  0  0  0  0  0
   -3.3079    2.8365    6.7076 H   0  0  0  0  0  0  0  0  0  0  0  0
   -1.6499    4.3316    7.1957 H   0  0  0  0  0  0  0  0  0  0  0  0
    1.7274    5.9686    9.7433 H   0  0  0  0  0  0  0  0  0  0  0  0
    0.1945    2.4308    7.2985 H   0  0  0  0  0  0  0  0  0  0  0  0
  1  2  1  0
  1 41  1  0
  1 42  1  0
  1 43  1  0
  2  3  1  0
  3 10  1  0
  3  4  1  0
  3 44  1  1
  4  5  1  0
  4 45  1  0
  4 46  1  0
  5  6  1  0
  5 47  1  0
  5 48  1  0
  6  7  1  0
  6  8  1  0
  6 49  1  6
  7 50  1  0
  8 13  1  0
  8  9  1  0
  8 51  1  1
  9 40  1  0
  9 10  1  0
  9 86  1  1
 10 11  1  0
 10 52  1  1
 11 12  1  0
 11 13  1  0
 11 53  1  1
 12 54  1  0
 13 33  1  0
 13 14  1  6
 14 15  1  0
 14 17  1  0
 14 55  1  1
 15 16  1  0
 15 56  1  0
 15 57  1  0
 16 58  1  0
 17 18  1  0
 17 59  1  0
 17 60  1  0
 18 19  1  0
 18 20  1  0
 18 85  1  1
 19 61  1  0
 19 62  1  0
 19 63  1  0
 20 34  1  0
 20 21  1  0
 20 64  1  1
 21 30  1  0
 21 22  1  0
 21 65  1  1
 22 23  1  0
 22 24  1  0
 22 66  1  1
 23 67  1  0
 24 29  1  0
 24 25  1  0
 24 68  1  1
 25 26  1  0
 25 34  1  0
 25 69  1  1
 26 27  1  0
 27 28  2  0
 29 27  1  1
 29 33  1  0
 29 30  1  0
 30 31  1  0
 30 70  1  1
 31 32  1  0
 31 71  1  0
 31 72  1  0
 32 33  1  0
 32 73  1  0
 32 74  1  0
 33 75  1  6
 34 40  1  0
 34 35  1  1
 35 36  1  0
 35 38  1  0
 35 76  1  1
 36 37  1  0
 37 77  1  0
 37 78  1  0
 37 79  1  0
 38 39  1  0
 38 80  1  0
 38 81  1  0
 39 40  1  0
 39 82  1  0
 39 83  1  0
 40 84  1  6
M  CHG  2   9   1  18   1
M  END
>  <i_m_ct_stereo_status>  (45) 
1

>  <s_m_source_file>  (45) 
/var/tmp/pbs.5076255.sched01/tmpokz5906q/0mijyat0o.sdf

>  <i_m_source_file_index>  (45) 
17

>  <i_lp_mmshare_version>  (45) 
48012

>  <i_f3d_flags>  (45) 
0

>  <s_epik_input>  (45) 
W09IXVtDQEBIXTFbQ0gyXVtDSDJdW0NAQEhdKE9bQ0gzXSlbQ0BASF0oW0NASF0yW09IXSlOKFtDQEhdMVtDQEBdMjM0KVtDQEBIXTVbQ0BdNihbQ0BASF0oT1tDSDNdKVtDSDJdW0NIMl01KVtDQEhdKE4oW0NIM10pW0NIMl1bQ0BASF0zW0NIMl1bT0hdKVtDQEBIXTdbQ0BASF04W0NAXTkoW0NAQEhdNFtDSDJdW0NIMl04KVtDQEBIXShbQ0BASF03W09IXSlbQ0BASF02T0M5PU8=

>  <s_epik_cmdline>  (45) 
J2VwaWtfcHl0aG9uJywgJy1waHQnLCAnMi4wJywgJy1waCcsICc3LjAnLCAnLXRuJywgJzgnLCAnLW1hJywgJzIwMCcsICctaW1hZScsICc8aW5maWxlLm1hZT4nLCAnLW9tYWUnLCAnPG91dGZpbGUubWFlPic=

>  <r_epik_Ionization_Penalty>  (45) 
1.86709

>  <r_epik_Ionization_Penalty_Charging>  (45) 
1.86709

>  <r_epik_Ionization_Penalty_Neutral>  (45) 
2.32299e-06

>  <r_epik_State_Penalty>  (45) 
1.48886

>  <r_epik_Charging_Adjusted_Penalty>  (45) 
3.35595

>  <i_epik_Tot_Q>  (45) 
2

>  <i_epik_Tot_abs_Q>  (45) 
2

>  <s_epik_Chemistry_Notes>  (45) 
This compound has an ester and may undergo hydrolysis at high or low pH.

>  <s_lp_Force_Field>  (45) 
OPLS3e

>  <r_lp_Energy>  (45) 
454.435

>  <b_lp_Chiralities_Consistent>  (45) 
1

>  <s_lp_Variant>  (45) 
9:0-3

>  <s_i_glide_gridfile>  (45) 
pfpi4k_grid

>  <i_i_glide_lignum>  (45) 
17

>  <i_i_glide_rotatable_bonds>  (45) 
7

>  <r_i_docking_score>  (45) 
-1.848

>  <r_i_glide_ligand_efficiency>  (45) 
-0.0462001

>  <r_i_glide_ligand_efficiency_sa>  (45) 
-0.158002

>  <r_i_glide_ligand_efficiency_ln>  (45) 
-0.394125

>  <r_i_glide_gscore>  (45) 
-1.848

>  <r_i_glide_lipo>  (45) 
-0.236275

>  <r_i_glide_hbond>  (45) 
0

>  <r_i_glide_metal>  (45) 
-0

>  <r_i_glide_rewards>  (45) 
0

>  <r_i_glide_evdw>  (45) 
-18.6065

>  <r_i_glide_ecoul>  (45) 
-4.89669

>  <r_i_glide_erotb>  (45) 
0.0657021

>  <r_i_glide_esite>  (45) 
-0.0126034

>  <r_i_glide_emodel>  (45) 
-21.7421

>  <r_i_glide_energy>  (45) 
-23.5031

>  <r_i_glide_einternal>  (45) 
5.23066

>  <r_i_glide_intrahb_reward>  (45) 
-0

>  <i_i_glide_confnum>  (45) 
4

>  <i_i_glide_posenum>  (45) 
7

>  <r_i_glide_eff_state_penalty>  (45) 
0

>  <ligand_id>  (45) 
9

>  <original_smiles>  (45) 
COC1CCC(O)C2N3C1C(O)C21C(CO)CN(C)C2C4C(O)C5C(OC(=O)C56C4CCC61)C21C(OC)CCC31

>  <smiles>  (45) 
[H]OC([H])([H])C1([H])C23C([H])(O[H])C4([H])C([H])(OC([H])([H])[H])C([H])([H])C([H])([H])C([H])(O[H])C2([H])[N+]4([H])C2([H])C([H])([H])C([H])([H])C([H])(OC([H])([H])[H])C24C2([H])OC(=O)C56C2([H])C([H])(O[H])C([H])(C5([H])C([H])([H])C([H])([H])C63[H])C4([H])[N+]([H])(C([H])([H])[H])C1([H])[H]

$$$$
9:3:0
     RDKit          3D

 84 92  0  0  1  0  0  0  0  0999 V2000
   -0.0546    0.6850    2.0812 C   0  0  0  0  0  0  0  0  0  0  0  0
   -0.7640    0.5766    3.3258 O   0  0  0  0  0  0  0  0  0  0  0  0
   -1.1824    1.7605    3.9934 C   0  0  2  0  0  0  0  0  0  0  0  0
   -1.2020    3.0481    3.0850 C   0  0  0  0  0  0  0  0  0  0  0  0
   -1.3277    4.4229    3.7554 C   0  0  0  0  0  0  0  0  0  0  0  0
   -0.1015    4.7771    4.6440 C   0  0  1  0  0  0  0  0  0  0  0  0
   -0.1399    6.1748    4.8865 O   0  0  0  0  0  0  0  0  0  0  0  0
   -0.0352    3.9968    6.0365 C   0  0  1  0  0  0  0  0  0  0  0  0
   -1.0199    3.0544    6.1061 N   0  0  0  0  0  0  0  0  0  0  0  0
   -0.4701    1.9053    5.3719 C   0  0  2  0  0  0  0  0  0  0  0  0
    1.1084    2.1594    5.2944 C   0  0  1  0  0  0  0  0  0  0  0  0
    1.6717    2.5092    4.0431 O   0  0  0  0  0  0  0  0  0  0  0  0
    1.3004    3.1930    6.4732 C   0  0  1  0  0  0  0  0  0  0  0  0
    2.4574    4.2542    6.6141 C   0  0  1  0  0  0  0  0  0  0  0  0
    3.2526    4.6886    5.3419 C   0  0  0  0  0  0  0  0  0  0  0  0
    4.0812    3.6251    4.9059 O   0  0  0  0  0  0  0  0  0  0  0  0
    2.1324    5.4869    7.5068 C   0  0  0  0  0  0  0  0  0  0  0  0
    0.8720    5.5641    8.2809 N   0  0  0  0  0  0  0  0  0  0  0  0
    0.8586    6.9029    8.8819 C   0  0  0  0  0  0  0  0  0  0  0  0
    0.4270    4.4432    9.1648 C   0  0  2  0  0  0  0  0  0  0  0  0
    1.6533    3.9324   10.1139 C   0  0  1  0  0  0  0  0  0  0  0  0
    0.9141    3.3641   11.2749 C   0  0  1  0  0  0  0  0  0  0  0  0
   -0.0583    4.1259   11.9831 O   0  0  0  0  0  0  0  0  0  0  0  0
    0.3823    2.1787   10.5212 C   0  0  1  0  0  0  0  0  0  0  0  0
   -0.8834    2.1085    9.7760 C   0  0  2  0  0  0  0  0  0  0  0  0
   -0.5988    0.7548    9.3105 O   0  0  0  0  0  0  0  0  0  0  0  0
    0.7407    0.4512    9.4089 C   0  0  0  0  0  0  0  0  0  0  0  0
    1.3369   -0.6216    9.4904 O   0  0  0  0  0  0  0  0  0  0  0  0
    1.3453    1.8497    9.2969 C   0  0  2  0  0  0  0  0  0  0  0  0
    2.5020    2.6064    9.7975 C   0  0  2  0  0  0  0  0  0  0  0  0
    3.6307    2.0163    8.8800 C   0  0  0  0  0  0  0  0  0  0  0  0
    2.9167    1.4730    7.6116 C   0  0  0  0  0  0  0  0  0  0  0  0
    1.4392    2.0086    7.6636 C   0  0  2  0  0  0  0  0  0  0  0  0
   -0.9165    3.4406    8.8783 C   0  0  1  0  0  0  0  0  0  0  0  0
   -2.2169    4.0988    9.5136 C   0  0  1  0  0  0  0  0  0  0  0  0
   -2.4050    5.4439    9.0743 O   0  0  0  0  0  0  0  0  0  0  0  0
   -2.1698    6.4365   10.0696 C   0  0  0  0  0  0  0  0  0  0  0  0
   -3.4314    3.2482    9.0040 C   0  0  0  0  0  0  0  0  0  0  0  0
   -2.9730    2.4745    7.7470 C   0  0  0  0  0  0  0  0  0  0  0  0
   -1.6427    3.1320    7.4648 C   0  0  2  0  0  0  0  0  0  0  0  0
    0.2163   -0.2612    1.7085 H   0  0  0  0  0  0  0  0  0  0  0  0
    0.8516    1.2923    2.1965 H   0  0  0  0  0  0  0  0  0  0  0  0
   -0.6927    1.1926    1.3353 H   0  0  0  0  0  0  0  0  0  0  0  0
   -2.2307    1.5770    4.2563 H   0  0  0  0  0  0  0  0  0  0  0  0
   -0.2959    3.0746    2.4849 H   0  0  0  0  0  0  0  0  0  0  0  0
   -2.0355    2.9317    2.3821 H   0  0  0  0  0  0  0  0  0  0  0  0
   -1.3410    5.1357    2.9226 H   0  0  0  0  0  0  0  0  0  0  0  0
   -2.2770    4.5438    4.2804 H   0  0  0  0  0  0  0  0  0  0  0  0
    0.7527    4.6751    4.0172 H   0  0  0  0  0  0  0  0  0  0  0  0
    0.2124    6.6192    4.1413 H   0  0  0  0  0  0  0  0  0  0  0  0
   -0.3394    4.7945    6.6621 H   0  0  0  0  0  0  0  0  0  0  0  0
   -0.6831    0.9975    5.9183 H   0  0  0  0  0  0  0  0  0  0  0  0
    1.6107    1.2022    5.4211 H   0  0  0  0  0  0  0  0  0  0  0  0
    1.1428    3.1604    3.6470 H   0  0  0  0  0  0  0  0  0  0  0  0
    3.2826    3.8244    7.1640 H   0  0  0  0  0  0  0  0  0  0  0  0
    2.6551    5.0359    4.5210 H   0  0  0  0  0  0  0  0  0  0  0  0
    3.9095    5.5235    5.5936 H   0  0  0  0  0  0  0  0  0  0  0  0
    3.5258    2.9874    4.4972 H   0  0  0  0  0  0  0  0  0  0  0  0
    2.9679    5.6475    8.1897 H   0  0  0  0  0  0  0  0  0  0  0  0
    2.1188    6.3456    6.8364 H   0  0  0  0  0  0  0  0  0  0  0  0
   -0.1007    7.2125    9.2146 H   0  0  0  0  0  0  0  0  0  0  0  0
    1.1768    7.6540    8.1551 H   0  0  0  0  0  0  0  0  0  0  0  0
    1.5604    6.9856    9.7244 H   0  0  0  0  0  0  0  0  0  0  0  0
   -0.0420    5.0748    9.8564 H   0  0  0  0  0  0  0  0  0  0  0  0
    2.2584    4.7734   10.4607 H   0  0  0  0  0  0  0  0  0  0  0  0
    1.6373    3.0463   12.0319 H   0  0  0  0  0  0  0  0  0  0  0  0
   -0.5205    3.5695   12.5725 H   0  0  0  0  0  0  0  0  0  0  0  0
    0.3350    1.4720   11.3764 H   0  0  0  0  0  0  0  0  0  0  0  0
   -1.6988    2.0394   10.4896 H   0  0  0  0  0  0  0  0  0  0  0  0
    2.8225    3.4265    9.1540 H   0  0  0  0  0  0  0  0  0  0  0  0
    4.4857    2.6694    8.6527 H   0  0  0  0  0  0  0  0  0  0  0  0
    4.0750    1.1606    9.4031 H   0  0  0  0  0  0  0  0  0  0  0  0
    3.4627    1.7199    6.7039 H   0  0  0  0  0  0  0  0  0  0  0  0
    2.9251    0.3823    7.6448 H   0  0  0  0  0  0  0  0  0  0  0  0
    0.8418    1.1945    7.2913 H   0  0  0  0  0  0  0  0  0  0  0  0
   -2.2159    4.0789   10.5996 H   0  0  0  0  0  0  0  0  0  0  0  0
   -2.2619    7.4153    9.5719 H   0  0  0  0  0  0  0  0  0  0  0  0
   -1.1951    6.3850   10.4920 H   0  0  0  0  0  0  0  0  0  0  0  0
   -2.9082    6.4131   10.8536 H   0  0  0  0  0  0  0  0  0  0  0  0
   -3.7748    2.5435    9.7703 H   0  0  0  0  0  0  0  0  0  0  0  0
   -4.2811    3.8919    8.7911 H   0  0  0  0  0  0  0  0  0  0  0  0
   -2.8623    1.4081    7.9279 H   0  0  0  0  0  0  0  0  0  0  0  0
   -3.6807    2.6045    6.9151 H   0  0  0  0  0  0  0  0  0  0  0  0
   -2.0660    4.1161    7.2616 H   0  0  0  0  0  0  0  0  0  0  0  0
  1  2  1  0
  1 41  1  0
  1 42  1  0
  1 43  1  0
  2  3  1  0
  3 10  1  0
  3  4  1  0
  3 44  1  1
  4  5  1  0
  4 45  1  0
  4 46  1  0
  5  6  1  0
  5 47  1  0
  5 48  1  0
  6  7  1  0
  6  8  1  0
  6 49  1  6
  7 50  1  0
  8 13  1  0
  8  9  1  0
  8 51  1  1
  9 40  1  0
  9 10  1  0
 10 11  1  0
 10 52  1  1
 11 12  1  0
 11 13  1  0
 11 53  1  1
 12 54  1  0
 13 33  1  0
 13 14  1  6
 14 15  1  0
 14 17  1  0
 14 55  1  1
 15 16  1  0
 15 56  1  0
 15 57  1  0
 16 58  1  0
 17 18  1  0
 17 59  1  0
 17 60  1  0
 18 19  1  0
 18 20  1  0
 19 61  1  0
 19 62  1  0
 19 63  1  0
 20 34  1  0
 20 21  1  0
 20 64  1  1
 21 30  1  0
 21 22  1  0
 21 65  1  1
 22 23  1  0
 22 24  1  0
 22 66  1  1
 23 67  1  0
 24 29  1  0
 24 25  1  0
 24 68  1  1
 25 26  1  0
 25 34  1  0
 25 69  1  1
 26 27  1  0
 27 28  2  0
 29 27  1  6
 29 33  1  0
 29 30  1  0
 30 31  1  0
 30 70  1  1
 31 32  1  0
 31 71  1  0
 31 72  1  0
 32 33  1  0
 32 73  1  0
 32 74  1  0
 33 75  1  6
 34 40  1  0
 34 35  1  1
 35 36  1  0
 35 38  1  0
 35 76  1  1
 36 37  1  0
 37 77  1  0
 37 78  1  0
 37 79  1  0
 38 39  1  0
 38 80  1  0
 38 81  1  0
 39 40  1  0
 39 82  1  0
 39 83  1  0
 40 84  1  6
M  END
>  <i_m_ct_stereo_status>  (46) 
1

>  <s_m_source_file>  (46) 
/var/tmp/pbs.5076255.sched01/tmpokz5906q/0mijyat0o.sdf

>  <i_m_source_file_index>  (46) 
18

>  <i_lp_mmshare_version>  (46) 
48012

>  <i_f3d_flags>  (46) 
0

>  <s_epik_input>  (46) 
W09IXVtDQEBIXTFbQ0gyXVtDSDJdW0NAQEhdKE9bQ0gzXSlbQ0BASF0oW0NASF0yW09IXSlOKFtDQEhdMVtDQEBdMjM0KVtDQEBIXTVbQ0BdNihbQ0BASF0oT1tDSDNdKVtDSDJdW0NIMl01KVtDQEhdKE4oW0NIM10pW0NIMl1bQ0BASF0zW0NIMl1bT0hdKVtDQEBIXTdbQ0BASF04W0NAXTkoW0NAQEhdNFtDSDJdW0NIMl04KVtDQEBIXShbQ0BASF03W09IXSlbQ0BASF02T0M5PU8=

>  <s_epik_cmdline>  (46) 
J2VwaWtfcHl0aG9uJywgJy1waHQnLCAnMi4wJywgJy1waCcsICc3LjAnLCAnLXRuJywgJzgnLCAnLW1hJywgJzIwMCcsICctaW1hZScsICc8aW5maWxlLm1hZT4nLCAnLW9tYWUnLCAnPG91dGZpbGUubWFlPic=

>  <r_epik_Ionization_Penalty>  (46) 
2.84098

>  <r_epik_Ionization_Penalty_Charging>  (46) 
0

>  <r_epik_Ionization_Penalty_Neutral>  (46) 
2.84098

>  <r_epik_State_Penalty>  (46) 
2.07653

>  <r_epik_Charging_Adjusted_Penalty>  (46) 
2.07653

>  <i_epik_Tot_Q>  (46) 
0

>  <i_epik_Tot_abs_Q>  (46) 
0

>  <s_epik_Chemistry_Notes>  (46) 
This compound has an ester and may undergo hydrolysis at high or low pH.

>  <s_lp_Force_Field>  (46) 
OPLS3e

>  <r_lp_Energy>  (46) 
414.428

>  <b_lp_Chiralities_Consistent>  (46) 
1

>  <s_lp_Variant>  (46) 
9:0-4

>  <s_i_glide_gridfile>  (46) 
pfpi4k_grid

>  <i_i_glide_lignum>  (46) 
18

>  <i_i_glide_rotatable_bonds>  (46) 
7

>  <r_i_docking_score>  (46) 
-2.51041

>  <r_i_glide_ligand_efficiency>  (46) 
-0.0627602

>  <r_i_glide_ligand_efficiency_sa>  (46) 
-0.214637

>  <r_i_glide_ligand_efficiency_ln>  (46) 
-0.535396

>  <r_i_glide_gscore>  (46) 
-2.51041

>  <r_i_glide_lipo>  (46) 
-0.170879

>  <r_i_glide_hbond>  (46) 
-0.00773744

>  <r_i_glide_metal>  (46) 
-0

>  <r_i_glide_rewards>  (46) 
-0.5

>  <r_i_glide_evdw>  (46) 
-21.0073

>  <r_i_glide_ecoul>  (46) 
-5.57558

>  <r_i_glide_erotb>  (46) 
0.0661396

>  <r_i_glide_esite>  (46) 
-0.01123

>  <r_i_glide_emodel>  (46) 
-27.5461

>  <r_i_glide_energy>  (46) 
-26.5829

>  <r_i_glide_einternal>  (46) 
14.4829

>  <r_i_glide_intrahb_reward>  (46) 
-0.5

>  <i_i_glide_confnum>  (46) 
2

>  <i_i_glide_posenum>  (46) 
9

>  <r_i_glide_eff_state_penalty>  (46) 
0

>  <ligand_id>  (46) 
9

>  <original_smiles>  (46) 
COC1CCC(O)C2N3C1C(O)C21C(CO)CN(C)C2C4C(O)C5C(OC(=O)C56C4CCC61)C21C(OC)CCC31

>  <smiles>  (46) 
[H]OC([H])([H])C1([H])C([H])([H])N(C([H])([H])[H])C2([H])C3([H])C([H])(O[H])C4([H])C5([H])OC(=O)C46C3([H])C([H])([H])C([H])([H])C6([H])C13C([H])(O[H])C1([H])N(C4([H])C([H])([H])C([H])([H])C([H])(OC([H])([H])[H])C542)C3([H])C([H])(O[H])C([H])([H])C([H])([H])C1([H])OC([H])([H])[H]

$$$$
9:3:1
     RDKit          3D

 84 92  0  0  1  0  0  0  0  0999 V2000
   -3.9733    3.0868    2.5505 C   0  0  0  0  0  0  0  0  0  0  0  0
   -3.0944    2.5678    3.5435 O   0  0  0  0  0  0  0  0  0  0  0  0
   -2.1176    3.4440    4.1182 C   0  0  2  0  0  0  0  0  0  0  0  0
   -1.5765    4.4755    3.0898 C   0  0  0  0  0  0  0  0  0  0  0  0
   -0.2712    5.2259    3.4258 C   0  0  0  0  0  0  0  0  0  0  0  0
    0.9672    4.2969    3.4709 C   0  0  1  0  0  0  0  0  0  0  0  0
    2.1077    5.1181    3.3995 O   0  0  0  0  0  0  0  0  0  0  0  0
    1.0686    3.3450    4.7161 C   0  0  1  0  0  0  0  0  0  0  0  0
   -0.0726    3.4573    5.5100 N   0  0  0  0  0  0  0  0  0  0  0  0
   -1.0424    2.5788    4.8396 C   0  0  2  0  0  0  0  0  0  0  0  0
   -0.1844    1.6255    3.8933 C   0  0  1  0  0  0  0  0  0  0  0  0
   -0.3122    1.7902    2.4935 O   0  0  0  0  0  0  0  0  0  0  0  0
    1.2493    1.7617    4.5594 C   0  0  1  0  0  0  0  0  0  0  0  0
    2.6386    1.5306    3.8417 C   0  0  1  0  0  0  0  0  0  0  0  0
    2.7281    1.5847    2.2968 C   0  0  0  0  0  0  0  0  0  0  0  0
    2.0019    0.5477    1.6781 O   0  0  0  0  0  0  0  0  0  0  0  0
    3.8427    2.2627    4.5257 C   0  0  0  0  0  0  0  0  0  0  0  0
    3.7023    2.9822    5.8172 N   0  0  0  0  0  0  0  0  0  0  0  0
    4.9698    3.6670    6.1115 C   0  0  0  0  0  0  0  0  0  0  0  0
    3.0739    2.3517    6.9915 C   0  0  2  0  0  0  0  0  0  0  0  0
    3.7081    0.8779    7.2292 C   0  0  1  0  0  0  0  0  0  0  0  0
    3.4994    0.7016    8.6938 C   0  0  1  0  0  0  0  0  0  0  0  0
    4.0085    1.6309    9.6301 O   0  0  0  0  0  0  0  0  0  0  0  0
    1.9938    0.5719    8.5775 C   0  0  1  0  0  0  0  0  0  0  0  0
    1.0130    1.6579    8.6542 C   0  0  2  0  0  0  0  0  0  0  0  0
   -0.0910    0.7277    8.3970 O   0  0  0  0  0  0  0  0  0  0  0  0
    0.3544   -0.4445    7.8153 C   0  0  0  0  0  0  0  0  0  0  0  0
   -0.1569   -1.5555    7.7468 O   0  0  0  0  0  0  0  0  0  0  0  0
    1.6057    0.0649    7.1382 C   0  0  2  0  0  0  0  0  0  0  0  0
    2.9404   -0.4679    6.7795 C   0  0  2  0  0  0  0  0  0  0  0  0
    2.5767   -1.3731    5.5755 C   0  0  0  0  0  0  0  0  0  0  0  0
    1.2430   -0.8178    5.0043 C   0  0  0  0  0  0  0  0  0  0  0  0
    1.0005    0.5659    5.7014 C   0  0  2  0  0  0  0  0  0  0  0  0
    1.5573    2.7830    7.6615 C   0  0  1  0  0  0  0  0  0  0  0  0
    1.7722    3.9434    8.7109 C   0  0  1  0  0  0  0  0  0  0  0  0
    2.5275    5.0137    8.1364 O   0  0  0  0  0  0  0  0  0  0  0  0
    3.0352    5.9675    9.0562 C   0  0  0  0  0  0  0  0  0  0  0  0
    0.3371    4.4429    9.1063 C   0  0  0  0  0  0  0  0  0  0  0  0
   -0.6300    4.0047    7.9866 C   0  0  0  0  0  0  0  0  0  0  0  0
    0.3564    3.5477    6.9182 C   0  0  2  0  0  0  0  0  0  0  0  0
   -4.7053    2.3569    2.2310 H   0  0  0  0  0  0  0  0  0  0  0  0
   -3.4361    3.3283    1.6497 H   0  0  0  0  0  0  0  0  0  0  0  0
   -4.5254    3.9626    2.8785 H   0  0  0  0  0  0  0  0  0  0  0  0
   -2.6166    4.0040    4.9084 H   0  0  0  0  0  0  0  0  0  0  0  0
   -1.4186    3.9896    2.1257 H   0  0  0  0  0  0  0  0  0  0  0  0
   -2.3571    5.2055    2.8882 H   0  0  0  0  0  0  0  0  0  0  0  0
   -0.1362    5.9401    2.6158 H   0  0  0  0  0  0  0  0  0  0  0  0
   -0.3597    5.8285    4.3345 H   0  0  0  0  0  0  0  0  0  0  0  0
    1.0086    3.7664    2.5338 H   0  0  0  0  0  0  0  0  0  0  0  0
    2.0537    5.6085    2.5878 H   0  0  0  0  0  0  0  0  0  0  0  0
    1.8243    3.8869    5.2446 H   0  0  0  0  0  0  0  0  0  0  0  0
   -1.5611    1.9937    5.6015 H   0  0  0  0  0  0  0  0  0  0  0  0
   -0.6033    0.6199    3.9342 H   0  0  0  0  0  0  0  0  0  0  0  0
   -0.1429    2.6986    2.2545 H   0  0  0  0  0  0  0  0  0  0  0  0
    2.9528    0.5073    3.9497 H   0  0  0  0  0  0  0  0  0  0  0  0
    2.4808    2.5462    1.8556 H   0  0  0  0  0  0  0  0  0  0  0  0
    3.7531    1.3634    2.0071 H   0  0  0  0  0  0  0  0  0  0  0  0
    1.0806    0.7912    1.6454 H   0  0  0  0  0  0  0  0  0  0  0  0
    4.6789    1.5660    4.6013 H   0  0  0  0  0  0  0  0  0  0  0  0
    4.1546    3.0337    3.8255 H   0  0  0  0  0  0  0  0  0  0  0  0
    4.8590    4.3769    6.9353 H   0  0  0  0  0  0  0  0  0  0  0  0
    5.3048    4.2515    5.2565 H   0  0  0  0  0  0  0  0  0  0  0  0
    5.7575    2.9563    6.3733 H   0  0  0  0  0  0  0  0  0  0  0  0
    3.6473    2.9028    7.7267 H   0  0  0  0  0  0  0  0  0  0  0  0
    4.7876    0.8464    7.0240 H   0  0  0  0  0  0  0  0  0  0  0  0
    3.9282   -0.2583    8.9902 H   0  0  0  0  0  0  0  0  0  0  0  0
    3.6723    2.4963    9.4289 H   0  0  0  0  0  0  0  0  0  0  0  0
    1.8554   -0.0938    9.4471 H   0  0  0  0  0  0  0  0  0  0  0  0
    0.9349    2.0010    9.6900 H   0  0  0  0  0  0  0  0  0  0  0  0
    3.3898    0.0161    5.9278 H   0  0  0  0  0  0  0  0  0  0  0  0
    3.3537   -1.5186    4.8126 H   0  0  0  0  0  0  0  0  0  0  0  0
    2.3751   -2.3813    5.9467 H   0  0  0  0  0  0  0  0  0  0  0  0
    1.2390   -0.7922    3.9128 H   0  0  0  0  0  0  0  0  0  0  0  0
    0.4408   -1.5149    5.2528 H   0  0  0  0  0  0  0  0  0  0  0  0
   -0.0717    0.6050    5.8743 H   0  0  0  0  0  0  0  0  0  0  0  0
    2.3076    3.6021    9.5974 H   0  0  0  0  0  0  0  0  0  0  0  0
    3.5392    6.7538    8.4958 H   0  0  0  0  0  0  0  0  0  0  0  0
    3.7621    5.5151    9.7298 H   0  0  0  0  0  0  0  0  0  0  0  0
    2.2576    6.4443    9.6521 H   0  0  0  0  0  0  0  0  0  0  0  0
    0.0149    4.0092   10.0535 H   0  0  0  0  0  0  0  0  0  0  0  0
    0.2998    5.5254    9.2304 H   0  0  0  0  0  0  0  0  0  0  0  0
   -1.2868    3.1944    8.3073 H   0  0  0  0  0  0  0  0  0  0  0  0
   -1.2492    4.8292    7.6377 H   0  0  0  0  0  0  0  0  0  0  0  0
    0.8093    4.5302    6.7795 H   0  0  0  0  0  0  0  0  0  0  0  0
  1  2  1  0
  1 41  1  0
  1 42  1  0
  1 43  1  0
  2  3  1  0
  3 10  1  0
  3  4  1  0
  3 44  1  1
  4  5  1  0
  4 45  1  0
  4 46  1  0
  5  6  1  0
  5 47  1  0
  5 48  1  0
  6  7  1  0
  6  8  1  0
  6 49  1  6
  7 50  1  0
  8 13  1  0
  8  9  1  0
  8 51  1  1
  9 40  1  0
  9 10  1  0
 10 11  1  0
 10 52  1  1
 11 12  1  0
 11 13  1  0
 11 53  1  6
 12 54  1  0
 13 33  1  0
 13 14  1  6
 14 15  1  0
 14 17  1  0
 14 55  1  1
 15 16  1  0
 15 56  1  0
 15 57  1  0
 16 58  1  0
 17 18  1  0
 17 59  1  0
 17 60  1  0
 18 19  1  0
 18 20  1  0
 19 61  1  0
 19 62  1  0
 19 63  1  0
 20 34  1  0
 20 21  1  0
 20 64  1  1
 21 30  1  0
 21 22  1  0
 21 65  1  1
 22 23  1  0
 22 24  1  0
 22 66  1  1
 23 67  1  0
 24 29  1  0
 24 25  1  0
 24 68  1  1
 25 26  1  0
 25 34  1  0
 25 69  1  1
 26 27  1  0
 27 28  2  0
 29 27  1  1
 29 33  1  0
 29 30  1  0
 30 31  1  0
 30 70  1  1
 31 32  1  0
 31 71  1  0
 31 72  1  0
 32 33  1  0
 32 73  1  0
 32 74  1  0
 33 75  1  1
 34 40  1  0
 34 35  1  1
 35 36  1  0
 35 38  1  0
 35 76  1  1
 36 37  1  0
 37 77  1  0
 37 78  1  0
 37 79  1  0
 38 39  1  0
 38 80  1  0
 38 81  1  0
 39 40  1  0
 39 82  1  0
 39 83  1  0
 40 84  1  6
M  END
>  <i_m_ct_stereo_status>  (47) 
1

>  <s_m_source_file>  (47) 
/var/tmp/pbs.5076255.sched01/tmpokz5906q/0mijyat0o.sdf

>  <i_m_source_file_index>  (47) 
18

>  <i_lp_mmshare_version>  (47) 
48012

>  <i_f3d_flags>  (47) 
0

>  <s_epik_input>  (47) 
W09IXVtDQEBIXTFbQ0gyXVtDSDJdW0NAQEhdKE9bQ0gzXSlbQ0BASF0oW0NASF0yW09IXSlOKFtDQEhdMVtDQEBdMjM0KVtDQEBIXTVbQ0BdNihbQ0BASF0oT1tDSDNdKVtDSDJdW0NIMl01KVtDQEhdKE4oW0NIM10pW0NIMl1bQ0BASF0zW0NIMl1bT0hdKVtDQEBIXTdbQ0BASF04W0NAXTkoW0NAQEhdNFtDSDJdW0NIMl04KVtDQEBIXShbQ0BASF03W09IXSlbQ0BASF02T0M5PU8=

>  <s_epik_cmdline>  (47) 
J2VwaWtfcHl0aG9uJywgJy1waHQnLCAnMi4wJywgJy1waCcsICc3LjAnLCAnLXRuJywgJzgnLCAnLW1hJywgJzIwMCcsICctaW1hZScsICc8aW5maWxlLm1hZT4nLCAnLW9tYWUnLCAnPG91dGZpbGUubWFlPic=

>  <r_epik_Ionization_Penalty>  (47) 
2.84098

>  <r_epik_Ionization_Penalty_Charging>  (47) 
0

>  <r_epik_Ionization_Penalty_Neutral>  (47) 
2.84098

>  <r_epik_State_Penalty>  (47) 
2.07653

>  <r_epik_Charging_Adjusted_Penalty>  (47) 
2.07653

>  <i_epik_Tot_Q>  (47) 
0

>  <i_epik_Tot_abs_Q>  (47) 
0

>  <s_epik_Chemistry_Notes>  (47) 
This compound has an ester and may undergo hydrolysis at high or low pH.

>  <s_lp_Force_Field>  (47) 
OPLS3e

>  <r_lp_Energy>  (47) 
414.428

>  <b_lp_Chiralities_Consistent>  (47) 
1

>  <s_lp_Variant>  (47) 
9:0-4

>  <s_i_glide_gridfile>  (47) 
pfpi4k_grid

>  <i_i_glide_lignum>  (47) 
18

>  <i_i_glide_rotatable_bonds>  (47) 
7

>  <r_i_docking_score>  (47) 
-1.89644

>  <r_i_glide_ligand_efficiency>  (47) 
-0.047411

>  <r_i_glide_ligand_efficiency_sa>  (47) 
-0.162143

>  <r_i_glide_ligand_efficiency_ln>  (47) 
-0.404454

>  <r_i_glide_gscore>  (47) 
-1.89644

>  <r_i_glide_lipo>  (47) 
-0.0241554

>  <r_i_glide_hbond>  (47) 
-0.0622766

>  <r_i_glide_metal>  (47) 
-0

>  <r_i_glide_rewards>  (47) 
-0.5

>  <r_i_glide_evdw>  (47) 
-16.8337

>  <r_i_glide_ecoul>  (47) 
-3.30949

>  <r_i_glide_erotb>  (47) 
0.0661396

>  <r_i_glide_esite>  (47) 
-0.0380385

>  <r_i_glide_emodel>  (47) 
-25.8043

>  <r_i_glide_energy>  (47) 
-20.1432

>  <r_i_glide_einternal>  (47) 
5.80961

>  <r_i_glide_intrahb_reward>  (47) 
-0.5

>  <i_i_glide_confnum>  (47) 
2

>  <i_i_glide_posenum>  (47) 
16

>  <r_i_glide_eff_state_penalty>  (47) 
0

>  <ligand_id>  (47) 
9

>  <original_smiles>  (47) 
COC1CCC(O)C2N3C1C(O)C21C(CO)CN(C)C2C4C(O)C5C(OC(=O)C56C4CCC61)C21C(OC)CCC31

>  <smiles>  (47) 
[H]OC([H])([H])C1([H])C([H])([H])N(C([H])([H])[H])C2([H])C3([H])C([H])(O[H])C4([H])C5([H])OC(=O)C46C3([H])C([H])([H])C([H])([H])C6([H])C13C([H])(O[H])C1([H])N(C4([H])C([H])([H])C([H])([H])C([H])(OC([H])([H])[H])C542)C3([H])C([H])(O[H])C([H])([H])C([H])([H])C1([H])OC([H])([H])[H]

$$$$
9:3:2
     RDKit          3D

 84 92  0  0  1  0  0  0  0  0999 V2000
   -1.3375    1.2950    2.0812 C   0  0  0  0  0  0  0  0  0  0  0  0
   -0.5518    0.6633    3.0859 O   0  0  0  0  0  0  0  0  0  0  0  0
    0.0183    1.5494    4.0503 C   0  0  2  0  0  0  0  0  0  0  0  0
    0.8599    2.6765    3.3764 C   0  0  0  0  0  0  0  0  0  0  0  0
    1.8592    3.4436    4.2649 C   0  0  0  0  0  0  0  0  0  0  0  0
    3.0202    2.5662    4.7868 C   0  0  1  0  0  0  0  0  0  0  0  0
    4.0155    3.4440    5.2756 O   0  0  0  0  0  0  0  0  0  0  0  0
    2.6514    1.5335    5.9247 C   0  0  1  0  0  0  0  0  0  0  0  0
    1.2833    1.5462    6.1729 N   0  0  0  0  0  0  0  0  0  0  0  0
    0.7485    0.6831    5.1156 C   0  0  2  0  0  0  0  0  0  0  0  0
    1.9845   -0.1763    4.5767 C   0  0  1  0  0  0  0  0  0  0  0  0
    2.4671    0.0940    3.2751 O   0  0  0  0  0  0  0  0  0  0  0  0
    2.9927   -0.0275    5.7919 C   0  0  1  0  0  0  0  0  0  0  0  0
    4.5726   -0.1408    5.7312 C   0  0  1  0  0  0  0  0  0  0  0  0
    5.3098    0.0454    4.3791 C   0  0  0  0  0  0  0  0  0  0  0  0
    5.0509   -1.0499    3.5260 O   0  0  0  0  0  0  0  0  0  0  0  0
    5.3262    0.5784    6.8999 C   0  0  0  0  0  0  0  0  0  0  0  0
    4.5987    1.1957    8.0345 N   0  0  0  0  0  0  0  0  0  0  0  0
    5.5764    1.8949    8.8770 C   0  0  0  0  0  0  0  0  0  0  0  0
    3.5698    0.4537    8.8010 C   0  0  2  0  0  0  0  0  0  0  0  0
    4.1313   -1.0156    9.2075 C   0  0  1  0  0  0  0  0  0  0  0  0
    3.3311   -1.3132   10.4297 C   0  0  1  0  0  0  0  0  0  0  0  0
    3.3135   -0.4179   11.5269 O   0  0  0  0  0  0  0  0  0  0  0  0
    2.0315   -1.4853    9.6765 C   0  0  1  0  0  0  0  0  0  0  0  0
    1.0501   -0.4343    9.3893 C   0  0  2  0  0  0  0  0  0  0  0  0
    0.2138   -1.3680    8.6373 O   0  0  0  0  0  0  0  0  0  0  0  0
    0.9226   -2.4802    8.2380 C   0  0  0  0  0  0  0  0  0  0  0  0
    0.5382   -3.6062    7.9201 O   0  0  0  0  0  0  0  0  0  0  0  0
    2.3205   -1.8948    8.1831 C   0  0  2  0  0  0  0  0  0  0  0  0
    3.7110   -2.3498    8.4028 C   0  0  2  0  0  0  0  0  0  0  0  0
    3.9538   -3.1744    7.1119 C   0  0  0  0  0  0  0  0  0  0  0  0
    2.9561   -2.6260    6.0573 C   0  0  0  0  0  0  0  0  0  0  0  0
    2.3538   -1.3076    6.6563 C   0  0  2  0  0  0  0  0  0  0  0  0
    1.8950    0.7818    8.7819 C   0  0  1  0  0  0  0  0  0  0  0  0
    1.5676    1.8669    9.8823 C   0  0  1  0  0  0  0  0  0  0  0  0
    2.4185    3.0073    9.7336 O   0  0  0  0  0  0  0  0  0  0  0  0
    2.4476    3.8883   10.8455 C   0  0  0  0  0  0  0  0  0  0  0  0
    0.0709    2.2812    9.6549 C   0  0  0  0  0  0  0  0  0  0  0  0
   -0.2996    1.8953    8.2068 C   0  0  0  0  0  0  0  0  0  0  0  0
    1.0696    1.5508    7.6382 C   0  0  2  0  0  0  0  0  0  0  0  0
   -1.7931    0.5458    1.4351 H   0  0  0  0  0  0  0  0  0  0  0  0
   -0.7122    1.9216    1.4454 H   0  0  0  0  0  0  0  0  0  0  0  0
   -2.1394    1.9007    2.5095 H   0  0  0  0  0  0  0  0  0  0  0  0
   -0.8093    2.0383    4.5676 H   0  0  0  0  0  0  0  0  0  0  0  0
    1.3968    2.2879    2.5117 H   0  0  0  0  0  0  0  0  0  0  0  0
    0.1684    3.4135    2.9647 H   0  0  0  0  0  0  0  0  0  0  0  0
    2.2789    4.2241    3.6319 H   0  0  0  0  0  0  0  0  0  0  0  0
    1.3475    3.9665    5.0765 H   0  0  0  0  0  0  0  0  0  0  0  0
    3.4600    2.1304    3.9036 H   0  0  0  0  0  0  0  0  0  0  0  0
    4.2048    4.0842    4.6059 H   0  0  0  0  0  0  0  0  0  0  0  0
    3.0813    2.0584    6.7493 H   0  0  0  0  0  0  0  0  0  0  0  0
   -0.0105    0.0318    5.5483 H   0  0  0  0  0  0  0  0  0  0  0  0
    1.6364   -1.1918    4.3812 H   0  0  0  0  0  0  0  0  0  0  0  0
    1.7290    0.0944    2.6811 H   0  0  0  0  0  0  0  0  0  0  0  0
    4.8739   -1.1568    5.9187 H   0  0  0  0  0  0  0  0  0  0  0  0
    5.0813    0.9585    3.8456 H   0  0  0  0  0  0  0  0  0  0  0  0
    6.3864    0.0797    4.5546 H   0  0  0  0  0  0  0  0  0  0  0  0
    4.1367   -0.9997    3.2680 H   0  0  0  0  0  0  0  0  0  0  0  0
    6.0858   -0.0982    7.2957 H   0  0  0  0  0  0  0  0  0  0  0  0
    5.8806    1.3968    6.4405 H   0  0  0  0  0  0  0  0  0  0  0  0
    5.0843    2.5412    9.6087 H   0  0  0  0  0  0  0  0  0  0  0  0
    6.2138    2.5411    8.2709 H   0  0  0  0  0  0  0  0  0  0  0  0
    6.2170    1.1927    9.4171 H   0  0  0  0  0  0  0  0  0  0  0  0
    3.7449    0.9658    9.7406 H   0  0  0  0  0  0  0  0  0  0  0  0
    5.1939   -0.9931    9.4856 H   0  0  0  0  0  0  0  0  0  0  0  0
    3.6610   -2.2716   10.8380 H   0  0  0  0  0  0  0  0  0  0  0  0
    2.7656   -0.7788   12.2070 H   0  0  0  0  0  0  0  0  0  0  0  0
    1.5785   -2.2182   10.3687 H   0  0  0  0  0  0  0  0  0  0  0  0
    0.5234   -0.1716   10.3100 H   0  0  0  0  0  0  0  0  0  0  0  0
    4.4495   -1.7867    7.8547 H   0  0  0  0  0  0  0  0  0  0  0  0
    4.9882   -3.2335    6.7480 H   0  0  0  0  0  0  0  0  0  0  0  0
    3.6795   -4.2137    7.3088 H   0  0  0  0  0  0  0  0  0  0  0  0
    3.4148   -2.5184    5.0730 H   0  0  0  0  0  0  0  0  0  0  0  0
    2.1678   -3.3651    5.9050 H   0  0  0  0  0  0  0  0  0  0  0  0
    1.3093   -1.3162    6.3598 H   0  0  0  0  0  0  0  0  0  0  0  0
    1.7040    1.4784   10.8925 H   0  0  0  0  0  0  0  0  0  0  0  0
    3.0889    4.7334   10.5994 H   0  0  0  0  0  0  0  0  0  0  0  0
    2.8612    3.3973   11.7259 H   0  0  0  0  0  0  0  0  0  0  0  0
    1.4655    4.2879   11.0974 H   0  0  0  0  0  0  0  0  0  0  0  0
   -0.5947    1.7712   10.3536 H   0  0  0  0  0  0  0  0  0  0  0  0
   -0.0795    3.3501    9.8088 H   0  0  0  0  0  0  0  0  0  0  0  0
   -0.9805    1.0443    8.1723 H   0  0  0  0  0  0  0  0  0  0  0  0
   -0.7629    2.7243    7.6715 H   0  0  0  0  0  0  0  0  0  0  0  0
    1.4769    2.5564    7.7474 H   0  0  0  0  0  0  0  0  0  0  0  0
  1  2  1  0
  1 41  1  0
  1 42  1  0
  1 43  1  0
  2  3  1  0
  3 10  1  0
  3  4  1  0
  3 44  1  1
  4  5  1  0
  4 45  1  0
  4 46  1  0
  5  6  1  0
  5 47  1  0
  5 48  1  0
  6  7  1  0
  6  8  1  0
  6 49  1  6
  7 50  1  0
  8 13  1  0
  8  9  1  0
  8 51  1  1
  9 40  1  0
  9 10  1  0
 10 11  1  0
 10 52  1  1
 11 12  1  0
 11 13  1  0
 11 53  1  6
 12 54  1  0
 13 33  1  0
 13 14  1  6
 14 15  1  0
 14 17  1  0
 14 55  1  1
 15 16  1  0
 15 56  1  0
 15 57  1  0
 16 58  1  0
 17 18  1  0
 17 59  1  0
 17 60  1  0
 18 19  1  0
 18 20  1  0
 19 61  1  0
 19 62  1  0
 19 63  1  0
 20 34  1  0
 20 21  1  0
 20 64  1  1
 21 30  1  0
 21 22  1  0
 21 65  1  1
 22 23  1  0
 22 24  1  0
 22 66  1  1
 23 67  1  0
 24 29  1  0
 24 25  1  0
 24 68  1  1
 25 26  1  0
 25 34  1  0
 25 69  1  1
 26 27  1  0
 27 28  2  0
 29 27  1  6
 29 33  1  0
 29 30  1  0
 30 31  1  0
 30 70  1  1
 31 32  1  0
 31 71  1  0
 31 72  1  0
 32 33  1  0
 32 73  1  0
 32 74  1  0
 33 75  1  6
 34 40  1  0
 34 35  1  1
 35 36  1  0
 35 38  1  0
 35 76  1  1
 36 37  1  0
 37 77  1  0
 37 78  1  0
 37 79  1  0
 38 39  1  0
 38 80  1  0
 38 81  1  0
 39 40  1  0
 39 82  1  0
 39 83  1  0
 40 84  1  1
M  END
>  <i_m_ct_stereo_status>  (48) 
1

>  <s_m_source_file>  (48) 
/var/tmp/pbs.5076255.sched01/tmpokz5906q/0mijyat0o.sdf

>  <i_m_source_file_index>  (48) 
18

>  <i_lp_mmshare_version>  (48) 
48012

>  <i_f3d_flags>  (48) 
0

>  <s_epik_input>  (48) 
W09IXVtDQEBIXTFbQ0gyXVtDSDJdW0NAQEhdKE9bQ0gzXSlbQ0BASF0oW0NASF0yW09IXSlOKFtDQEhdMVtDQEBdMjM0KVtDQEBIXTVbQ0BdNihbQ0BASF0oT1tDSDNdKVtDSDJdW0NIMl01KVtDQEhdKE4oW0NIM10pW0NIMl1bQ0BASF0zW0NIMl1bT0hdKVtDQEBIXTdbQ0BASF04W0NAXTkoW0NAQEhdNFtDSDJdW0NIMl04KVtDQEBIXShbQ0BASF03W09IXSlbQ0BASF02T0M5PU8=

>  <s_epik_cmdline>  (48) 
J2VwaWtfcHl0aG9uJywgJy1waHQnLCAnMi4wJywgJy1waCcsICc3LjAnLCAnLXRuJywgJzgnLCAnLW1hJywgJzIwMCcsICctaW1hZScsICc8aW5maWxlLm1hZT4nLCAnLW9tYWUnLCAnPG91dGZpbGUubWFlPic=

>  <r_epik_Ionization_Penalty>  (48) 
2.84098

>  <r_epik_Ionization_Penalty_Charging>  (48) 
0

>  <r_epik_Ionization_Penalty_Neutral>  (48) 
2.84098

>  <r_epik_State_Penalty>  (48) 
2.07653

>  <r_epik_Charging_Adjusted_Penalty>  (48) 
2.07653

>  <i_epik_Tot_Q>  (48) 
0

>  <i_epik_Tot_abs_Q>  (48) 
0

>  <s_epik_Chemistry_Notes>  (48) 
This compound has an ester and may undergo hydrolysis at high or low pH.

>  <s_lp_Force_Field>  (48) 
OPLS3e

>  <r_lp_Energy>  (48) 
414.428

>  <b_lp_Chiralities_Consistent>  (48) 
1

>  <s_lp_Variant>  (48) 
9:0-4

>  <s_i_glide_gridfile>  (48) 
pfpi4k_grid

>  <i_i_glide_lignum>  (48) 
18

>  <i_i_glide_rotatable_bonds>  (48) 
7

>  <r_i_docking_score>  (48) 
-1.77003

>  <r_i_glide_ligand_efficiency>  (48) 
-0.0442508

>  <r_i_glide_ligand_efficiency_sa>  (48) 
-0.151336

>  <r_i_glide_ligand_efficiency_ln>  (48) 
-0.377496

>  <r_i_glide_gscore>  (48) 
-1.77003

>  <r_i_glide_lipo>  (48) 
-0.109957

>  <r_i_glide_hbond>  (48) 
-0.0805319

>  <r_i_glide_metal>  (48) 
-0

>  <r_i_glide_rewards>  (48) 
-0.5

>  <r_i_glide_evdw>  (48) 
-15.9288

>  <r_i_glide_ecoul>  (48) 
-2.2006

>  <r_i_glide_erotb>  (48) 
0.0661396

>  <r_i_glide_esite>  (48) 
-0.0191538

>  <r_i_glide_emodel>  (48) 
-25.9746

>  <r_i_glide_energy>  (48) 
-18.1294

>  <r_i_glide_einternal>  (48) 
1.88914

>  <r_i_glide_intrahb_reward>  (48) 
-0.5

>  <i_i_glide_confnum>  (48) 
2

>  <i_i_glide_posenum>  (48) 
40

>  <r_i_glide_eff_state_penalty>  (48) 
0

>  <ligand_id>  (48) 
9

>  <original_smiles>  (48) 
COC1CCC(O)C2N3C1C(O)C21C(CO)CN(C)C2C4C(O)C5C(OC(=O)C56C4CCC61)C21C(OC)CCC31

>  <smiles>  (48) 
[H]OC([H])([H])C1([H])C([H])([H])N(C([H])([H])[H])C2([H])C3([H])C([H])(O[H])C4([H])C5([H])OC(=O)C46C3([H])C([H])([H])C([H])([H])C6([H])C13C([H])(O[H])C1([H])N(C4([H])C([H])([H])C([H])([H])C([H])(OC([H])([H])[H])C542)C3([H])C([H])(O[H])C([H])([H])C([H])([H])C1([H])OC([H])([H])[H]

$$$$
10:0:0
     RDKit          3D

 42 44  0  0  1  0  0  0  0  0999 V2000
    5.1259   -0.3429    1.9972 O   0  0  0  0  0  0  0  0  0  0  0  0
    3.9595   -0.4022    1.5630 C   0  0  0  0  0  0  0  0  0  0  0  0
    3.6233   -1.2852    0.3353 C   0  0  0  0  0  0  0  0  0  0  0  0
    4.7982   -1.8916   -0.2996 N   0  0  0  0  0  0  0  0  0  0  0  0
    5.1314   -1.5694   -1.5803 N   0  0  0  0  0  0  0  0  0  0  0  0
    6.1781   -2.2755   -1.8895 N   0  0  0  0  0  0  0  0  0  0  0  0
    6.5979   -3.0561   -0.8379 N   0  0  0  0  0  0  0  0  0  0  0  0
    5.6981   -2.8173    0.1120 C   0  0  0  0  0  0  0  0  0  0  0  0
    5.7239   -3.5307    1.4476 C   0  0  0  0  0  0  0  0  0  0  0  0
    4.8032   -4.6687    1.6000 N   0  0  0  0  0  0  0  0  0  0  0  0
    4.9776   -5.6432    0.5191 C   0  0  0  0  0  0  0  0  0  0  0  0
    4.0866   -6.8637    0.7879 C   0  0  0  0  0  0  0  0  0  0  0  0
    2.6056   -6.4680    0.9153 C   0  0  0  0  0  0  0  0  0  0  0  0
    2.4638   -5.3923    1.9972 C   0  0  0  0  0  0  0  0  0  0  0  0
    3.4060   -4.2415    1.6356 C   0  0  0  0  0  0  0  0  0  0  0  0
    2.9506    0.2245    2.1718 N   0  0  0  0  0  0  0  0  0  0  0  0
    3.0809    0.9407    3.4332 C   0  0  0  0  0  0  0  0  0  0  0  0
    1.6606    1.3151    3.8501 C   0  0  0  0  0  0  0  0  0  0  0  0
    0.8773    1.3293    2.5482 C   0  0  0  0  0  0  0  0  0  0  0  0
    1.5662    0.2741    1.6849 C   0  0  0  0  0  0  0  0  0  0  0  0
    2.9233   -2.0382    0.6692 H   0  0  0  0  0  0  0  0  0  0  0  0
    3.0722   -0.7019   -0.4402 H   0  0  0  0  0  0  0  0  0  0  0  0
    6.7424   -3.8872    1.6042 H   0  0  0  0  0  0  0  0  0  0  0  0
    5.5409   -2.8007    2.2357 H   0  0  0  0  0  0  0  0  0  0  0  0
    4.7016   -5.1980   -0.4371 H   0  0  0  0  0  0  0  0  0  0  0  0
    6.0263   -5.9343    0.4546 H   0  0  0  0  0  0  0  0  0  0  0  0
    4.2165   -7.5867   -0.0157 H   0  0  0  0  0  0  0  0  0  0  0  0
    4.4109   -7.3411    1.7114 H   0  0  0  0  0  0  0  0  0  0  0  0
    2.2415   -6.0901   -0.0485 H   0  0  0  0  0  0  0  0  0  0  0  0
    1.9947   -7.3347    1.1702 H   0  0  0  0  0  0  0  0  0  0  0  0
    1.4454   -5.0096    2.0058 H   0  0  0  0  0  0  0  0  0  0  0  0
    2.6705   -5.7849    2.9970 H   0  0  0  0  0  0  0  0  0  0  0  0
    3.2800   -3.4447    2.3638 H   0  0  0  0  0  0  0  0  0  0  0  0
    3.1293   -3.8657    0.6602 H   0  0  0  0  0  0  0  0  0  0  0  0
    3.5900    0.3458    4.1979 H   0  0  0  0  0  0  0  0  0  0  0  0
    3.6768    1.8332    3.2510 H   0  0  0  0  0  0  0  0  0  0  0  0
    1.2625    0.5471    4.5105 H   0  0  0  0  0  0  0  0  0  0  0  0
    1.6248    2.2666    4.3744 H   0  0  0  0  0  0  0  0  0  0  0  0
   -0.1833    1.1308    2.6882 H   0  0  0  0  0  0  0  0  0  0  0  0
    0.9721    2.3065    2.0741 H   0  0  0  0  0  0  0  0  0  0  0  0
    1.5196    0.5489    0.6335 H   0  0  0  0  0  0  0  0  0  0  0  0
    1.0787   -0.6986    1.7985 H   0  0  0  0  0  0  0  0  0  0  0  0
  1  2  2  0
  2  3  1  0
  2 16  1  0
  3  4  1  0
  3 21  1  0
  3 22  1  0
  4  8  1  0
  4  5  1  0
  5  6  2  0
  6  7  1  0
  7  8  2  0
  8  9  1  0
  9 10  1  0
  9 23  1  0
  9 24  1  0
 10 15  1  0
 10 11  1  0
 11 12  1  0
 11 25  1  0
 11 26  1  0
 12 13  1  0
 12 27  1  0
 12 28  1  0
 13 14  1  0
 13 29  1  0
 13 30  1  0
 14 15  1  0
 14 31  1  0
 14 32  1  0
 15 33  1  0
 15 34  1  0
 16 20  1  0
 16 17  1  0
 17 18  1  0
 17 35  1  0
 17 36  1  0
 18 19  1  0
 18 37  1  0
 18 38  1  0
 19 20  1  0
 19 39  1  0
 19 40  1  0
 20 41  1  0
 20 42  1  0
M  END
>  <i_m_ct_stereo_status>  (49) 
1

>  <s_m_source_file>  (49) 
/var/tmp/pbs.5076255.sched01/tmpokz5906q/0mijyat0o.sdf

>  <i_m_source_file_index>  (49) 
19

>  <i_lp_mmshare_version>  (49) 
48012

>  <i_f3d_flags>  (49) 
0

>  <s_epik_input>  (49) 
W0NIMl0xW0NIMl1bQ0gyXVtDSDJdTjFDKD1PKVtDSDJdbjJubm5jMltDSDJdTjNbQ0gyXVtDSDJdW0NIMl1bQ0gyXVtDSDJdMw==

>  <s_epik_cmdline>  (49) 
J2VwaWtfcHl0aG9uJywgJy1waHQnLCAnMi4wJywgJy1waCcsICc3LjAnLCAnLXRuJywgJzgnLCAnLW1hJywgJzIwMCcsICctaW1hZScsICc8aW5maWxlLm1hZT4nLCAnLW9tYWUnLCAnPG91dGZpbGUubWFlPic=

>  <r_lp_tautomer_probability>  (49) 
1

>  <r_epik_Ionization_Penalty>  (49) 
0.378842

>  <r_epik_Ionization_Penalty_Charging>  (49) 
0

>  <r_epik_Ionization_Penalty_Neutral>  (49) 
0.378842

>  <r_epik_State_Penalty>  (49) 
0.376771

>  <r_epik_Charging_Adjusted_Penalty>  (49) 
0.376771

>  <i_epik_Tot_Q>  (49) 
0

>  <i_epik_Tot_abs_Q>  (49) 
0

>  <s_lp_Force_Field>  (49) 
OPLS3e

>  <r_lp_Energy>  (49) 
11.168

>  <b_lp_Chiralities_Consistent>  (49) 
1

>  <s_lp_Variant>  (49) 
10:0-1

>  <s_i_glide_gridfile>  (49) 
pfpi4k_grid

>  <i_i_glide_lignum>  (49) 
19

>  <i_i_glide_rotatable_bonds>  (49) 
5

>  <r_i_docking_score>  (49) 
-2.67978

>  <r_i_glide_ligand_efficiency>  (49) 
-0.133989

>  <r_i_glide_ligand_efficiency_sa>  (49) 
-0.363702

>  <r_i_glide_ligand_efficiency_ln>  (49) 
-0.670661

>  <r_i_glide_gscore>  (49) 
-2.67978

>  <r_i_glide_lipo>  (49) 
-0.306884

>  <r_i_glide_hbond>  (49) 
-0.0891647

>  <r_i_glide_metal>  (49) 
-0

>  <r_i_glide_rewards>  (49) 
-1.68387

>  <r_i_glide_evdw>  (49) 
-22.5232

>  <r_i_glide_ecoul>  (49) 
-3.55132

>  <r_i_glide_erotb>  (49) 
1.16317

>  <r_i_glide_esite>  (49) 
-0.104174

>  <r_i_glide_emodel>  (49) 
-27.8156

>  <r_i_glide_energy>  (49) 
-26.0745

>  <r_i_glide_einternal>  (49) 
3.33628

>  <r_i_glide_intrahb_reward>  (49) 
-0

>  <i_i_glide_confnum>  (49) 
4

>  <i_i_glide_posenum>  (49) 
17

>  <r_i_glide_eff_state_penalty>  (49) 
0

>  <ligand_id>  (49) 
10

>  <original_smiles>  (49) 
O=C(Cn1nnnc1CN1CCCCC1)N1CCCC1

>  <smiles>  (49) 
[H]C([H])(c1nnnn1C([H])([H])C(=O)N1C([H])([H])C([H])([H])C([H])([H])C1([H])[H])N1C([H])([H])C([H])([H])C([H])([H])C([H])([H])C1([H])[H]

$$$$
10:0:1
     RDKit          3D

 42 44  0  0  1  0  0  0  0  0999 V2000
    5.4124   -1.8214    2.7398 O   0  0  0  0  0  0  0  0  0  0  0  0
    4.8425   -1.0835    1.9343 C   0  0  0  0  0  0  0  0  0  0  0  0
    5.4862   -0.8118    0.5640 C   0  0  0  0  0  0  0  0  0  0  0  0
    6.5182   -1.7748    0.2107 N   0  0  0  0  0  0  0  0  0  0  0  0
    7.8240   -1.5189    0.4764 N   0  0  0  0  0  0  0  0  0  0  0  0
    8.5110   -2.5204    0.0042 N   0  0  0  0  0  0  0  0  0  0  0  0
    7.6875   -3.4486   -0.5879 N   0  0  0  0  0  0  0  0  0  0  0  0
    6.4730   -2.9502   -0.4374 C   0  0  0  0  0  0  0  0  0  0  0  0
    5.2158   -3.5832   -0.9597 C   0  0  0  0  0  0  0  0  0  0  0  0
    4.4316   -2.7146   -1.8352 N   0  0  0  0  0  0  0  0  0  0  0  0
    3.2025   -3.3851   -2.2504 C   0  0  0  0  0  0  0  0  0  0  0  0
    2.3173   -2.3939   -3.0072 C   0  0  0  0  0  0  0  0  0  0  0  0
    3.0242   -1.8328   -4.2354 C   0  0  0  0  0  0  0  0  0  0  0  0
    4.3740   -1.2624   -3.8138 C   0  0  0  0  0  0  0  0  0  0  0  0
    5.1758   -2.3122   -3.0271 C   0  0  0  0  0  0  0  0  0  0  0  0
    3.6626   -0.4944    2.2124 N   0  0  0  0  0  0  0  0  0  0  0  0
    2.9258   -0.7087    3.4549 C   0  0  0  0  0  0  0  0  0  0  0  0
    1.5497   -0.0865    3.2279 C   0  0  0  0  0  0  0  0  0  0  0  0
    1.7884    0.9752    2.1651 C   0  0  0  0  0  0  0  0  0  0  0  0
    2.9362    0.4129    1.3283 C   0  0  0  0  0  0  0  0  0  0  0  0
    4.7293   -0.8019   -0.2167 H   0  0  0  0  0  0  0  0  0  0  0  0
    5.9298    0.1817    0.5534 H   0  0  0  0  0  0  0  0  0  0  0  0
    5.4768   -4.5120   -1.4771 H   0  0  0  0  0  0  0  0  0  0  0  0
    4.6043   -3.8474   -0.0944 H   0  0  0  0  0  0  0  0  0  0  0  0
    3.4478   -4.2231   -2.9006 H   0  0  0  0  0  0  0  0  0  0  0  0
    2.6585   -3.7544   -1.3789 H   0  0  0  0  0  0  0  0  0  0  0  0
    1.3841   -2.8703   -3.3053 H   0  0  0  0  0  0  0  0  0  0  0  0
    2.1020   -1.5727   -2.3313 H   0  0  0  0  0  0  0  0  0  0  0  0
    3.1721   -2.6412   -4.9480 H   0  0  0  0  0  0  0  0  0  0  0  0
    2.4178   -1.0594   -4.7123 H   0  0  0  0  0  0  0  0  0  0  0  0
    4.9204   -0.9410   -4.6977 H   0  0  0  0  0  0  0  0  0  0  0  0
    4.2334   -0.3737   -3.1941 H   0  0  0  0  0  0  0  0  0  0  0  0
    6.1064   -1.8580   -2.7129 H   0  0  0  0  0  0  0  0  0  0  0  0
    5.4209   -3.1826   -3.6411 H   0  0  0  0  0  0  0  0  0  0  0  0
    2.8526   -1.7688    3.7021 H   0  0  0  0  0  0  0  0  0  0  0  0
    3.4536   -0.2041    4.2649 H   0  0  0  0  0  0  0  0  0  0  0  0
    0.8647   -0.8405    2.8401 H   0  0  0  0  0  0  0  0  0  0  0  0
    1.1199    0.3198    4.1417 H   0  0  0  0  0  0  0  0  0  0  0  0
    0.8996    1.1861    1.5708 H   0  0  0  0  0  0  0  0  0  0  0  0
    2.1009    1.9052    2.6415 H   0  0  0  0  0  0  0  0  0  0  0  0
    3.5835    1.2082    0.9586 H   0  0  0  0  0  0  0  0  0  0  0  0
    2.5510   -0.1545    0.4811 H   0  0  0  0  0  0  0  0  0  0  0  0
  1  2  2  0
  2  3  1  0
  2 16  1  0
  3  4  1  0
  3 21  1  0
  3 22  1  0
  4  8  1  0
  4  5  1  0
  5  6  2  0
  6  7  1  0
  7  8  2  0
  8  9  1  0
  9 10  1  0
  9 23  1  0
  9 24  1  0
 10 15  1  0
 10 11  1  0
 11 12  1  0
 11 25  1  0
 11 26  1  0
 12 13  1  0
 12 27  1  0
 12 28  1  0
 13 14  1  0
 13 29  1  0
 13 30  1  0
 14 15  1  0
 14 31  1  0
 14 32  1  0
 15 33  1  0
 15 34  1  0
 16 20  1  0
 16 17  1  0
 17 18  1  0
 17 35  1  0
 17 36  1  0
 18 19  1  0
 18 37  1  0
 18 38  1  0
 19 20  1  0
 19 39  1  0
 19 40  1  0
 20 41  1  0
 20 42  1  0
M  END
>  <i_m_ct_stereo_status>  (50) 
1

>  <s_m_source_file>  (50) 
/var/tmp/pbs.5076255.sched01/tmpokz5906q/0mijyat0o.sdf

>  <i_m_source_file_index>  (50) 
19

>  <i_lp_mmshare_version>  (50) 
48012

>  <i_f3d_flags>  (50) 
0

>  <s_epik_input>  (50) 
W0NIMl0xW0NIMl1bQ0gyXVtDSDJdTjFDKD1PKVtDSDJdbjJubm5jMltDSDJdTjNbQ0gyXVtDSDJdW0NIMl1bQ0gyXVtDSDJdMw==

>  <s_epik_cmdline>  (50) 
J2VwaWtfcHl0aG9uJywgJy1waHQnLCAnMi4wJywgJy1waCcsICc3LjAnLCAnLXRuJywgJzgnLCAnLW1hJywgJzIwMCcsICctaW1hZScsICc8aW5maWxlLm1hZT4nLCAnLW9tYWUnLCAnPG91dGZpbGUubWFlPic=

>  <r_lp_tautomer_probability>  (50) 
1

>  <r_epik_Ionization_Penalty>  (50) 
0.378842

>  <r_epik_Ionization_Penalty_Charging>  (50) 
0

>  <r_epik_Ionization_Penalty_Neutral>  (50) 
0.378842

>  <r_epik_State_Penalty>  (50) 
0.376771

>  <r_epik_Charging_Adjusted_Penalty>  (50) 
0.376771

>  <i_epik_Tot_Q>  (50) 
0

>  <i_epik_Tot_abs_Q>  (50) 
0

>  <s_lp_Force_Field>  (50) 
OPLS3e

>  <r_lp_Energy>  (50) 
11.168

>  <b_lp_Chiralities_Consistent>  (50) 
1

>  <s_lp_Variant>  (50) 
10:0-1

>  <s_i_glide_gridfile>  (50) 
pfpi4k_grid

>  <i_i_glide_lignum>  (50) 
19

>  <i_i_glide_rotatable_bonds>  (50) 
5

>  <r_i_docking_score>  (50) 
-2.52983

>  <r_i_glide_ligand_efficiency>  (50) 
-0.126492

>  <r_i_glide_ligand_efficiency_sa>  (50) 
-0.343351

>  <r_i_glide_ligand_efficiency_ln>  (50) 
-0.633133

>  <r_i_glide_gscore>  (50) 
-2.52983

>  <r_i_glide_lipo>  (50) 
-0.411947

>  <r_i_glide_hbond>  (50) 
0

>  <r_i_glide_metal>  (50) 
-0

>  <r_i_glide_rewards>  (50) 
-1.70269

>  <r_i_glide_evdw>  (50) 
-23.6192

>  <r_i_glide_ecoul>  (50) 
-2.33143

>  <r_i_glide_erotb>  (50) 
1.16317

>  <r_i_glide_esite>  (50) 
-0.0476859

>  <r_i_glide_emodel>  (50) 
-29.7442

>  <r_i_glide_energy>  (50) 
-25.9506

>  <r_i_glide_einternal>  (50) 
0.687547

>  <r_i_glide_intrahb_reward>  (50) 
-0

>  <i_i_glide_confnum>  (50) 
4

>  <i_i_glide_posenum>  (50) 
19

>  <r_i_glide_eff_state_penalty>  (50) 
0

>  <ligand_id>  (50) 
10

>  <original_smiles>  (50) 
O=C(Cn1nnnc1CN1CCCCC1)N1CCCC1

>  <smiles>  (50) 
[H]C([H])(c1nnnn1C([H])([H])C(=O)N1C([H])([H])C([H])([H])C([H])([H])C1([H])[H])N1C([H])([H])C([H])([H])C([H])([H])C([H])([H])C1([H])[H]

$$$$
10:0:2
     RDKit          3D

 42 44  0  0  1  0  0  0  0  0999 V2000
    4.8037   -0.2521    2.3097 O   0  0  0  0  0  0  0  0  0  0  0  0
    3.6512   -0.2930    1.8751 C   0  0  0  0  0  0  0  0  0  0  0  0
    3.3181   -1.2612    0.7266 C   0  0  0  0  0  0  0  0  0  0  0  0
    4.4905   -1.7133   -0.0106 N   0  0  0  0  0  0  0  0  0  0  0  0
    4.7517   -1.2385   -1.2541 N   0  0  0  0  0  0  0  0  0  0  0  0
    5.8170   -1.8504   -1.6750 N   0  0  0  0  0  0  0  0  0  0  0  0
    6.3130   -2.7121   -0.7219 N   0  0  0  0  0  0  0  0  0  0  0  0
    5.4412   -2.6167    0.2745 C   0  0  0  0  0  0  0  0  0  0  0  0
    5.4906   -3.4224    1.5426 C   0  0  0  0  0  0  0  0  0  0  0  0
    4.6818   -4.6434    1.5050 N   0  0  0  0  0  0  0  0  0  0  0  0
    4.6305   -5.2635    2.8336 C   0  0  0  0  0  0  0  0  0  0  0  0
    3.6411   -6.4424    2.8185 C   0  0  0  0  0  0  0  0  0  0  0  0
    4.0560   -7.4912    1.7805 C   0  0  0  0  0  0  0  0  0  0  0  0
    4.2470   -6.8060    0.4253 C   0  0  0  0  0  0  0  0  0  0  0  0
    5.2067   -5.6138    0.5359 C   0  0  0  0  0  0  0  0  0  0  0  0
    2.6573    0.4662    2.3914 N   0  0  0  0  0  0  0  0  0  0  0  0
    2.8397    1.3754    3.5248 C   0  0  0  0  0  0  0  0  0  0  0  0
    1.4349    1.8031    3.9533 C   0  0  0  0  0  0  0  0  0  0  0  0
    0.5957    1.6330    2.6973 C   0  0  0  0  0  0  0  0  0  0  0  0
    1.2594    0.4753    1.9524 C   0  0  0  0  0  0  0  0  0  0  0  0
    2.7939   -2.1325    1.1180 H   0  0  0  0  0  0  0  0  0  0  0  0
    2.6533   -0.7777    0.0172 H   0  0  0  0  0  0  0  0  0  0  0  0
    6.5346   -3.6520    1.7675 H   0  0  0  0  0  0  0  0  0  0  0  0
    5.1266   -2.7904    2.3531 H   0  0  0  0  0  0  0  0  0  0  0  0
    5.6207   -5.6038    3.1408 H   0  0  0  0  0  0  0  0  0  0  0  0
    4.3012   -4.5329    3.5729 H   0  0  0  0  0  0  0  0  0  0  0  0
    3.5806   -6.9020    3.8046 H   0  0  0  0  0  0  0  0  0  0  0  0
    2.6416   -6.0722    2.5884 H   0  0  0  0  0  0  0  0  0  0  0  0
    4.9843   -7.9748    2.0878 H   0  0  0  0  0  0  0  0  0  0  0  0
    3.3006   -8.2735    1.7032 H   0  0  0  0  0  0  0  0  0  0  0  0
    4.6138   -7.5196   -0.3115 H   0  0  0  0  0  0  0  0  0  0  0  0
    3.2882   -6.4421    0.0580 H   0  0  0  0  0  0  0  0  0  0  0  0
    5.2824   -5.1636   -0.4529 H   0  0  0  0  0  0  0  0  0  0  0  0
    6.2099   -5.9390    0.8190 H   0  0  0  0  0  0  0  0  0  0  0  0
    3.3791    0.9082    4.3504 H   0  0  0  0  0  0  0  0  0  0  0  0
    3.4146    2.2390    3.1943 H   0  0  0  0  0  0  0  0  0  0  0  0
    1.0647    1.1373    4.7332 H   0  0  0  0  0  0  0  0  0  0  0  0
    1.4036    2.8203    4.3435 H   0  0  0  0  0  0  0  0  0  0  0  0
   -0.4577    1.4527    2.9090 H   0  0  0  0  0  0  0  0  0  0  0  0
    0.6603    2.5380    2.0910 H   0  0  0  0  0  0  0  0  0  0  0  0
    1.1552    0.6164    0.8777 H   0  0  0  0  0  0  0  0  0  0  0  0
    0.7917   -0.4736    2.2239 H   0  0  0  0  0  0  0  0  0  0  0  0
  1  2  2  0
  2  3  1  0
  2 16  1  0
  3  4  1  0
  3 21  1  0
  3 22  1  0
  4  8  1  0
  4  5  1  0
  5  6  2  0
  6  7  1  0
  7  8  2  0
  8  9  1  0
  9 10  1  0
  9 23  1  0
  9 24  1  0
 10 15  1  0
 10 11  1  0
 11 12  1  0
 11 25  1  0
 11 26  1  0
 12 13  1  0
 12 27  1  0
 12 28  1  0
 13 14  1  0
 13 29  1  0
 13 30  1  0
 14 15  1  0
 14 31  1  0
 14 32  1  0
 15 33  1  0
 15 34  1  0
 16 20  1  0
 16 17  1  0
 17 18  1  0
 17 35  1  0
 17 36  1  0
 18 19  1  0
 18 37  1  0
 18 38  1  0
 19 20  1  0
 19 39  1  0
 19 40  1  0
 20 41  1  0
 20 42  1  0
M  END
>  <i_m_ct_stereo_status>  (51) 
1

>  <s_m_source_file>  (51) 
/var/tmp/pbs.5076255.sched01/tmpokz5906q/0mijyat0o.sdf

>  <i_m_source_file_index>  (51) 
19

>  <i_lp_mmshare_version>  (51) 
48012

>  <i_f3d_flags>  (51) 
0

>  <s_epik_input>  (51) 
W0NIMl0xW0NIMl1bQ0gyXVtDSDJdTjFDKD1PKVtDSDJdbjJubm5jMltDSDJdTjNbQ0gyXVtDSDJdW0NIMl1bQ0gyXVtDSDJdMw==

>  <s_epik_cmdline>  (51) 
J2VwaWtfcHl0aG9uJywgJy1waHQnLCAnMi4wJywgJy1waCcsICc3LjAnLCAnLXRuJywgJzgnLCAnLW1hJywgJzIwMCcsICctaW1hZScsICc8aW5maWxlLm1hZT4nLCAnLW9tYWUnLCAnPG91dGZpbGUubWFlPic=

>  <r_lp_tautomer_probability>  (51) 
1

>  <r_epik_Ionization_Penalty>  (51) 
0.378842

>  <r_epik_Ionization_Penalty_Charging>  (51) 
0

>  <r_epik_Ionization_Penalty_Neutral>  (51) 
0.378842

>  <r_epik_State_Penalty>  (51) 
0.376771

>  <r_epik_Charging_Adjusted_Penalty>  (51) 
0.376771

>  <i_epik_Tot_Q>  (51) 
0

>  <i_epik_Tot_abs_Q>  (51) 
0

>  <s_lp_Force_Field>  (51) 
OPLS3e

>  <r_lp_Energy>  (51) 
11.168

>  <b_lp_Chiralities_Consistent>  (51) 
1

>  <s_lp_Variant>  (51) 
10:0-1

>  <s_i_glide_gridfile>  (51) 
pfpi4k_grid

>  <i_i_glide_lignum>  (51) 
19

>  <i_i_glide_rotatable_bonds>  (51) 
5

>  <r_i_docking_score>  (51) 
-2.46751

>  <r_i_glide_ligand_efficiency>  (51) 
-0.123375

>  <r_i_glide_ligand_efficiency_sa>  (51) 
-0.334892

>  <r_i_glide_ligand_efficiency_ln>  (51) 
-0.617536

>  <r_i_glide_gscore>  (51) 
-2.46751

>  <r_i_glide_lipo>  (51) 
-0.35744

>  <r_i_glide_hbond>  (51) 
-0.0319318

>  <r_i_glide_metal>  (51) 
-0

>  <r_i_glide_rewards>  (51) 
-1.59151

>  <r_i_glide_evdw>  (51) 
-21.3038

>  <r_i_glide_ecoul>  (51) 
-3.01791

>  <r_i_glide_erotb>  (51) 
1.16317

>  <r_i_glide_esite>  (51) 
-0.131912

>  <r_i_glide_emodel>  (51) 
-28.1935

>  <r_i_glide_energy>  (51) 
-24.3217

>  <r_i_glide_einternal>  (51) 
0.328724

>  <r_i_glide_intrahb_reward>  (51) 
-0

>  <i_i_glide_confnum>  (51) 
4

>  <i_i_glide_posenum>  (51) 
1

>  <r_i_glide_eff_state_penalty>  (51) 
0

>  <ligand_id>  (51) 
10

>  <original_smiles>  (51) 
O=C(Cn1nnnc1CN1CCCCC1)N1CCCC1

>  <smiles>  (51) 
[H]C([H])(c1nnnn1C([H])([H])C(=O)N1C([H])([H])C([H])([H])C([H])([H])C1([H])[H])N1C([H])([H])C([H])([H])C([H])([H])C([H])([H])C1([H])[H]

$$$$
10:1:0
     RDKit          3D

 43 45  0  0  1  0  0  0  0  0999 V2000
    3.5296   -1.4361    3.8516 O   0  0  0  0  0  0  0  0  0  0  0  0
    2.6432   -0.9516    3.1636 C   0  0  0  0  0  0  0  0  0  0  0  0
    1.8136   -1.8425    2.2280 C   0  0  0  0  0  0  0  0  0  0  0  0
    2.4452   -3.1086    1.9296 N   0  0  0  0  0  0  0  0  0  0  0  0
    2.0421   -4.2440    2.5475 N   0  0  0  0  0  0  0  0  0  0  0  0
    2.7299   -5.2262    2.0499 N   0  0  0  0  0  0  0  0  0  0  0  0
    3.6066   -4.7591    1.0966 N   0  0  0  0  0  0  0  0  0  0  0  0
    3.3967   -3.4516    1.0463 C   0  0  0  0  0  0  0  0  0  0  0  0
    4.1885   -2.4951    0.2202 C   0  0  0  0  0  0  0  0  0  0  0  0
    3.4315   -2.2088   -1.0351 N   0  0  0  0  0  0  0  0  0  0  0  0
    4.0940   -1.1058   -1.7688 C   0  0  0  0  0  0  0  0  0  0  0  0
    3.2828   -0.6610   -2.9888 C   0  0  0  0  0  0  0  0  0  0  0  0
    3.0136   -1.8331   -3.9349 C   0  0  0  0  0  0  0  0  0  0  0  0
    2.3992   -3.0126   -3.1662 C   0  0  0  0  0  0  0  0  0  0  0  0
    3.2371   -3.3760   -1.9298 C   0  0  0  0  0  0  0  0  0  0  0  0
    2.3560    0.3754    3.1841 N   0  0  0  0  0  0  0  0  0  0  0  0
    1.3341    1.0366    2.3795 C   0  0  0  0  0  0  0  0  0  0  0  0
    1.5520    2.5342    2.5851 C   0  0  0  0  0  0  0  0  0  0  0  0
    2.2380    2.6352    3.9356 C   0  0  0  0  0  0  0  0  0  0  0  0
    3.0405    1.3359    4.0445 C   0  0  0  0  0  0  0  0  0  0  0  0
    0.8239   -2.0094    2.6672 H   0  0  0  0  0  0  0  0  0  0  0  0
    1.6586   -1.3563    1.2748 H   0  0  0  0  0  0  0  0  0  0  0  0
    4.3418   -1.5874    0.8037 H   0  0  0  0  0  0  0  0  0  0  0  0
    5.1709   -2.9302    0.0343 H   0  0  0  0  0  0  0  0  0  0  0  0
    4.2352   -0.2593   -1.1026 H   0  0  0  0  0  0  0  0  0  0  0  0
    5.0835   -1.4295   -2.0963 H   0  0  0  0  0  0  0  0  0  0  0  0
    2.3216   -0.2406   -2.6862 H   0  0  0  0  0  0  0  0  0  0  0  0
    3.8077    0.1351   -3.5289 H   0  0  0  0  0  0  0  0  0  0  0  0
    2.3280   -1.4888   -4.7148 H   0  0  0  0  0  0  0  0  0  0  0  0
    3.9421   -2.1286   -4.4233 H   0  0  0  0  0  0  0  0  0  0  0  0
    1.3935   -2.7369   -2.8418 H   0  0  0  0  0  0  0  0  0  0  0  0
    2.2781   -3.8708   -3.8372 H   0  0  0  0  0  0  0  0  0  0  0  0
    4.2079   -3.7639   -2.2286 H   0  0  0  0  0  0  0  0  0  0  0  0
    2.7166   -4.1479   -1.3870 H   0  0  0  0  0  0  0  0  0  0  0  0
    1.3939    0.8101    1.3125 H   0  0  0  0  0  0  0  0  0  0  0  0
    0.3440    0.7463    2.7389 H   0  0  0  0  0  0  0  0  0  0  0  0
    2.2106    2.9231    1.8077 H   0  0  0  0  0  0  0  0  0  0  0  0
    0.6204    3.0950    2.5414 H   0  0  0  0  0  0  0  0  0  0  0  0
    2.8564    3.5297    4.0231 H   0  0  0  0  0  0  0  0  0  0  0  0
    1.4830    2.6730    4.7222 H   0  0  0  0  0  0  0  0  0  0  0  0
    3.1041    1.0018    5.0810 H   0  0  0  0  0  0  0  0  0  0  0  0
    4.0554    1.4877    3.6790 H   0  0  0  0  0  0  0  0  0  0  0  0
    2.5054   -1.8701   -0.7898 H   0  0  0  0  0  0  0  0  0  0  0  0
  1  2  2  0
  2  3  1  0
  2 16  1  0
  3  4  1  0
  3 21  1  0
  3 22  1  0
  4  8  1  0
  4  5  1  0
  5  6  2  0
  6  7  1  0
  7  8  2  0
  8  9  1  0
  9 10  1  0
  9 23  1  0
  9 24  1  0
 10 15  1  0
 10 11  1  0
 10 43  1  0
 11 12  1  0
 11 25  1  0
 11 26  1  0
 12 13  1  0
 12 27  1  0
 12 28  1  0
 13 14  1  0
 13 29  1  0
 13 30  1  0
 14 15  1  0
 14 31  1  0
 14 32  1  0
 15 33  1  0
 15 34  1  0
 16 20  1  0
 16 17  1  0
 17 18  1  0
 17 35  1  0
 17 36  1  0
 18 19  1  0
 18 37  1  0
 18 38  1  0
 19 20  1  0
 19 39  1  0
 19 40  1  0
 20 41  1  0
 20 42  1  0
M  CHG  1  10   1
M  END
>  <i_m_ct_stereo_status>  (52) 
1

>  <s_m_source_file>  (52) 
/var/tmp/pbs.5076255.sched01/tmpokz5906q/0mijyat0o.sdf

>  <i_m_source_file_index>  (52) 
20

>  <i_lp_mmshare_version>  (52) 
48012

>  <i_f3d_flags>  (52) 
0

>  <s_epik_input>  (52) 
W0NIMl0xW0NIMl1bQ0gyXVtDSDJdTjFDKD1PKVtDSDJdbjJubm5jMltDSDJdTjNbQ0gyXVtDSDJdW0NIMl1bQ0gyXVtDSDJdMw==

>  <s_epik_cmdline>  (52) 
J2VwaWtfcHl0aG9uJywgJy1waHQnLCAnMi4wJywgJy1waCcsICc3LjAnLCAnLXRuJywgJzgnLCAnLW1hJywgJzIwMCcsICctaW1hZScsICc8aW5maWxlLm1hZT4nLCAnLW9tYWUnLCAnPG91dGZpbGUubWFlPic=

>  <r_lp_tautomer_probability>  (52) 
1

>  <r_epik_Ionization_Penalty>  (52) 
0.444326

>  <r_epik_Ionization_Penalty_Charging>  (52) 
0.444326

>  <r_epik_Ionization_Penalty_Neutral>  (52) 
6.06894e-11

>  <r_epik_State_Penalty>  (52) 
0.446648

>  <r_epik_Charging_Adjusted_Penalty>  (52) 
0.890974

>  <i_epik_Tot_Q>  (52) 
1

>  <i_epik_Tot_abs_Q>  (52) 
1

>  <s_lp_Force_Field>  (52) 
OPLS3e

>  <r_lp_Energy>  (52) 
19.4972

>  <b_lp_Chiralities_Consistent>  (52) 
1

>  <s_lp_Variant>  (52) 
10:0-2

>  <s_i_glide_gridfile>  (52) 
pfpi4k_grid

>  <i_i_glide_lignum>  (52) 
20

>  <i_i_glide_rotatable_bonds>  (52) 
5

>  <r_i_docking_score>  (52) 
-3.06629

>  <r_i_glide_ligand_efficiency>  (52) 
-0.153314

>  <r_i_glide_ligand_efficiency_sa>  (52) 
-0.416159

>  <r_i_glide_ligand_efficiency_ln>  (52) 
-0.76739

>  <r_i_glide_gscore>  (52) 
-3.06629

>  <r_i_glide_lipo>  (52) 
-0.286679

>  <r_i_glide_hbond>  (52) 
-0.2

>  <r_i_glide_metal>  (52) 
-0

>  <r_i_glide_rewards>  (52) 
-1.50435

>  <r_i_glide_evdw>  (52) 
-20.2881

>  <r_i_glide_ecoul>  (52) 
-7.40967

>  <r_i_glide_erotb>  (52) 
1.15589

>  <r_i_glide_esite>  (52) 
-0.105286

>  <r_i_glide_emodel>  (52) 
-33.9711

>  <r_i_glide_energy>  (52) 
-27.6978

>  <r_i_glide_einternal>  (52) 
0.508638

>  <r_i_glide_intrahb_reward>  (52) 
-0

>  <i_i_glide_confnum>  (52) 
6

>  <i_i_glide_posenum>  (52) 
2

>  <r_i_glide_eff_state_penalty>  (52) 
0

>  <ligand_id>  (52) 
10

>  <original_smiles>  (52) 
O=C(Cn1nnnc1CN1CCCCC1)N1CCCC1

>  <smiles>  (52) 
[H]C([H])(C(=O)N1C([H])([H])C([H])([H])C([H])([H])C1([H])[H])n1nnnc1C([H])([H])[N+]1([H])C([H])([H])C([H])([H])C([H])([H])C([H])([H])C1([H])[H]

$$$$
10:1:1
     RDKit          3D

 43 45  0  0  1  0  0  0  0  0999 V2000
    2.7227   -1.1857    4.1498 O   0  0  0  0  0  0  0  0  0  0  0  0
    2.3159   -0.6253    3.1353 C   0  0  0  0  0  0  0  0  0  0  0  0
    3.1197   -0.7058    1.8138 C   0  0  0  0  0  0  0  0  0  0  0  0
    3.9651   -1.8883    1.6823 N   0  0  0  0  0  0  0  0  0  0  0  0
    5.0859   -2.0294    2.4375 N   0  0  0  0  0  0  0  0  0  0  0  0
    5.6262   -3.1580    2.0980 N   0  0  0  0  0  0  0  0  0  0  0  0
    4.9229   -3.7744    1.0789 N   0  0  0  0  0  0  0  0  0  0  0  0
    3.9032   -2.9580    0.8725 C   0  0  0  0  0  0  0  0  0  0  0  0
    2.7859   -3.2261   -0.0990 C   0  0  0  0  0  0  0  0  0  0  0  0
    3.2526   -2.8849   -1.4788 N   0  0  0  0  0  0  0  0  0  0  0  0
    2.1985   -3.2401   -2.4680 C   0  0  0  0  0  0  0  0  0  0  0  0
    2.6769   -3.0327   -3.9131 C   0  0  0  0  0  0  0  0  0  0  0  0
    3.1624   -1.5912   -4.1433 C   0  0  0  0  0  0  0  0  0  0  0  0
    4.2139   -1.2140   -3.0970 C   0  0  0  0  0  0  0  0  0  0  0  0
    3.6979   -1.4731   -1.6698 C   0  0  0  0  0  0  0  0  0  0  0  0
    1.1684    0.0879    3.1274 N   0  0  0  0  0  0  0  0  0  0  0  0
    0.5915    0.7668    1.9693 C   0  0  0  0  0  0  0  0  0  0  0  0
   -0.5628    1.6030    2.5082 C   0  0  0  0  0  0  0  0  0  0  0  0
   -0.9717    0.8982    3.7926 C   0  0  0  0  0  0  0  0  0  0  0  0
    0.3251    0.2759    4.3090 C   0  0  0  0  0  0  0  0  0  0  0  0
    2.4415   -0.6862    0.9653 H   0  0  0  0  0  0  0  0  0  0  0  0
    3.7574    0.1721    1.7221 H   0  0  0  0  0  0  0  0  0  0  0  0
    2.5707   -4.2950   -0.0409 H   0  0  0  0  0  0  0  0  0  0  0  0
    1.8943   -2.6831    0.2099 H   0  0  0  0  0  0  0  0  0  0  0  0
    1.8609   -4.2599   -2.3146 H   0  0  0  0  0  0  0  0  0  0  0  0
    1.3175   -2.6245   -2.3076 H   0  0  0  0  0  0  0  0  0  0  0  0
    3.4653   -3.7490   -4.1495 H   0  0  0  0  0  0  0  0  0  0  0  0
    1.8412   -3.2542   -4.5738 H   0  0  0  0  0  0  0  0  0  0  0  0
    3.6045   -1.4811   -5.1285 H   0  0  0  0  0  0  0  0  0  0  0  0
    2.3164   -0.9034   -4.1165 H   0  0  0  0  0  0  0  0  0  0  0  0
    5.1095   -1.8143   -3.2665 H   0  0  0  0  0  0  0  0  0  0  0  0
    4.5000   -0.1658   -3.2237 H   0  0  0  0  0  0  0  0  0  0  0  0
    2.8706   -0.7968   -1.4520 H   0  0  0  0  0  0  0  0  0  0  0  0
    4.5161   -1.2558   -0.9812 H   0  0  0  0  0  0  0  0  0  0  0  0
    1.3155    1.3934    1.4417 H   0  0  0  0  0  0  0  0  0  0  0  0
    0.2128    0.0160    1.2791 H   0  0  0  0  0  0  0  0  0  0  0  0
   -0.2093    2.6107    2.7308 H   0  0  0  0  0  0  0  0  0  0  0  0
   -1.3790    1.6836    1.7931 H   0  0  0  0  0  0  0  0  0  0  0  0
   -1.4343    1.5740    4.5105 H   0  0  0  0  0  0  0  0  0  0  0  0
   -1.6920    0.1128    3.5652 H   0  0  0  0  0  0  0  0  0  0  0  0
    0.1400   -0.6606    4.8365 H   0  0  0  0  0  0  0  0  0  0  0  0
    0.8307    0.9579    4.9938 H   0  0  0  0  0  0  0  0  0  0  0  0
    4.0516   -3.4761   -1.6744 H   0  0  0  0  0  0  0  0  0  0  0  0
  1  2  2  0
  2  3  1  0
  2 16  1  0
  3  4  1  0
  3 21  1  0
  3 22  1  0
  4  8  1  0
  4  5  1  0
  5  6  2  0
  6  7  1  0
  7  8  2  0
  8  9  1  0
  9 10  1  0
  9 23  1  0
  9 24  1  0
 10 15  1  0
 10 11  1  0
 10 43  1  0
 11 12  1  0
 11 25  1  0
 11 26  1  0
 12 13  1  0
 12 27  1  0
 12 28  1  0
 13 14  1  0
 13 29  1  0
 13 30  1  0
 14 15  1  0
 14 31  1  0
 14 32  1  0
 15 33  1  0
 15 34  1  0
 16 20  1  0
 16 17  1  0
 17 18  1  0
 17 35  1  0
 17 36  1  0
 18 19  1  0
 18 37  1  0
 18 38  1  0
 19 20  1  0
 19 39  1  0
 19 40  1  0
 20 41  1  0
 20 42  1  0
M  CHG  1  10   1
M  END
>  <i_m_ct_stereo_status>  (53) 
1

>  <s_m_source_file>  (53) 
/var/tmp/pbs.5076255.sched01/tmpokz5906q/0mijyat0o.sdf

>  <i_m_source_file_index>  (53) 
20

>  <i_lp_mmshare_version>  (53) 
48012

>  <i_f3d_flags>  (53) 
0

>  <s_epik_input>  (53) 
W0NIMl0xW0NIMl1bQ0gyXVtDSDJdTjFDKD1PKVtDSDJdbjJubm5jMltDSDJdTjNbQ0gyXVtDSDJdW0NIMl1bQ0gyXVtDSDJdMw==

>  <s_epik_cmdline>  (53) 
J2VwaWtfcHl0aG9uJywgJy1waHQnLCAnMi4wJywgJy1waCcsICc3LjAnLCAnLXRuJywgJzgnLCAnLW1hJywgJzIwMCcsICctaW1hZScsICc8aW5maWxlLm1hZT4nLCAnLW9tYWUnLCAnPG91dGZpbGUubWFlPic=

>  <r_lp_tautomer_probability>  (53) 
1

>  <r_epik_Ionization_Penalty>  (53) 
0.444326

>  <r_epik_Ionization_Penalty_Charging>  (53) 
0.444326

>  <r_epik_Ionization_Penalty_Neutral>  (53) 
6.06894e-11

>  <r_epik_State_Penalty>  (53) 
0.446648

>  <r_epik_Charging_Adjusted_Penalty>  (53) 
0.890974

>  <i_epik_Tot_Q>  (53) 
1

>  <i_epik_Tot_abs_Q>  (53) 
1

>  <s_lp_Force_Field>  (53) 
OPLS3e

>  <r_lp_Energy>  (53) 
19.4972

>  <b_lp_Chiralities_Consistent>  (53) 
1

>  <s_lp_Variant>  (53) 
10:0-2

>  <s_i_glide_gridfile>  (53) 
pfpi4k_grid

>  <i_i_glide_lignum>  (53) 
20

>  <i_i_glide_rotatable_bonds>  (53) 
5

>  <r_i_docking_score>  (53) 
-2.82243

>  <r_i_glide_ligand_efficiency>  (53) 
-0.141122

>  <r_i_glide_ligand_efficiency_sa>  (53) 
-0.383063

>  <r_i_glide_ligand_efficiency_ln>  (53) 
-0.706362

>  <r_i_glide_gscore>  (53) 
-2.82243

>  <r_i_glide_lipo>  (53) 
-0.388664

>  <r_i_glide_hbond>  (53) 
0

>  <r_i_glide_metal>  (53) 
-0

>  <r_i_glide_rewards>  (53) 
-1.50435

>  <r_i_glide_evdw>  (53) 
-22.138

>  <r_i_glide_ecoul>  (53) 
-6.21808

>  <r_i_glide_erotb>  (53) 
1.15589

>  <r_i_glide_esite>  (53) 
-0.0456947

>  <r_i_glide_emodel>  (53) 
-33.8562

>  <r_i_glide_energy>  (53) 
-28.3561

>  <r_i_glide_einternal>  (53) 
1.26392

>  <r_i_glide_intrahb_reward>  (53) 
-0

>  <i_i_glide_confnum>  (53) 
5

>  <i_i_glide_posenum>  (53) 
19

>  <r_i_glide_eff_state_penalty>  (53) 
0

>  <ligand_id>  (53) 
10

>  <original_smiles>  (53) 
O=C(Cn1nnnc1CN1CCCCC1)N1CCCC1

>  <smiles>  (53) 
[H]C([H])(C(=O)N1C([H])([H])C([H])([H])C([H])([H])C1([H])[H])n1nnnc1C([H])([H])[N+]1([H])C([H])([H])C([H])([H])C([H])([H])C([H])([H])C1([H])[H]

$$$$
10:1:2
     RDKit          3D

 43 45  0  0  1  0  0  0  0  0999 V2000
    2.5115    1.2518    1.6829 O   0  0  0  0  0  0  0  0  0  0  0  0
    1.9750    0.3343    2.3003 C   0  0  0  0  0  0  0  0  0  0  0  0
    2.5447   -1.0944    2.1830 C   0  0  0  0  0  0  0  0  0  0  0  0
    3.9436   -1.1445    1.7659 N   0  0  0  0  0  0  0  0  0  0  0  0
    4.9180   -1.2599    2.6970 N   0  0  0  0  0  0  0  0  0  0  0  0
    6.0474   -1.2649    2.0638 N   0  0  0  0  0  0  0  0  0  0  0  0
    5.8594   -1.1386    0.7045 N   0  0  0  0  0  0  0  0  0  0  0  0
    4.5386   -1.1032    0.5624 C   0  0  0  0  0  0  0  0  0  0  0  0
    3.8147   -0.9082   -0.7407 C   0  0  0  0  0  0  0  0  0  0  0  0
    3.8286   -2.1742   -1.5365 N   0  0  0  0  0  0  0  0  0  0  0  0
    2.9534   -2.0323   -2.7313 C   0  0  0  0  0  0  0  0  0  0  0  0
    2.7945   -3.3530   -3.4961 C   0  0  0  0  0  0  0  0  0  0  0  0
    4.1641   -3.9096   -3.9136 C   0  0  0  0  0  0  0  0  0  0  0  0
    5.0926   -3.9720   -2.6970 C   0  0  0  0  0  0  0  0  0  0  0  0
    5.1760   -2.6395   -1.9553 C   0  0  0  0  0  0  0  0  0  0  0  0
    0.8723    0.5254    3.0571 N   0  0  0  0  0  0  0  0  0  0  0  0
    0.2183   -0.4983    3.8760 C   0  0  0  0  0  0  0  0  0  0  0  0
   -1.0898    0.1200    4.3637 C   0  0  0  0  0  0  0  0  0  0  0  0
   -0.8342    1.6189    4.3260 C   0  0  0  0  0  0  0  0  0  0  0  0
    0.1662    1.8031    3.1817 C   0  0  0  0  0  0  0  0  0  0  0  0
    2.4725   -1.6198    3.1371 H   0  0  0  0  0  0  0  0  0  0  0  0
    1.9518   -1.6451    1.4574 H   0  0  0  0  0  0  0  0  0  0  0  0
    2.7928   -0.6487   -0.5031 H   0  0  0  0  0  0  0  0  0  0  0  0
    4.2795   -0.0864   -1.2820 H   0  0  0  0  0  0  0  0  0  0  0  0
    1.9605   -1.7281   -2.4182 H   0  0  0  0  0  0  0  0  0  0  0  0
    3.3501   -1.2599   -3.3969 H   0  0  0  0  0  0  0  0  0  0  0  0
    2.2417   -4.0575   -2.8732 H   0  0  0  0  0  0  0  0  0  0  0  0
    2.1722   -3.2037   -4.3773 H   0  0  0  0  0  0  0  0  0  0  0  0
    4.0555   -4.9096   -4.3345 H   0  0  0  0  0  0  0  0  0  0  0  0
    4.5988   -3.2834   -4.6905 H   0  0  0  0  0  0  0  0  0  0  0  0
    4.7432   -4.7378   -2.0033 H   0  0  0  0  0  0  0  0  0  0  0  0
    6.0909   -4.2501   -3.0156 H   0  0  0  0  0  0  0  0  0  0  0  0
    5.6511   -1.8733   -2.5710 H   0  0  0  0  0  0  0  0  0  0  0  0
    5.8051   -2.8305   -1.0899 H   0  0  0  0  0  0  0  0  0  0  0  0
    0.0363   -1.4188    3.3195 H   0  0  0  0  0  0  0  0  0  0  0  0
    0.8615   -0.7281    4.7265 H   0  0  0  0  0  0  0  0  0  0  0  0
   -1.8876   -0.1292    3.6686 H   0  0  0  0  0  0  0  0  0  0  0  0
   -1.3891   -0.2375    5.3486 H   0  0  0  0  0  0  0  0  0  0  0  0
   -1.7486    2.1969    4.1888 H   0  0  0  0  0  0  0  0  0  0  0  0
   -0.3802    1.9328    5.2668 H   0  0  0  0  0  0  0  0  0  0  0  0
    0.8442    2.6359    3.3774 H   0  0  0  0  0  0  0  0  0  0  0  0
   -0.3567    2.0151    2.2465 H   0  0  0  0  0  0  0  0  0  0  0  0
    3.4254   -2.8930   -0.9557 H   0  0  0  0  0  0  0  0  0  0  0  0
  1  2  2  0
  2  3  1  0
  2 16  1  0
  3  4  1  0
  3 21  1  0
  3 22  1  0
  4  8  1  0
  4  5  1  0
  5  6  2  0
  6  7  1  0
  7  8  2  0
  8  9  1  0
  9 10  1  0
  9 23  1  0
  9 24  1  0
 10 15  1  0
 10 11  1  0
 10 43  1  0
 11 12  1  0
 11 25  1  0
 11 26  1  0
 12 13  1  0
 12 27  1  0
 12 28  1  0
 13 14  1  0
 13 29  1  0
 13 30  1  0
 14 15  1  0
 14 31  1  0
 14 32  1  0
 15 33  1  0
 15 34  1  0
 16 20  1  0
 16 17  1  0
 17 18  1  0
 17 35  1  0
 17 36  1  0
 18 19  1  0
 18 37  1  0
 18 38  1  0
 19 20  1  0
 19 39  1  0
 19 40  1  0
 20 41  1  0
 20 42  1  0
M  CHG  1  10   1
M  END
>  <i_m_ct_stereo_status>  (54) 
1

>  <s_m_source_file>  (54) 
/var/tmp/pbs.5076255.sched01/tmpokz5906q/0mijyat0o.sdf

>  <i_m_source_file_index>  (54) 
20

>  <i_lp_mmshare_version>  (54) 
48012

>  <i_f3d_flags>  (54) 
0

>  <s_epik_input>  (54) 
W0NIMl0xW0NIMl1bQ0gyXVtDSDJdTjFDKD1PKVtDSDJdbjJubm5jMltDSDJdTjNbQ0gyXVtDSDJdW0NIMl1bQ0gyXVtDSDJdMw==

>  <s_epik_cmdline>  (54) 
J2VwaWtfcHl0aG9uJywgJy1waHQnLCAnMi4wJywgJy1waCcsICc3LjAnLCAnLXRuJywgJzgnLCAnLW1hJywgJzIwMCcsICctaW1hZScsICc8aW5maWxlLm1hZT4nLCAnLW9tYWUnLCAnPG91dGZpbGUubWFlPic=

>  <r_lp_tautomer_probability>  (54) 
1

>  <r_epik_Ionization_Penalty>  (54) 
0.444326

>  <r_epik_Ionization_Penalty_Charging>  (54) 
0.444326

>  <r_epik_Ionization_Penalty_Neutral>  (54) 
6.06894e-11

>  <r_epik_State_Penalty>  (54) 
0.446648

>  <r_epik_Charging_Adjusted_Penalty>  (54) 
0.890974

>  <i_epik_Tot_Q>  (54) 
1

>  <i_epik_Tot_abs_Q>  (54) 
1

>  <s_lp_Force_Field>  (54) 
OPLS3e

>  <r_lp_Energy>  (54) 
19.4972

>  <b_lp_Chiralities_Consistent>  (54) 
1

>  <s_lp_Variant>  (54) 
10:0-2

>  <s_i_glide_gridfile>  (54) 
pfpi4k_grid

>  <i_i_glide_lignum>  (54) 
20

>  <i_i_glide_rotatable_bonds>  (54) 
5

>  <r_i_docking_score>  (54) 
-2.55768

>  <r_i_glide_ligand_efficiency>  (54) 
-0.127884

>  <r_i_glide_ligand_efficiency_sa>  (54) 
-0.347131

>  <r_i_glide_ligand_efficiency_ln>  (54) 
-0.640103

>  <r_i_glide_gscore>  (54) 
-2.55768

>  <r_i_glide_lipo>  (54) 
-0.24281

>  <r_i_glide_hbond>  (54) 
0

>  <r_i_glide_metal>  (54) 
-0

>  <r_i_glide_rewards>  (54) 
-1.54591

>  <r_i_glide_evdw>  (54) 
-21.0917

>  <r_i_glide_ecoul>  (54) 
-5.16956

>  <r_i_glide_erotb>  (54) 
1.15589

>  <r_i_glide_esite>  (54) 
-0.0948249

>  <r_i_glide_emodel>  (54) 
-31.2321

>  <r_i_glide_energy>  (54) 
-26.2613

>  <r_i_glide_einternal>  (54) 
0.934079

>  <r_i_glide_intrahb_reward>  (54) 
-0

>  <i_i_glide_confnum>  (54) 
6

>  <i_i_glide_posenum>  (54) 
34

>  <r_i_glide_eff_state_penalty>  (54) 
0

>  <ligand_id>  (54) 
10

>  <original_smiles>  (54) 
O=C(Cn1nnnc1CN1CCCCC1)N1CCCC1

>  <smiles>  (54) 
[H]C([H])(C(=O)N1C([H])([H])C([H])([H])C([H])([H])C1([H])[H])n1nnnc1C([H])([H])[N+]1([H])C([H])([H])C([H])([H])C([H])([H])C([H])([H])C1([H])[H]

$$$$
11:0:0
     RDKit          3D

 35 38  0  0  1  0  0  0  0  0999 V2000
    2.4726   -3.3532   -3.4599 C   0  0  0  0  0  0  0  0  0  0  0  0
    3.3218   -2.9592   -2.2626 C   0  0  0  0  0  0  0  0  0  0  0  0
    3.2904   -3.6051   -1.0757 C   0  0  0  0  0  0  0  0  0  0  0  0
    4.1400   -3.2804    0.1883 C   0  0  2  0  0  0  0  0  0  0  0  0
    3.6259   -2.0006    0.8785 C   0  0  1  0  0  0  0  0  0  0  0  0
    3.8238   -1.8832    2.3990 C   0  0  0  0  0  0  0  0  0  0  0  0
    2.8058   -2.6727    3.2240 C   0  0  0  0  0  0  0  0  0  0  0  0
    1.5467   -2.0511    3.1375 O   0  0  0  0  0  0  0  0  0  0  0  0
    4.6162   -1.2081   -0.0134 C   0  0  2  0  0  0  0  0  0  0  0  0
    3.9279   -0.8447   -1.3438 C   0  0  1  0  0  0  0  0  0  0  0  0
    4.2811   -0.3486   -2.6952 C   0  0  0  0  0  0  0  0  0  0  0  0
    4.2808   -1.8382   -2.4687 C   0  0  2  0  0  0  0  0  0  0  0  0
    5.3907   -2.5039   -0.1423 C   0  0  0  0  0  0  0  0  0  0  0  0
    6.7268   -2.8791   -0.7163 C   0  0  0  0  0  0  0  0  0  0  0  0
    6.5881   -2.7191    0.7701 C   0  0  0  0  0  0  0  0  0  0  0  0
    1.8224   -2.5390   -3.7789 H   0  0  0  0  0  0  0  0  0  0  0  0
    1.8319   -4.1874   -3.1839 H   0  0  0  0  0  0  0  0  0  0  0  0
    3.0910   -3.6610   -4.3027 H   0  0  0  0  0  0  0  0  0  0  0  0
    2.6044   -4.4306   -0.9595 H   0  0  0  0  0  0  0  0  0  0  0  0
    4.2606   -4.1445    0.8566 H   0  0  0  0  0  0  0  0  0  0  0  0
    2.5900   -1.7980    0.5982 H   0  0  0  0  0  0  0  0  0  0  0  0
    4.8063   -2.2637    2.6678 H   0  0  0  0  0  0  0  0  0  0  0  0
    3.8341   -0.8409    2.7145 H   0  0  0  0  0  0  0  0  0  0  0  0
    2.7409   -3.7062    2.8805 H   0  0  0  0  0  0  0  0  0  0  0  0
    3.1068   -2.6939    4.2717 H   0  0  0  0  0  0  0  0  0  0  0  0
    1.4035   -1.8143    2.2305 H   0  0  0  0  0  0  0  0  0  0  0  0
    5.1160   -0.3892    0.5033 H   0  0  0  0  0  0  0  0  0  0  0  0
    2.8764   -0.6644   -1.1887 H   0  0  0  0  0  0  0  0  0  0  0  0
    3.4768    0.0809   -3.2981 H   0  0  0  0  0  0  0  0  0  0  0  0
    5.2279    0.1721   -2.7128 H   0  0  0  0  0  0  0  0  0  0  0  0
    5.2649   -2.2391   -2.6718 H   0  0  0  0  0  0  0  0  0  0  0  0
    6.8275   -3.8872   -1.0977 H   0  0  0  0  0  0  0  0  0  0  0  0
    7.2913   -2.1123   -1.2309 H   0  0  0  0  0  0  0  0  0  0  0  0
    7.0408   -1.8327    1.2245 H   0  0  0  0  0  0  0  0  0  0  0  0
    6.6077   -3.6348    1.3718 H   0  0  0  0  0  0  0  0  0  0  0  0
  1  2  1  0
  1 16  1  0
  1 17  1  0
  1 18  1  0
  2 12  1  0
  2  3  2  0
  3  4  1  0
  3 19  1  0
  4 13  1  0
  4  5  1  0
  4 20  1  1
  5  6  1  0
  5  9  1  0
  5 21  1  1
  6  7  1  0
  6 22  1  0
  6 23  1  0
  7  8  1  0
  7 24  1  0
  7 25  1  0
  8 26  1  0
  9 10  1  0
  9 13  1  0
  9 27  1  1
 10 12  1  0
 10 11  1  0
 10 28  1  1
 11 12  1  0
 11 29  1  0
 11 30  1  0
 12 31  1  1
 13 15  1  0
 13 14  1  0
 14 15  1  0
 14 32  1  0
 14 33  1  0
 15 34  1  0
 15 35  1  0
M  END
>  <i_m_ct_stereo_status>  (55) 
1

>  <s_m_source_file>  (55) 
/var/tmp/pbs.5076255.sched01/tmpokz5906q/0mijyat0o.sdf

>  <i_m_source_file_index>  (55) 
21

>  <i_lp_mmshare_version>  (55) 
48012

>  <i_f3d_flags>  (55) 
0

>  <s_epik_input>  (55) 
W0NIMl0xW0NIMl1DMTJbQ0BASF0zW0NIXT1DKFtDSDNdKVtDQEBIXTRbQ0BIXShbQ0gyXTQpW0NASF0yW0NAQEhdM1tDSDJdW0NIMl1bT0hd

>  <s_epik_cmdline>  (55) 
J2VwaWtfcHl0aG9uJywgJy1waHQnLCAnMi4wJywgJy1waCcsICc3LjAnLCAnLXRuJywgJzgnLCAnLW1hJywgJzIwMCcsICctaW1hZScsICc8aW5maWxlLm1hZT4nLCAnLW9tYWUnLCAnPG91dGZpbGUubWFlPic=

>  <r_lp_tautomer_probability>  (55) 
1

>  <r_epik_Ionization_Penalty>  (55) 
1.09721e-06

>  <r_epik_Ionization_Penalty_Charging>  (55) 
0

>  <r_epik_Ionization_Penalty_Neutral>  (55) 
1.09721e-06

>  <r_epik_State_Penalty>  (55) 
-0

>  <r_epik_Charging_Adjusted_Penalty>  (55) 
0

>  <i_epik_Tot_Q>  (55) 
0

>  <i_epik_Tot_abs_Q>  (55) 
0

>  <s_lp_Force_Field>  (55) 
OPLS3e

>  <r_lp_Energy>  (55) 
68.1937

>  <b_lp_Chiralities_Consistent>  (55) 
1

>  <s_lp_Variant>  (55) 
11:0-1

>  <s_i_glide_gridfile>  (55) 
pfpi4k_grid

>  <i_i_glide_lignum>  (55) 
21

>  <i_i_glide_rotatable_bonds>  (55) 
3

>  <r_i_docking_score>  (55) 
-2.468

>  <r_i_glide_ligand_efficiency>  (55) 
-0.164533

>  <r_i_glide_ligand_efficiency_sa>  (55) 
-0.405774

>  <r_i_glide_ligand_efficiency_ln>  (55) 
-0.665579

>  <r_i_glide_gscore>  (55) 
-2.468

>  <r_i_glide_lipo>  (55) 
-0.521057

>  <r_i_glide_hbond>  (55) 
0

>  <r_i_glide_metal>  (55) 
-0

>  <r_i_glide_rewards>  (55) 
-2.01608

>  <r_i_glide_evdw>  (55) 
-13.1775

>  <r_i_glide_ecoul>  (55) 
-0.400784

>  <r_i_glide_erotb>  (55) 
0.788129

>  <r_i_glide_esite>  (55) 
0

>  <r_i_glide_emodel>  (55) 
-14.4506

>  <r_i_glide_energy>  (55) 
-13.5783

>  <r_i_glide_einternal>  (55) 
1.64494

>  <r_i_glide_intrahb_reward>  (55) 
-0

>  <i_i_glide_confnum>  (55) 
4

>  <i_i_glide_posenum>  (55) 
16

>  <r_i_glide_eff_state_penalty>  (55) 
0

>  <ligand_id>  (55) 
11

>  <original_smiles>  (55) 
CC1=CC2C(CCO)C(C3CC13)C21CC1

>  <smiles>  (55) 
[H]OC([H])([H])C([H])([H])C1([H])C2([H])C([H])=C(C([H])([H])[H])C3([H])C([H])([H])C3([H])C1([H])C21C([H])([H])C1([H])[H]

$$$$
12:0:0
     RDKit          3D

 24 25  0  0  1  0  0  0  0  0999 V2000
    4.9850   -1.9823   -3.3567 C   0  0  0  0  0  0  0  0  0  0  0  0
    3.7081   -2.8136   -3.0842 C   0  0  0  0  0  0  0  0  0  0  0  0
    2.4281   -2.0366   -3.4049 C   0  0  0  0  0  0  0  0  0  0  0  0
    3.6679   -3.4211   -1.7557 N   0  0  0  0  0  0  0  0  0  0  0  0
    3.7350   -2.6749   -0.5589 C   0  0  0  0  0  0  0  0  0  0  0  0
    4.1493   -1.4534   -0.5820 N   0  0  0  0  0  0  0  0  0  0  0  0
    4.2983   -0.7761    0.5856 C   0  0  0  0  0  0  0  0  0  0  0  0
    4.0308   -1.2919    1.8291 C   0  0  0  0  0  0  0  0  0  0  0  0
    3.5459   -2.6177    1.8748 C   0  0  0  0  0  0  0  0  0  0  0  0
    3.1714   -3.4431    2.8534 N   0  0  0  0  0  0  0  0  0  0  0  0
    2.8366   -4.5836    2.1840 C   0  0  0  0  0  0  0  0  0  0  0  0
    2.9534   -4.5553    0.8573 N   0  0  0  0  0  0  0  0  0  0  0  0
    3.4146   -3.2808    0.6375 N   0  0  0  0  0  0  0  0  0  0  0  0
    5.0120   -1.6284   -4.3829 H   0  0  0  0  0  0  0  0  0  0  0  0
    5.8665   -2.5885   -3.1423 H   0  0  0  0  0  0  0  0  0  0  0  0
    5.0437   -1.0616   -2.7803 H   0  0  0  0  0  0  0  0  0  0  0  0
    3.7337   -3.6528   -3.7768 H   0  0  0  0  0  0  0  0  0  0  0  0
    2.4675   -1.6117   -4.4050 H   0  0  0  0  0  0  0  0  0  0  0  0
    2.2855   -1.2082   -2.7112 H   0  0  0  0  0  0  0  0  0  0  0  0
    1.5397   -2.6698   -3.3590 H   0  0  0  0  0  0  0  0  0  0  0  0
    4.6853    0.2396    0.4768 H   0  0  0  0  0  0  0  0  0  0  0  0
    4.1686   -0.7028    2.7431 H   0  0  0  0  0  0  0  0  0  0  0  0
    2.4805   -5.4593    2.6981 H   0  0  0  0  0  0  0  0  0  0  0  0
    3.3807   -4.4089   -1.6983 H   0  0  0  0  0  0  0  0  0  0  0  0
  1  2  1  0
  1 14  1  0
  1 15  1  0
  1 16  1  0
  2  3  1  0
  2  4  1  0
  2 17  1  0
  3 18  1  0
  3 19  1  0
  3 20  1  0
  4  5  1  0
  4 24  1  0
  5 13  1  0
  5  6  2  0
  6  7  1  0
  7  8  2  0
  7 21  1  0
  8  9  1  0
  8 22  1  0
  9 13  1  0
  9 10  2  0
 10 11  1  0
 11 12  2  0
 11 23  1  0
 12 13  1  0
M  END
>  <i_m_ct_stereo_status>  (56) 
1

>  <s_m_source_file>  (56) 
/var/tmp/pbs.5076255.sched01/tmpokz5906q/0mijyat0o.sdf

>  <i_m_source_file_index>  (56) 
22

>  <i_lp_mmshare_version>  (56) 
48012

>  <i_f3d_flags>  (56) 
0

>  <s_epik_input>  (56) 
W0NIM11bQ0hdKFtDSDNdKS9OPWMoL1tuSF1bY0hdW2NIXTEpbihjMTIpbltjSF1uMg==

>  <s_epik_cmdline>  (56) 
J2VwaWtfcHl0aG9uJywgJy1waHQnLCAnMi4wJywgJy1waCcsICc3LjAnLCAnLXRuJywgJzgnLCAnLW1hJywgJzIwMCcsICctaW1hZScsICc8aW5maWxlLm1hZT4nLCAnLW9tYWUnLCAnPG91dGZpbGUubWFlPic=

>  <r_lp_tautomer_probability>  (56) 
1

>  <r_epik_Ionization_Penalty>  (56) 
0.000498533

>  <r_epik_Ionization_Penalty_Charging>  (56) 
0

>  <r_epik_Ionization_Penalty_Neutral>  (56) 
0.000498533

>  <r_epik_State_Penalty>  (56) 
-0

>  <r_epik_Charging_Adjusted_Penalty>  (56) 
0

>  <i_epik_Tot_Q>  (56) 
0

>  <i_epik_Tot_abs_Q>  (56) 
0

>  <s_lp_Force_Field>  (56) 
OPLS3e

>  <r_lp_Energy>  (56) 
14.1172

>  <b_lp_Chiralities_Consistent>  (56) 
1

>  <s_lp_Variant>  (56) 
12:0-1

>  <s_i_glide_gridfile>  (56) 
pfpi4k_grid

>  <i_i_glide_lignum>  (56) 
22

>  <i_i_glide_rotatable_bonds>  (56) 
2

>  <r_i_docking_score>  (56) 
-3.96941

>  <r_i_glide_ligand_efficiency>  (56) 
-0.30534

>  <r_i_glide_ligand_efficiency_sa>  (56) 
-0.717956

>  <r_i_glide_ligand_efficiency_ln>  (56) 
-1.11346

>  <r_i_glide_gscore>  (56) 
-3.96941

>  <r_i_glide_lipo>  (56) 
-0.272341

>  <r_i_glide_hbond>  (56) 
-0.31446

>  <r_i_glide_metal>  (56) 
-0

>  <r_i_glide_rewards>  (56) 
-2.20087

>  <r_i_glide_evdw>  (56) 
-15.4151

>  <r_i_glide_ecoul>  (56) 
-2.46529

>  <r_i_glide_erotb>  (56) 
0

>  <r_i_glide_esite>  (56) 
-0.0412016

>  <r_i_glide_emodel>  (56) 
-22.4216

>  <r_i_glide_energy>  (56) 
-17.8804

>  <r_i_glide_einternal>  (56) 
0.586565

>  <r_i_glide_intrahb_reward>  (56) 
-0

>  <i_i_glide_confnum>  (56) 
2

>  <i_i_glide_posenum>  (56) 
20

>  <r_i_glide_eff_state_penalty>  (56) 
0

>  <ligand_id>  (56) 
12

>  <original_smiles>  (56) 
CC(C)N=c1[nH]ccc2ncnn12

>  <smiles>  (56) 
[H]c1nc2c([H])c([H])nc(N([H])C([H])(C([H])([H])[H])C([H])([H])[H])n2n1

$$$$
12:0:1
     RDKit          3D

 24 25  0  0  1  0  0  0  0  0999 V2000
   -4.0048    3.2290    9.1922 C   0  0  0  0  0  0  0  0  0  0  0  0
   -2.7717    2.5124    8.6241 C   0  0  0  0  0  0  0  0  0  0  0  0
   -1.5139    2.8373    9.4428 C   0  0  0  0  0  0  0  0  0  0  0  0
   -2.5937    2.8084    7.2025 N   0  0  0  0  0  0  0  0  0  0  0  0
   -2.0243    1.8983    6.2929 C   0  0  0  0  0  0  0  0  0  0  0  0
   -1.7847    0.6684    6.6608 N   0  0  0  0  0  0  0  0  0  0  0  0
   -1.2702   -0.1971    5.7260 C   0  0  0  0  0  0  0  0  0  0  0  0
   -0.9909    0.1249    4.4275 C   0  0  0  0  0  0  0  0  0  0  0  0
   -1.2538    1.4578    4.0322 C   0  0  0  0  0  0  0  0  0  0  0  0
   -1.1170    2.1224    2.8971 N   0  0  0  0  0  0  0  0  0  0  0  0
   -1.5447    3.3756    3.2204 C   0  0  0  0  0  0  0  0  0  0  0  0
   -1.9726    3.5601    4.4692 N   0  0  0  0  0  0  0  0  0  0  0  0
   -1.7764    2.3219    5.0105 N   0  0  0  0  0  0  0  0  0  0  0  0
   -4.1653    2.9446   10.2332 H   0  0  0  0  0  0  0  0  0  0  0  0
   -4.9108    2.9605    8.6473 H   0  0  0  0  0  0  0  0  0  0  0  0
   -3.8981    4.3130    9.1646 H   0  0  0  0  0  0  0  0  0  0  0  0
   -2.9526    1.4463    8.7279 H   0  0  0  0  0  0  0  0  0  0  0  0
   -1.6556    2.5585   10.4887 H   0  0  0  0  0  0  0  0  0  0  0  0
   -1.2819    3.9026    9.4202 H   0  0  0  0  0  0  0  0  0  0  0  0
   -0.6442    2.2904    9.0773 H   0  0  0  0  0  0  0  0  0  0  0  0
   -1.0965   -1.2033    6.0874 H   0  0  0  0  0  0  0  0  0  0  0  0
   -0.5788   -0.5868    3.7212 H   0  0  0  0  0  0  0  0  0  0  0  0
   -1.5400    4.1724    2.4899 H   0  0  0  0  0  0  0  0  0  0  0  0
   -2.7782    3.7422    6.8659 H   0  0  0  0  0  0  0  0  0  0  0  0
  1  2  1  0
  1 14  1  0
  1 15  1  0
  1 16  1  0
  2  3  1  0
  2  4  1  0
  2 17  1  0
  3 18  1  0
  3 19  1  0
  3 20  1  0
  4  5  1  0
  4 24  1  0
  5 13  1  0
  5  6  2  0
  6  7  1  0
  7  8  2  0
  7 21  1  0
  8  9  1  0
  8 22  1  0
  9 13  1  0
  9 10  2  0
 10 11  1  0
 11 12  2  0
 11 23  1  0
 12 13  1  0
M  END
>  <i_m_ct_stereo_status>  (57) 
1

>  <s_m_source_file>  (57) 
/var/tmp/pbs.5076255.sched01/tmpokz5906q/0mijyat0o.sdf

>  <i_m_source_file_index>  (57) 
22

>  <i_lp_mmshare_version>  (57) 
48012

>  <i_f3d_flags>  (57) 
0

>  <s_epik_input>  (57) 
W0NIM11bQ0hdKFtDSDNdKS9OPWMoL1tuSF1bY0hdW2NIXTEpbihjMTIpbltjSF1uMg==

>  <s_epik_cmdline>  (57) 
J2VwaWtfcHl0aG9uJywgJy1waHQnLCAnMi4wJywgJy1waCcsICc3LjAnLCAnLXRuJywgJzgnLCAnLW1hJywgJzIwMCcsICctaW1hZScsICc8aW5maWxlLm1hZT4nLCAnLW9tYWUnLCAnPG91dGZpbGUubWFlPic=

>  <r_lp_tautomer_probability>  (57) 
1

>  <r_epik_Ionization_Penalty>  (57) 
0.000498533

>  <r_epik_Ionization_Penalty_Charging>  (57) 
0

>  <r_epik_Ionization_Penalty_Neutral>  (57) 
0.000498533

>  <r_epik_State_Penalty>  (57) 
-0

>  <r_epik_Charging_Adjusted_Penalty>  (57) 
0

>  <i_epik_Tot_Q>  (57) 
0

>  <i_epik_Tot_abs_Q>  (57) 
0

>  <s_lp_Force_Field>  (57) 
OPLS3e

>  <r_lp_Energy>  (57) 
14.1172

>  <b_lp_Chiralities_Consistent>  (57) 
1

>  <s_lp_Variant>  (57) 
12:0-1

>  <s_i_glide_gridfile>  (57) 
pfpi4k_grid

>  <i_i_glide_lignum>  (57) 
22

>  <i_i_glide_rotatable_bonds>  (57) 
2

>  <r_i_docking_score>  (57) 
-3.96252

>  <r_i_glide_ligand_efficiency>  (57) 
-0.304809

>  <r_i_glide_ligand_efficiency_sa>  (57) 
-0.716709

>  <r_i_glide_ligand_efficiency_ln>  (57) 
-1.11152

>  <r_i_glide_gscore>  (57) 
-3.96252

>  <r_i_glide_lipo>  (57) 
-0.0658138

>  <r_i_glide_hbond>  (57) 
-0.16

>  <r_i_glide_metal>  (57) 
-0

>  <r_i_glide_rewards>  (57) 
-2.20087

>  <r_i_glide_evdw>  (57) 
-17.1971

>  <r_i_glide_ecoul>  (57) 
-3.70479

>  <r_i_glide_erotb>  (57) 
0

>  <r_i_glide_esite>  (57) 
-0.120266

>  <r_i_glide_emodel>  (57) 
-25.7904

>  <r_i_glide_energy>  (57) 
-20.9019

>  <r_i_glide_einternal>  (57) 
0.464458

>  <r_i_glide_intrahb_reward>  (57) 
-0

>  <i_i_glide_confnum>  (57) 
2

>  <i_i_glide_posenum>  (57) 
6

>  <r_i_glide_eff_state_penalty>  (57) 
0

>  <ligand_id>  (57) 
12

>  <original_smiles>  (57) 
CC(C)N=c1[nH]ccc2ncnn12

>  <smiles>  (57) 
[H]c1nc2c([H])c([H])nc(N([H])C([H])(C([H])([H])[H])C([H])([H])[H])n2n1

$$$$
12:0:2
     RDKit          3D

 24 25  0  0  1  0  0  0  0  0999 V2000
    4.7804   -3.9563   -3.6718 C   0  0  0  0  0  0  0  0  0  0  0  0
    3.5632   -3.1049   -3.2999 C   0  0  0  0  0  0  0  0  0  0  0  0
    3.7633   -1.6245   -3.6801 C   0  0  0  0  0  0  0  0  0  0  0  0
    3.1290   -3.3596   -1.9172 N   0  0  0  0  0  0  0  0  0  0  0  0
    3.5815   -2.6269   -0.7813 C   0  0  0  0  0  0  0  0  0  0  0  0
    4.2579   -1.5389   -0.9411 N   0  0  0  0  0  0  0  0  0  0  0  0
    4.6162   -0.8047    0.1691 C   0  0  0  0  0  0  0  0  0  0  0  0
    4.3493   -1.1607    1.4537 C   0  0  0  0  0  0  0  0  0  0  0  0
    3.6476   -2.3683    1.6643 C   0  0  0  0  0  0  0  0  0  0  0  0
    3.2282   -3.0484    2.7565 N   0  0  0  0  0  0  0  0  0  0  0  0
    2.6337   -4.1419    2.2092 C   0  0  0  0  0  0  0  0  0  0  0  0
    2.6800   -4.2215    0.8722 N   0  0  0  0  0  0  0  0  0  0  0  0
    3.2843   -3.0721    0.4851 N   0  0  0  0  0  0  0  0  0  0  0  0
    5.0281   -3.7876   -4.7144 H   0  0  0  0  0  0  0  0  0  0  0  0
    4.6012   -5.0285   -3.5793 H   0  0  0  0  0  0  0  0  0  0  0  0
    5.6530   -3.7017   -3.0634 H   0  0  0  0  0  0  0  0  0  0  0  0
    2.7268   -3.4719   -3.8873 H   0  0  0  0  0  0  0  0  0  0  0  0
    3.8947   -1.4723   -4.7456 H   0  0  0  0  0  0  0  0  0  0  0  0
    4.6435   -1.2180   -3.1814 H   0  0  0  0  0  0  0  0  0  0  0  0
    2.9098   -1.0418   -3.3488 H   0  0  0  0  0  0  0  0  0  0  0  0
    5.1227    0.1094   -0.0689 H   0  0  0  0  0  0  0  0  0  0  0  0
    4.6795   -0.5568    2.2945 H   0  0  0  0  0  0  0  0  0  0  0  0
    2.1748   -4.9085    2.8327 H   0  0  0  0  0  0  0  0  0  0  0  0
    2.5867   -4.2073   -1.7258 H   0  0  0  0  0  0  0  0  0  0  0  0
  1  2  1  0
  1 14  1  0
  1 15  1  0
  1 16  1  0
  2  3  1  0
  2  4  1  0
  2 17  1  0
  3 18  1  0
  3 19  1  0
  3 20  1  0
  4  5  1  0
  4 24  1  0
  5 13  1  0
  5  6  2  0
  6  7  1  0
  7  8  2  0
  7 21  1  0
  8  9  1  0
  8 22  1  0
  9 13  1  0
  9 10  2  0
 10 11  1  0
 11 12  2  0
 11 23  1  0
 12 13  1  0
M  END
>  <i_m_ct_stereo_status>  (58) 
1

>  <s_m_source_file>  (58) 
/var/tmp/pbs.5076255.sched01/tmpokz5906q/0mijyat0o.sdf

>  <i_m_source_file_index>  (58) 
22

>  <i_lp_mmshare_version>  (58) 
48012

>  <i_f3d_flags>  (58) 
0

>  <s_epik_input>  (58) 
W0NIM11bQ0hdKFtDSDNdKS9OPWMoL1tuSF1bY0hdW2NIXTEpbihjMTIpbltjSF1uMg==

>  <s_epik_cmdline>  (58) 
J2VwaWtfcHl0aG9uJywgJy1waHQnLCAnMi4wJywgJy1waCcsICc3LjAnLCAnLXRuJywgJzgnLCAnLW1hJywgJzIwMCcsICctaW1hZScsICc8aW5maWxlLm1hZT4nLCAnLW9tYWUnLCAnPG91dGZpbGUubWFlPic=

>  <r_lp_tautomer_probability>  (58) 
1

>  <r_epik_Ionization_Penalty>  (58) 
0.000498533

>  <r_epik_Ionization_Penalty_Charging>  (58) 
0

>  <r_epik_Ionization_Penalty_Neutral>  (58) 
0.000498533

>  <r_epik_State_Penalty>  (58) 
-0

>  <r_epik_Charging_Adjusted_Penalty>  (58) 
0

>  <i_epik_Tot_Q>  (58) 
0

>  <i_epik_Tot_abs_Q>  (58) 
0

>  <s_lp_Force_Field>  (58) 
OPLS3e

>  <r_lp_Energy>  (58) 
14.1172

>  <b_lp_Chiralities_Consistent>  (58) 
1

>  <s_lp_Variant>  (58) 
12:0-1

>  <s_i_glide_gridfile>  (58) 
pfpi4k_grid

>  <i_i_glide_lignum>  (58) 
22

>  <i_i_glide_rotatable_bonds>  (58) 
2

>  <r_i_docking_score>  (58) 
-3.90262

>  <r_i_glide_ligand_efficiency>  (58) 
-0.300201

>  <r_i_glide_ligand_efficiency_sa>  (58) 
-0.705874

>  <r_i_glide_ligand_efficiency_ln>  (58) 
-1.09472

>  <r_i_glide_gscore>  (58) 
-3.90262

>  <r_i_glide_lipo>  (58) 
-0.395552

>  <r_i_glide_hbond>  (58) 
-0.123736

>  <r_i_glide_metal>  (58) 
-0

>  <r_i_glide_rewards>  (58) 
-2.20087

>  <r_i_glide_evdw>  (58) 
-17.2775

>  <r_i_glide_ecoul>  (58) 
-1.71449

>  <r_i_glide_erotb>  (58) 
0

>  <r_i_glide_esite>  (58) 
-0.0614178

>  <r_i_glide_emodel>  (58) 
-22.5468

>  <r_i_glide_energy>  (58) 
-18.992

>  <r_i_glide_einternal>  (58) 
1.43923

>  <r_i_glide_intrahb_reward>  (58) 
-0

>  <i_i_glide_confnum>  (58) 
2

>  <i_i_glide_posenum>  (58) 
12

>  <r_i_glide_eff_state_penalty>  (58) 
0

>  <ligand_id>  (58) 
12

>  <original_smiles>  (58) 
CC(C)N=c1[nH]ccc2ncnn12

>  <smiles>  (58) 
[H]c1nc2c([H])c([H])nc(N([H])C([H])(C([H])([H])[H])C([H])([H])[H])n2n1

$$$$
14:0:0
     RDKit          3D

 36 40  0  0  1  0  0  0  0  0999 V2000
    2.2146   -3.2863   -2.2865 C   0  0  0  0  0  0  0  0  0  0  0  0
    3.3858   -3.1671   -1.3793 N   0  0  2  0  0  0  0  0  0  0  0  0
    4.5371   -2.4191   -2.0410 C   0  0  0  0  0  0  0  0  0  0  0  0
    4.7676   -0.9440   -1.5278 C   0  0  0  0  0  0  0  0  0  0  0  0
    4.6462   -0.8509   -0.0096 C   0  0  0  0  0  0  0  0  0  0  0  0
    5.5590   -0.6555    0.9458 C   0  0  0  0  0  0  0  0  0  0  0  0
    5.0510   -1.1314    2.3053 C   0  0  1  0  0  0  0  0  0  0  0  0
    4.8171   -0.0282    3.1562 O   0  0  0  0  0  0  0  0  0  0  0  0
    3.7320   -1.9187    1.9965 C   0  0  2  0  0  0  0  0  0  0  0  0
    3.9507   -3.5127    1.8460 C   0  0  1  0  0  0  0  0  0  0  0  0
    2.7744   -4.5566    1.8282 C   0  0  0  0  0  0  0  0  0  0  0  0
    2.7227   -5.2313    0.3750 C   0  0  0  0  0  0  0  0  0  0  0  0
    3.7056   -4.4600   -0.5807 C   0  0  2  0  0  0  0  0  0  0  0  0
    4.2494   -3.5345    0.4191 C   0  0  1  0  0  0  0  0  0  0  0  0
    3.0773   -2.6577   -0.0742 C   0  0  1  0  0  0  0  0  0  0  0  0
    3.3831   -1.3823    0.5583 C   0  0  2  0  0  0  0  0  0  0  0  0
    1.8827   -2.2951   -2.6051 H   0  0  0  0  0  0  0  0  0  0  0  0
    1.3662   -3.7941   -1.8233 H   0  0  0  0  0  0  0  0  0  0  0  0
    2.4858   -3.8510   -3.1805 H   0  0  0  0  0  0  0  0  0  0  0  0
    5.4657   -2.9837   -1.9267 H   0  0  0  0  0  0  0  0  0  0  0  0
    4.3795   -2.3923   -3.1173 H   0  0  0  0  0  0  0  0  0  0  0  0
    5.7257   -0.5528   -1.8765 H   0  0  0  0  0  0  0  0  0  0  0  0
    3.9953   -0.2964   -1.9452 H   0  0  0  0  0  0  0  0  0  0  0  0
    6.5911   -0.3776    0.7893 H   0  0  0  0  0  0  0  0  0  0  0  0
    5.7968   -1.7730    2.7749 H   0  0  0  0  0  0  0  0  0  0  0  0
    4.1863    0.5445    2.7482 H   0  0  0  0  0  0  0  0  0  0  0  0
    2.9455   -1.7060    2.7230 H   0  0  0  0  0  0  0  0  0  0  0  0
    4.7819   -3.8773    2.4545 H   0  0  0  0  0  0  0  0  0  0  0  0
    2.9263   -5.3123    2.6032 H   0  0  0  0  0  0  0  0  0  0  0  0
    1.8243   -4.0696    2.0707 H   0  0  0  0  0  0  0  0  0  0  0  0
    3.0988   -6.2478    0.4932 H   0  0  0  0  0  0  0  0  0  0  0  0
    1.7110   -5.3328   -0.0170 H   0  0  0  0  0  0  0  0  0  0  0  0
    4.4625   -5.0781   -1.0662 H   0  0  0  0  0  0  0  0  0  0  0  0
    5.2851   -3.2692    0.1955 H   0  0  0  0  0  0  0  0  0  0  0  0
    2.0426   -2.9110    0.1678 H   0  0  0  0  0  0  0  0  0  0  0  0
    2.5902   -0.6436    0.5051 H   0  0  0  0  0  0  0  0  0  0  0  0
  2  1  1  6
  1 17  1  0
  1 18  1  0
  1 19  1  0
  2 13  1  0
  2 15  1  0
  2  3  1  0
  3  4  1  0
  3 20  1  0
  3 21  1  0
  4  5  1  0
  4 22  1  0
  4 23  1  0
  5 16  1  0
  5  6  2  0
  6  7  1  0
  6 24  1  0
  7  8  1  0
  7  9  1  0
  7 25  1  1
  8 26  1  0
  9 16  1  0
  9 10  1  0
  9 27  1  1
 10 14  1  0
 10 11  1  0
 10 28  1  1
 11 12  1  0
 11 29  1  0
 11 30  1  0
 12 13  1  0
 12 31  1  0
 12 32  1  0
 13 14  1  0
 13 33  1  6
 14 15  1  0
 14 34  1  1
 15 16  1  0
 15 35  1  1
 16 36  1  1
M  CHG  1   2   1
M  END
>  <i_m_ct_stereo_status>  (59) 
1

>  <s_m_source_file>  (59) 
/var/tmp/pbs.5076255.sched01/tmpokz5906q/0mijyat0o.sdf

>  <i_m_source_file_index>  (59) 
24

>  <i_lp_mmshare_version>  (59) 
48012

>  <i_f3d_flags>  (59) 
0

>  <s_epik_input>  (59) 
W0NIM11bTkBAK10xMltDQEhdM1tDQEBIXTRbQ0BIXShbQ0gyXVtDSDJdMylbQ0BASF01W0NASF0oW0NAQEhdMjQpQyhbQ0gyXVtDSDJdMSk9W0NIXVtDQEhdNVtPSF0=

>  <s_epik_cmdline>  (59) 
J2VwaWtfcHl0aG9uJywgJy1waHQnLCAnMi4wJywgJy1waCcsICc3LjAnLCAnLXRuJywgJzgnLCAnLW1hJywgJzIwMCcsICctaW1hZScsICc8aW5maWxlLm1hZT4nLCAnLW9tYWUnLCAnPG91dGZpbGUubWFlPic=

>  <r_lp_tautomer_probability>  (59) 
1

>  <r_epik_Ionization_Penalty>  (59) 
1.45633e-06

>  <r_epik_Ionization_Penalty_Charging>  (59) 
0

>  <r_epik_Ionization_Penalty_Neutral>  (59) 
1.45633e-06

>  <r_epik_State_Penalty>  (59) 
-0

>  <r_epik_Charging_Adjusted_Penalty>  (59) 
0

>  <i_epik_Tot_Q>  (59) 
1

>  <i_epik_Tot_abs_Q>  (59) 
1

>  <s_lp_Force_Field>  (59) 
OPLS3e

>  <r_lp_Energy>  (59) 
110.181

>  <b_lp_Chiralities_Consistent>  (59) 
1

>  <s_lp_Variant>  (59) 
14:0-1

>  <s_i_glide_gridfile>  (59) 
pfpi4k_grid

>  <i_i_glide_lignum>  (59) 
24

>  <i_i_glide_rotatable_bonds>  (59) 
1

>  <r_i_docking_score>  (59) 
-3.81316

>  <r_i_glide_ligand_efficiency>  (59) 
-0.238322

>  <r_i_glide_ligand_efficiency_sa>  (59) 
-0.600535

>  <r_i_glide_ligand_efficiency_ln>  (59) 
-1.01075

>  <r_i_glide_gscore>  (59) 
-3.81316

>  <r_i_glide_lipo>  (59) 
-0.472401

>  <r_i_glide_hbond>  (59) 
0

>  <r_i_glide_metal>  (59) 
-0

>  <r_i_glide_rewards>  (59) 
-1.92058

>  <r_i_glide_evdw>  (59) 
-15.51

>  <r_i_glide_ecoul>  (59) 
-4.29785

>  <r_i_glide_erotb>  (59) 
0

>  <r_i_glide_esite>  (59) 
0

>  <r_i_glide_emodel>  (59) 
-25.0729

>  <r_i_glide_energy>  (59) 
-19.8078

>  <r_i_glide_einternal>  (59) 
0.00436062

>  <r_i_glide_intrahb_reward>  (59) 
-0

>  <i_i_glide_confnum>  (59) 
2

>  <i_i_glide_posenum>  (59) 
4

>  <r_i_glide_eff_state_penalty>  (59) 
0

>  <ligand_id>  (59) 
14

>  <original_smiles>  (59) 
C[N+]12CCC3=CC(O)C4C5CCC1C5C2C34

>  <smiles>  (59) 
[H]OC1([H])C([H])=C2C([H])([H])C([H])([H])[N+]3(C([H])([H])[H])C4([H])C([H])([H])C([H])([H])C5([H])C1([H])C2([H])C3([H])C54[H]

$$$$
14:0:1
     RDKit          3D

 36 40  0  0  1  0  0  0  0  0999 V2000
    3.6790   -4.5769   -0.2821 C   0  0  0  0  0  0  0  0  0  0  0  0
    4.2825   -3.5876   -1.2242 N   0  0  2  0  0  0  0  0  0  0  0  0
    4.8788   -4.1717   -2.5101 C   0  0  0  0  0  0  0  0  0  0  0  0
    4.0657   -3.8933   -3.8579 C   0  0  0  0  0  0  0  0  0  0  0  0
    3.5248   -2.4727   -3.9190 C   0  0  0  0  0  0  0  0  0  0  0  0
    3.8593   -1.4290   -4.6652 C   0  0  0  0  0  0  0  0  0  0  0  0
    3.4108   -0.1370   -4.0413 C   0  0  1  0  0  0  0  0  0  0  0  0
    2.3736    0.4659   -4.7663 O   0  0  0  0  0  0  0  0  0  0  0  0
    2.9665   -0.5615   -2.6190 C   0  0  2  0  0  0  0  0  0  0  0  0
    4.1345   -0.3610   -1.5448 C   0  0  1  0  0  0  0  0  0  0  0  0
    3.9061   -0.3090    0.0227 C   0  0  0  0  0  0  0  0  0  0  0  0
    4.5972   -1.5847    0.6861 C   0  0  0  0  0  0  0  0  0  0  0  0
    5.1140   -2.5121   -0.4752 C   0  0  2  0  0  0  0  0  0  0  0  0
    4.7389   -1.6718   -1.6130 C   0  0  1  0  0  0  0  0  0  0  0  0
    3.4139   -2.4774   -1.5023 C   0  0  1  0  0  0  0  0  0  0  0  0
    2.7091   -2.0960   -2.7349 C   0  0  2  0  0  0  0  0  0  0  0  0
    2.7877   -5.0561   -0.6966 H   0  0  0  0  0  0  0  0  0  0  0  0
    3.3337   -4.1015    0.6464 H   0  0  0  0  0  0  0  0  0  0  0  0
    4.4308   -5.3313   -0.0392 H   0  0  0  0  0  0  0  0  0  0  0  0
    5.8898   -3.7943   -2.6597 H   0  0  0  0  0  0  0  0  0  0  0  0
    5.0597   -5.2273   -2.3719 H   0  0  0  0  0  0  0  0  0  0  0  0
    4.6713   -4.1169   -4.7407 H   0  0  0  0  0  0  0  0  0  0  0  0
    3.1710   -4.5054   -3.9440 H   0  0  0  0  0  0  0  0  0  0  0  0
    4.5378   -1.4112   -5.5076 H   0  0  0  0  0  0  0  0  0  0  0  0
    4.2264    0.5881   -4.0280 H   0  0  0  0  0  0  0  0  0  0  0  0
    2.0214    1.1739   -4.2330 H   0  0  0  0  0  0  0  0  0  0  0  0
    2.0423   -0.0219   -2.3336 H   0  0  0  0  0  0  0  0  0  0  0  0
    4.7794    0.3917   -1.9777 H   0  0  0  0  0  0  0  0  0  0  0  0
    4.2787    0.6150    0.4685 H   0  0  0  0  0  0  0  0  0  0  0  0
    2.8332   -0.3156    0.2635 H   0  0  0  0  0  0  0  0  0  0  0  0
    5.4542   -1.2201    1.2502 H   0  0  0  0  0  0  0  0  0  0  0  0
    3.9585   -2.0917    1.4201 H   0  0  0  0  0  0  0  0  0  0  0  0
    6.1834   -2.7434   -0.4377 H   0  0  0  0  0  0  0  0  0  0  0  0
    5.4162   -1.7879   -2.4491 H   0  0  0  0  0  0  0  0  0  0  0  0
    2.7354   -2.3419   -0.6556 H   0  0  0  0  0  0  0  0  0  0  0  0
    1.6533   -2.4041   -2.7624 H   0  0  0  0  0  0  0  0  0  0  0  0
  2  1  1  1
  1 17  1  0
  1 18  1  0
  1 19  1  0
  2 13  1  0
  2 15  1  0
  2  3  1  0
  3  4  1  0
  3 20  1  0
  3 21  1  0
  4  5  1  0
  4 22  1  0
  4 23  1  0
  5 16  1  0
  5  6  2  0
  6  7  1  0
  6 24  1  0
  7  8  1  0
  7  9  1  0
  7 25  1  1
  8 26  1  0
  9 16  1  0
  9 10  1  0
  9 27  1  1
 10 14  1  0
 10 11  1  0
 10 28  1  6
 11 12  1  0
 11 29  1  0
 11 30  1  0
 12 13  1  0
 12 31  1  0
 12 32  1  0
 13 14  1  0
 13 33  1  1
 14 15  1  0
 14 34  1  6
 15 16  1  0
 15 35  1  1
 16 36  1  6
M  CHG  1   2   1
M  END
>  <i_m_ct_stereo_status>  (60) 
1

>  <s_m_source_file>  (60) 
/var/tmp/pbs.5076255.sched01/tmpokz5906q/0mijyat0o.sdf

>  <i_m_source_file_index>  (60) 
24

>  <i_lp_mmshare_version>  (60) 
48012

>  <i_f3d_flags>  (60) 
0

>  <s_epik_input>  (60) 
W0NIM11bTkBAK10xMltDQEhdM1tDQEBIXTRbQ0BIXShbQ0gyXVtDSDJdMylbQ0BASF01W0NASF0oW0NAQEhdMjQpQyhbQ0gyXVtDSDJdMSk9W0NIXVtDQEhdNVtPSF0=

>  <s_epik_cmdline>  (60) 
J2VwaWtfcHl0aG9uJywgJy1waHQnLCAnMi4wJywgJy1waCcsICc3LjAnLCAnLXRuJywgJzgnLCAnLW1hJywgJzIwMCcsICctaW1hZScsICc8aW5maWxlLm1hZT4nLCAnLW9tYWUnLCAnPG91dGZpbGUubWFlPic=

>  <r_lp_tautomer_probability>  (60) 
1

>  <r_epik_Ionization_Penalty>  (60) 
1.45633e-06

>  <r_epik_Ionization_Penalty_Charging>  (60) 
0

>  <r_epik_Ionization_Penalty_Neutral>  (60) 
1.45633e-06

>  <r_epik_State_Penalty>  (60) 
-0

>  <r_epik_Charging_Adjusted_Penalty>  (60) 
0

>  <i_epik_Tot_Q>  (60) 
1

>  <i_epik_Tot_abs_Q>  (60) 
1

>  <s_lp_Force_Field>  (60) 
OPLS3e

>  <r_lp_Energy>  (60) 
110.181

>  <b_lp_Chiralities_Consistent>  (60) 
1

>  <s_lp_Variant>  (60) 
14:0-1

>  <s_i_glide_gridfile>  (60) 
pfpi4k_grid

>  <i_i_glide_lignum>  (60) 
24

>  <i_i_glide_rotatable_bonds>  (60) 
1

>  <r_i_docking_score>  (60) 
-3.37069

>  <r_i_glide_ligand_efficiency>  (60) 
-0.210668

>  <r_i_glide_ligand_efficiency_sa>  (60) 
-0.530851

>  <r_i_glide_ligand_efficiency_ln>  (60) 
-0.89347

>  <r_i_glide_gscore>  (60) 
-3.37069

>  <r_i_glide_lipo>  (60) 
-0.282994

>  <r_i_glide_hbond>  (60) 
-0.32

>  <r_i_glide_metal>  (60) 
-0

>  <r_i_glide_rewards>  (60) 
-1.92058

>  <r_i_glide_evdw>  (60) 
-2.76088

>  <r_i_glide_ecoul>  (60) 
-4.64492

>  <r_i_glide_erotb>  (60) 
0

>  <r_i_glide_esite>  (60) 
-0.0123361

>  <r_i_glide_emodel>  (60) 
-11.0761

>  <r_i_glide_energy>  (60) 
-7.4058

>  <r_i_glide_einternal>  (60) 
0.496344

>  <r_i_glide_intrahb_reward>  (60) 
-0

>  <i_i_glide_confnum>  (60) 
2

>  <i_i_glide_posenum>  (60) 
2

>  <r_i_glide_eff_state_penalty>  (60) 
0

>  <ligand_id>  (60) 
14

>  <original_smiles>  (60) 
C[N+]12CCC3=CC(O)C4C5CCC1C5C2C34

>  <smiles>  (60) 
[H]OC1([H])C([H])=C2C([H])([H])C([H])([H])[N+]3(C([H])([H])[H])C4([H])C([H])([H])C([H])([H])C5([H])C1([H])C2([H])C3([H])C54[H]

$$$$
15:0:0
     RDKit          3D

 56 59  0  0  1  0  0  0  0  0999 V2000
    6.5620   -3.5692    0.0092 C   0  0  0  0  0  0  0  0  0  0  0  0
    5.4363   -4.1573    0.9133 C   0  0  1  0  0  0  0  0  0  0  0  0
    5.2340   -3.2019    2.1328 C   0  0  0  0  0  0  0  0  0  0  0  0
    4.7401   -1.8002    1.7237 C   0  0  0  0  0  0  0  0  0  0  0  0
    3.4424   -1.8756    0.8995 C   0  0  0  0  0  0  0  0  0  0  0  0
    3.5477   -2.8491   -0.2914 C   0  0  0  0  0  0  0  0  0  0  0  0
    4.0748   -4.2497    0.1284 C   0  0  2  0  0  0  0  0  0  0  0  0
    2.9635   -5.0620    0.8852 C   0  0  1  0  0  0  0  0  0  0  0  0
    1.8208   -5.2706    0.0730 O   0  0  0  0  0  0  0  0  0  0  0  0
    3.4676   -6.4539    1.2624 C   0  0  0  0  0  0  0  0  0  0  0  0
    4.7595   -6.4248    2.0902 C   0  0  2  0  0  0  0  0  0  0  0  0
    5.8700   -5.6082    1.3524 C   0  0  2  0  0  0  0  0  0  0  0  0
    7.1856   -5.6549    2.1713 C   0  0  0  0  0  0  0  0  0  0  0  0
    7.6512   -7.0898    2.4724 C   0  0  1  0  0  0  0  0  0  0  0  0
    8.9052   -7.0296    3.1441 O   0  0  0  0  0  0  0  0  0  0  0  0
    6.5705   -7.8970    3.2693 C   0  0  2  0  0  0  0  0  0  0  0  0
    6.4287   -7.3361    4.7274 C   0  0  0  0  0  0  0  0  0  0  0  0
    6.9220   -9.4219    3.2304 C   0  0  1  0  0  0  0  0  0  0  0  0
    6.4003  -10.0869    4.3663 O   0  0  0  0  0  0  0  0  0  0  0  0
    6.3028  -10.0039    1.9139 C   0  0  1  0  0  0  0  0  0  0  0  0
    5.8012  -11.3231    2.1216 O   0  0  0  0  0  0  0  0  0  0  0  0
    5.3152   -8.9464    1.3834 C   0  0  1  0  0  0  0  0  0  0  0  0
    4.0456   -9.4527    1.0024 O   0  0  0  0  0  0  0  0  0  0  0  0
    5.2118   -7.8698    2.5032 C   0  0  2  0  0  0  0  0  0  0  0  0
    7.4865   -3.3914    0.5506 H   0  0  0  0  0  0  0  0  0  0  0  0
    6.3256   -2.6334   -0.4773 H   0  0  0  0  0  0  0  0  0  0  0  0
    6.8007   -4.2416   -0.8054 H   0  0  0  0  0  0  0  0  0  0  0  0
    4.5286   -3.6194    2.8579 H   0  0  0  0  0  0  0  0  0  0  0  0
    6.1655   -3.0825    2.6851 H   0  0  0  0  0  0  0  0  0  0  0  0
    4.5855   -1.1804    2.6115 H   0  0  0  0  0  0  0  0  0  0  0  0
    5.5098   -1.2744    1.1585 H   0  0  0  0  0  0  0  0  0  0  0  0
    2.6276   -2.1932    1.5500 H   0  0  0  0  0  0  0  0  0  0  0  0
    3.1727   -0.8855    0.5365 H   0  0  0  0  0  0  0  0  0  0  0  0
    2.5733   -2.9201   -0.7844 H   0  0  0  0  0  0  0  0  0  0  0  0
    4.1815   -2.4148   -1.0650 H   0  0  0  0  0  0  0  0  0  0  0  0
    4.2672   -4.8142   -0.7839 H   0  0  0  0  0  0  0  0  0  0  0  0
    2.6605   -4.5422    1.7990 H   0  0  0  0  0  0  0  0  0  0  0  0
    2.1578   -5.4592   -0.8083 H   0  0  0  0  0  0  0  0  0  0  0  0
    2.6893   -6.9932    1.8032 H   0  0  0  0  0  0  0  0  0  0  0  0
    3.6442   -6.9970    0.3408 H   0  0  0  0  0  0  0  0  0  0  0  0
    4.5200   -5.9014    3.0196 H   0  0  0  0  0  0  0  0  0  0  0  0
    6.0626   -6.1670    0.4378 H   0  0  0  0  0  0  0  0  0  0  0  0
    8.0110   -5.1680    1.6574 H   0  0  0  0  0  0  0  0  0  0  0  0
    7.0505   -5.1048    3.0996 H   0  0  0  0  0  0  0  0  0  0  0  0
    7.8419   -7.5786    1.5086 H   0  0  0  0  0  0  0  0  0  0  0  0
    9.6013   -7.3084    2.5378 H   0  0  0  0  0  0  0  0  0  0  0  0
    5.6218   -7.8088    5.2884 H   0  0  0  0  0  0  0  0  0  0  0  0
    6.2050   -6.2673    4.7664 H   0  0  0  0  0  0  0  0  0  0  0  0
    7.3442   -7.4826    5.3019 H   0  0  0  0  0  0  0  0  0  0  0  0
    8.0035   -9.5843    3.2551 H   0  0  0  0  0  0  0  0  0  0  0  0
    5.4548  -10.1253    4.2473 H   0  0  0  0  0  0  0  0  0  0  0  0
    7.0684  -10.1205    1.1526 H   0  0  0  0  0  0  0  0  0  0  0  0
    5.2175  -11.6259    1.4119 H   0  0  0  0  0  0  0  0  0  0  0  0
    5.7797   -8.4810    0.5032 H   0  0  0  0  0  0  0  0  0  0  0  0
    4.1104  -10.3860    0.7453 H   0  0  0  0  0  0  0  0  0  0  0  0
    4.4506   -8.2474    3.1891 H   0  0  0  0  0  0  0  0  0  0  0  0
  2  1  1  6
  1 25  1  0
  1 26  1  0
  1 27  1  0
  2  7  1  0
  2 12  1  0
  2  3  1  0
  3  4  1  0
  3 28  1  0
  3 29  1  0
  4  5  1  0
  4 30  1  0
  4 31  1  0
  5  6  1  0
  5 32  1  0
  5 33  1  0
  6  7  1  0
  6 34  1  0
  6 35  1  0
  7  8  1  0
  7 36  1  6
  8  9  1  0
  8 10  1  0
  8 37  1  1
  9 38  1  0
 10 11  1  0
 10 39  1  0
 10 40  1  0
 11 24  1  0
 11 12  1  0
 11 41  1  1
 12 13  1  0
 12 42  1  6
 13 14  1  0
 13 43  1  0
 13 44  1  0
 14 15  1  0
 14 16  1  0
 14 45  1  6
 15 46  1  0
 16 24  1  0
 16 17  1  1
 16 18  1  0
 17 47  1  0
 17 48  1  0
 17 49  1  0
 18 19  1  0
 18 20  1  0
 18 50  1  6
 19 51  1  0
 20 21  1  0
 20 22  1  0
 20 52  1  6
 21 53  1  0
 22 23  1  0
 22 24  1  0
 22 54  1  6
 23 55  1  0
 24 56  1  1
M  END
>  <i_m_ct_stereo_status>  (61) 
1

>  <s_m_source_file>  (61) 
/var/tmp/pbs.5076255.sched01/tmpokz5906q/0mijyat0o.sdf

>  <i_m_source_file_index>  (61) 
25

>  <i_lp_mmshare_version>  (61) 
48012

>  <i_f3d_flags>  (61) 
0

>  <s_epik_input>  (61) 
W0NIMl0xW0NIMl1bQ0gyXVtDSDJdW0NAQEhdKFtDQEBdMTJbQ0gzXSlbQ0BASF0oW09IXSlbQ0gyXVtDQEBIXTNbQ0BASF0yW0NIMl1bQ0BASF0oW09IXSlbQ0BAXTQoW0NIM10pW0NAQEhdM1tDQEhdKFtPSF0pW0NASF0oW09IXSlbQ0BASF00W09IXQ==

>  <s_epik_cmdline>  (61) 
J2VwaWtfcHl0aG9uJywgJy1waHQnLCAnMi4wJywgJy1waCcsICc3LjAnLCAnLXRuJywgJzgnLCAnLW1hJywgJzIwMCcsICctaW1hZScsICc8aW5maWxlLm1hZT4nLCAnLW9tYWUnLCAnPG91dGZpbGUubWFlPic=

>  <r_lp_tautomer_probability>  (61) 
1

>  <r_epik_Ionization_Penalty>  (61) 
3.06454e-06

>  <r_epik_Ionization_Penalty_Charging>  (61) 
0

>  <r_epik_Ionization_Penalty_Neutral>  (61) 
3.06454e-06

>  <r_epik_State_Penalty>  (61) 
-0

>  <r_epik_Charging_Adjusted_Penalty>  (61) 
0

>  <i_epik_Tot_Q>  (61) 
0

>  <i_epik_Tot_abs_Q>  (61) 
0

>  <s_lp_Force_Field>  (61) 
OPLS3e

>  <r_lp_Energy>  (61) 
42.1819

>  <b_lp_Chiralities_Consistent>  (61) 
1

>  <s_lp_Variant>  (61) 
15:0-1

>  <s_i_glide_gridfile>  (61) 
pfpi4k_grid

>  <i_i_glide_lignum>  (61) 
25

>  <i_i_glide_rotatable_bonds>  (61) 
5

>  <r_i_docking_score>  (61) 
-5.20865

>  <r_i_glide_ligand_efficiency>  (61) 
-0.217027

>  <r_i_glide_ligand_efficiency_sa>  (61) 
-0.626015

>  <r_i_glide_ligand_efficiency_ln>  (61) 
-1.24667

>  <r_i_glide_gscore>  (61) 
-5.20865

>  <r_i_glide_lipo>  (61) 
-0.499872

>  <r_i_glide_hbond>  (61) 
-0.542602

>  <r_i_glide_metal>  (61) 
-0

>  <r_i_glide_rewards>  (61) 
-1.08781

>  <r_i_glide_evdw>  (61) 
-20.825

>  <r_i_glide_ecoul>  (61) 
-13.5808

>  <r_i_glide_erotb>  (61) 
0

>  <r_i_glide_esite>  (61) 
0

>  <r_i_glide_emodel>  (61) 
-44.7454

>  <r_i_glide_energy>  (61) 
-34.4058

>  <r_i_glide_einternal>  (61) 
3.15039

>  <r_i_glide_intrahb_reward>  (61) 
-0

>  <i_i_glide_confnum>  (61) 
1

>  <i_i_glide_posenum>  (61) 
8

>  <r_i_glide_eff_state_penalty>  (61) 
0

>  <ligand_id>  (61) 
15

>  <original_smiles>  (61) 
CC12CCCCC1C(O)CC1C2CC(O)C2(C)C(O)C(O)C(O)C12

>  <smiles>  (61) 
[H]OC1([H])C([H])(O[H])C2([H])C3([H])C([H])([H])C([H])(O[H])C4([H])C([H])([H])C([H])([H])C([H])([H])C([H])([H])C4(C([H])([H])[H])C3([H])C([H])([H])C([H])(O[H])C2(C([H])([H])[H])C1([H])O[H]

$$$$
15:0:1
     RDKit          3D

 56 59  0  0  1  0  0  0  0  0999 V2000
    6.6524   -5.2613    1.2190 C   0  0  0  0  0  0  0  0  0  0  0  0
    5.3317   -4.4419    1.1442 C   0  0  1  0  0  0  0  0  0  0  0  0
    5.5255   -3.0732    1.8741 C   0  0  0  0  0  0  0  0  0  0  0  0
    6.5820   -2.1888    1.1866 C   0  0  0  0  0  0  0  0  0  0  0  0
    6.2508   -1.9574   -0.2891 C   0  0  0  0  0  0  0  0  0  0  0  0
    6.0150   -3.2660   -1.0554 C   0  0  0  0  0  0  0  0  0  0  0  0
    4.9663   -4.1678   -0.3566 C   0  0  2  0  0  0  0  0  0  0  0  0
    3.5363   -3.5896   -0.5315 C   0  0  1  0  0  0  0  0  0  0  0  0
    3.2036   -3.4537   -1.8919 O   0  0  0  0  0  0  0  0  0  0  0  0
    2.5138   -4.5238    0.1055 C   0  0  0  0  0  0  0  0  0  0  0  0
    2.7678   -4.7636    1.6060 C   0  0  2  0  0  0  0  0  0  0  0  0
    4.2091   -5.3116    1.8170 C   0  0  2  0  0  0  0  0  0  0  0  0
    4.4564   -5.6170    3.3144 C   0  0  0  0  0  0  0  0  0  0  0  0
    3.4065   -6.5820    3.8809 C   0  0  1  0  0  0  0  0  0  0  0  0
    3.7641   -6.8679    5.2224 O   0  0  0  0  0  0  0  0  0  0  0  0
    1.9550   -6.0187    3.7611 C   0  0  2  0  0  0  0  0  0  0  0  0
    1.7678   -4.7898    4.6989 C   0  0  0  0  0  0  0  0  0  0  0  0
    0.9102   -7.1468    4.0293 C   0  0  1  0  0  0  0  0  0  0  0  0
   -0.3123   -6.6242    4.5333 O   0  0  0  0  0  0  0  0  0  0  0  0
    0.6777   -7.8789    2.6798 C   0  0  1  0  0  0  0  0  0  0  0  0
   -0.6989   -8.1872    2.4646 O   0  0  0  0  0  0  0  0  0  0  0  0
    1.3141   -6.9791    1.5905 C   0  0  1  0  0  0  0  0  0  0  0  0
    0.4488   -6.7714    0.4839 O   0  0  0  0  0  0  0  0  0  0  0  0
    1.6718   -5.6489    2.2855 C   0  0  2  0  0  0  0  0  0  0  0  0
    7.0148   -5.3699    2.2374 H   0  0  0  0  0  0  0  0  0  0  0  0
    7.4816   -4.8291    0.6672 H   0  0  0  0  0  0  0  0  0  0  0  0
    6.5191   -6.2680    0.8249 H   0  0  0  0  0  0  0  0  0  0  0  0
    4.5916   -2.5144    1.9255 H   0  0  0  0  0  0  0  0  0  0  0  0
    5.8173   -3.2210    2.9132 H   0  0  0  0  0  0  0  0  0  0  0  0
    6.6757   -1.2339    1.7056 H   0  0  0  0  0  0  0  0  0  0  0  0
    7.5580   -2.6633    1.2680 H   0  0  0  0  0  0  0  0  0  0  0  0
    5.3806   -1.3035   -0.3725 H   0  0  0  0  0  0  0  0  0  0  0  0
    7.0853   -1.4423   -0.7431 H   0  0  0  0  0  0  0  0  0  0  0  0
    5.7107   -3.0455   -2.0831 H   0  0  0  0  0  0  0  0  0  0  0  0
    6.9592   -3.8030   -1.1593 H   0  0  0  0  0  0  0  0  0  0  0  0
    4.9606   -5.1280   -0.8749 H   0  0  0  0  0  0  0  0  0  0  0  0
    3.4518   -2.5997   -0.0770 H   0  0  0  0  0  0  0  0  0  0  0  0
    3.1280   -4.3221   -2.2658 H   0  0  0  0  0  0  0  0  0  0  0  0
    1.5343   -4.0992   -0.0822 H   0  0  0  0  0  0  0  0  0  0  0  0
    2.5286   -5.4756   -0.4192 H   0  0  0  0  0  0  0  0  0  0  0  0
    2.7084   -3.7887    2.0978 H   0  0  0  0  0  0  0  0  0  0  0  0
    4.2237   -6.2772    1.3020 H   0  0  0  0  0  0  0  0  0  0  0  0
    5.4301   -6.0774    3.4784 H   0  0  0  0  0  0  0  0  0  0  0  0
    4.4639   -4.6926    3.8962 H   0  0  0  0  0  0  0  0  0  0  0  0
    3.4913   -7.5227    3.3242 H   0  0  0  0  0  0  0  0  0  0  0  0
    3.1727   -7.5217    5.5749 H   0  0  0  0  0  0  0  0  0  0  0  0
    0.7976   -4.3160    4.5675 H   0  0  0  0  0  0  0  0  0  0  0  0
    2.5036   -4.0050    4.5356 H   0  0  0  0  0  0  0  0  0  0  0  0
    1.8425   -5.0801    5.7466 H   0  0  0  0  0  0  0  0  0  0  0  0
    1.2706   -7.8612    4.7783 H   0  0  0  0  0  0  0  0  0  0  0  0
   -0.9309   -7.3476    4.5871 H   0  0  0  0  0  0  0  0  0  0  0  0
    1.2120   -8.8304    2.6992 H   0  0  0  0  0  0  0  0  0  0  0  0
   -0.7712   -8.7685    1.7146 H   0  0  0  0  0  0  0  0  0  0  0  0
    2.2177   -7.4728    1.2317 H   0  0  0  0  0  0  0  0  0  0  0  0
    0.2036   -7.6285    0.1530 H   0  0  0  0  0  0  0  0  0  0  0  0
    0.7510   -5.0713    2.3010 H   0  0  0  0  0  0  0  0  0  0  0  0
  2  1  1  6
  1 25  1  0
  1 26  1  0
  1 27  1  0
  2  7  1  0
  2 12  1  0
  2  3  1  0
  3  4  1  0
  3 28  1  0
  3 29  1  0
  4  5  1  0
  4 30  1  0
  4 31  1  0
  5  6  1  0
  5 32  1  0
  5 33  1  0
  6  7  1  0
  6 34  1  0
  6 35  1  0
  7  8  1  0
  7 36  1  6
  8  9  1  0
  8 10  1  0
  8 37  1  1
  9 38  1  0
 10 11  1  0
 10 39  1  0
 10 40  1  0
 11 24  1  0
 11 12  1  0
 11 41  1  1
 12 13  1  0
 12 42  1  6
 13 14  1  0
 13 43  1  0
 13 44  1  0
 14 15  1  0
 14 16  1  0
 14 45  1  6
 15 46  1  0
 16 24  1  0
 16 17  1  1
 16 18  1  0
 17 47  1  0
 17 48  1  0
 17 49  1  0
 18 19  1  0
 18 20  1  0
 18 50  1  1
 19 51  1  0
 20 21  1  0
 20 22  1  0
 20 52  1  1
 21 53  1  0
 22 23  1  0
 22 24  1  0
 22 54  1  6
 23 55  1  0
 24 56  1  1
M  END
>  <i_m_ct_stereo_status>  (62) 
1

>  <s_m_source_file>  (62) 
/var/tmp/pbs.5076255.sched01/tmpokz5906q/0mijyat0o.sdf

>  <i_m_source_file_index>  (62) 
25

>  <i_lp_mmshare_version>  (62) 
48012

>  <i_f3d_flags>  (62) 
0

>  <s_epik_input>  (62) 
W0NIMl0xW0NIMl1bQ0gyXVtDSDJdW0NAQEhdKFtDQEBdMTJbQ0gzXSlbQ0BASF0oW09IXSlbQ0gyXVtDQEBIXTNbQ0BASF0yW0NIMl1bQ0BASF0oW09IXSlbQ0BAXTQoW0NIM10pW0NAQEhdM1tDQEhdKFtPSF0pW0NASF0oW09IXSlbQ0BASF00W09IXQ==

>  <s_epik_cmdline>  (62) 
J2VwaWtfcHl0aG9uJywgJy1waHQnLCAnMi4wJywgJy1waCcsICc3LjAnLCAnLXRuJywgJzgnLCAnLW1hJywgJzIwMCcsICctaW1hZScsICc8aW5maWxlLm1hZT4nLCAnLW9tYWUnLCAnPG91dGZpbGUubWFlPic=

>  <r_lp_tautomer_probability>  (62) 
1

>  <r_epik_Ionization_Penalty>  (62) 
3.06454e-06

>  <r_epik_Ionization_Penalty_Charging>  (62) 
0

>  <r_epik_Ionization_Penalty_Neutral>  (62) 
3.06454e-06

>  <r_epik_State_Penalty>  (62) 
-0

>  <r_epik_Charging_Adjusted_Penalty>  (62) 
0

>  <i_epik_Tot_Q>  (62) 
0

>  <i_epik_Tot_abs_Q>  (62) 
0

>  <s_lp_Force_Field>  (62) 
OPLS3e

>  <r_lp_Energy>  (62) 
42.1819

>  <b_lp_Chiralities_Consistent>  (62) 
1

>  <s_lp_Variant>  (62) 
15:0-1

>  <s_i_glide_gridfile>  (62) 
pfpi4k_grid

>  <i_i_glide_lignum>  (62) 
25

>  <i_i_glide_rotatable_bonds>  (62) 
5

>  <r_i_docking_score>  (62) 
-4.40826

>  <r_i_glide_ligand_efficiency>  (62) 
-0.183678

>  <r_i_glide_ligand_efficiency_sa>  (62) 
-0.529818

>  <r_i_glide_ligand_efficiency_ln>  (62) 
-1.0551

>  <r_i_glide_gscore>  (62) 
-4.40826

>  <r_i_glide_lipo>  (62) 
-0.446725

>  <r_i_glide_hbond>  (62) 
-0.305527

>  <r_i_glide_metal>  (62) 
-0

>  <r_i_glide_rewards>  (62) 
-1.08781

>  <r_i_glide_evdw>  (62) 
-21.9664

>  <r_i_glide_ecoul>  (62) 
-9.7992

>  <r_i_glide_erotb>  (62) 
0

>  <r_i_glide_esite>  (62) 
0

>  <r_i_glide_emodel>  (62) 
-41.6572

>  <r_i_glide_energy>  (62) 
-31.7656

>  <r_i_glide_einternal>  (62) 
1.60424

>  <r_i_glide_intrahb_reward>  (62) 
-0

>  <i_i_glide_confnum>  (62) 
2

>  <i_i_glide_posenum>  (62) 
5

>  <r_i_glide_eff_state_penalty>  (62) 
0

>  <ligand_id>  (62) 
15

>  <original_smiles>  (62) 
CC12CCCCC1C(O)CC1C2CC(O)C2(C)C(O)C(O)C(O)C12

>  <smiles>  (62) 
[H]OC1([H])C([H])(O[H])C2([H])C3([H])C([H])([H])C([H])(O[H])C4([H])C([H])([H])C([H])([H])C([H])([H])C([H])([H])C4(C([H])([H])[H])C3([H])C([H])([H])C([H])(O[H])C2(C([H])([H])[H])C1([H])O[H]

$$$$
15:0:2
     RDKit          3D

 56 59  0  0  1  0  0  0  0  0999 V2000
    6.8175   -4.9757    1.1954 C   0  0  0  0  0  0  0  0  0  0  0  0
    5.3842   -4.3648    1.2377 C   0  0  1  0  0  0  0  0  0  0  0  0
    5.4172   -2.9912    1.9890 C   0  0  0  0  0  0  0  0  0  0  0  0
    6.2638   -1.9304    1.2533 C   0  0  0  0  0  0  0  0  0  0  0  0
    5.7857   -1.7290   -0.1929 C   0  0  0  0  0  0  0  0  0  0  0  0
    5.6890   -3.0536   -0.9709 C   0  0  0  0  0  0  0  0  0  0  0  0
    4.8533   -4.1210   -0.2154 C   0  0  2  0  0  0  0  0  0  0  0  0
    3.3357   -3.7763   -0.2358 C   0  0  1  0  0  0  0  0  0  0  0  0
    2.8630   -3.6501   -1.5547 O   0  0  0  0  0  0  0  0  0  0  0  0
    2.5313   -4.8891    0.4231 C   0  0  0  0  0  0  0  0  0  0  0  0
    2.9325   -5.0945    1.8836 C   0  0  2  0  0  0  0  0  0  0  0  0
    4.4569   -5.4055    1.9698 C   0  0  2  0  0  0  0  0  0  0  0  0
    4.8610   -5.6889    3.4357 C   0  0  0  0  0  0  0  0  0  0  0  0
    4.0110   -6.8072    4.0575 C   0  0  1  0  0  0  0  0  0  0  0  0
    4.5010   -7.0464    5.3667 O   0  0  0  0  0  0  0  0  0  0  0  0
    2.4814   -6.4764    4.0629 C   0  0  2  0  0  0  0  0  0  0  0  0
    2.1794   -5.3074    5.0503 C   0  0  0  0  0  0  0  0  0  0  0  0
    1.6457   -7.7712    4.3709 C   0  0  1  0  0  0  0  0  0  0  0  0
    0.4079   -7.4438    4.9888 O   0  0  0  0  0  0  0  0  0  0  0  0
    1.4291   -8.5162    3.0181 C   0  0  1  0  0  0  0  0  0  0  0  0
    0.1122   -9.0583    2.8669 O   0  0  0  0  0  0  0  0  0  0  0  0
    1.8323   -7.5091    1.9084 C   0  0  1  0  0  0  0  0  0  0  0  0
    0.8476   -7.4276    0.8842 O   0  0  0  0  0  0  0  0  0  0  0  0
    2.0302   -6.1462    2.6123 C   0  0  2  0  0  0  0  0  0  0  0  0
    7.2718   -5.0468    2.1834 H   0  0  0  0  0  0  0  0  0  0  0  0
    7.5307   -4.4132    0.5969 H   0  0  0  0  0  0  0  0  0  0  0  0
    6.8058   -5.9883    0.7825 H   0  0  0  0  0  0  0  0  0  0  0  0
    4.4142   -2.5858    2.1217 H   0  0  0  0  0  0  0  0  0  0  0  0
    5.8097   -3.0957    3.0002 H   0  0  0  0  0  0  0  0  0  0  0  0
    6.2388   -0.9817    1.7918 H   0  0  0  0  0  0  0  0  0  0  0  0
    7.3116   -2.2254    1.2540 H   0  0  0  0  0  0  0  0  0  0  0  0
    4.8112   -1.2373   -0.1863 H   0  0  0  0  0  0  0  0  0  0  0  0
    6.4603   -1.0493   -0.7090 H   0  0  0  0  0  0  0  0  0  0  0  0
    5.2704   -2.8670   -1.9653 H   0  0  0  0  0  0  0  0  0  0  0  0
    6.6907   -3.4358   -1.1841 H   0  0  0  0  0  0  0  0  0  0  0  0
    4.9529   -5.0581   -0.7611 H   0  0  0  0  0  0  0  0  0  0  0  0
    3.1349   -2.8225    0.2554 H   0  0  0  0  0  0  0  0  0  0  0  0
    2.9928   -4.4812   -2.0021 H   0  0  0  0  0  0  0  0  0  0  0  0
    1.4711   -4.6753    0.3504 H   0  0  0  0  0  0  0  0  0  0  0  0
    2.6806   -5.8076   -0.1432 H   0  0  0  0  0  0  0  0  0  0  0  0
    2.7623   -4.1461    2.4039 H   0  0  0  0  0  0  0  0  0  0  0  0
    4.5775   -6.3513    1.4357 H   0  0  0  0  0  0  0  0  0  0  0  0
    5.8986   -6.0081    3.5181 H   0  0  0  0  0  0  0  0  0  0  0  0
    4.7837   -4.7810    4.0341 H   0  0  0  0  0  0  0  0  0  0  0  0
    4.2001   -7.7227    3.4895 H   0  0  0  0  0  0  0  0  0  0  0  0
    4.3507   -6.2618    5.8756 H   0  0  0  0  0  0  0  0  0  0  0  0
    1.1430   -4.9762    4.9978 H   0  0  0  0  0  0  0  0  0  0  0  0
    2.7786   -4.4161    4.8515 H   0  0  0  0  0  0  0  0  0  0  0  0
    2.3765   -5.5915    6.0894 H   0  0  0  0  0  0  0  0  0  0  0  0
    2.1806   -8.4367    5.0636 H   0  0  0  0  0  0  0  0  0  0  0  0
    0.5975   -7.0721    5.8400 H   0  0  0  0  0  0  0  0  0  0  0  0
    2.1244   -9.3629    2.9725 H   0  0  0  0  0  0  0  0  0  0  0  0
    0.0552   -9.5351    2.0457 H   0  0  0  0  0  0  0  0  0  0  0  0
    2.7790   -7.8430    1.4699 H   0  0  0  0  0  0  0  0  0  0  0  0
    0.6498   -8.2742    0.5627 H   0  0  0  0  0  0  0  0  0  0  0  0
    1.0345   -5.7119    2.6956 H   0  0  0  0  0  0  0  0  0  0  0  0
  2  1  1  6
  1 25  1  0
  1 26  1  0
  1 27  1  0
  2  7  1  0
  2 12  1  0
  2  3  1  0
  3  4  1  0
  3 28  1  0
  3 29  1  0
  4  5  1  0
  4 30  1  0
  4 31  1  0
  5  6  1  0
  5 32  1  0
  5 33  1  0
  6  7  1  0
  6 34  1  0
  6 35  1  0
  7  8  1  0
  7 36  1  6
  8  9  1  0
  8 10  1  0
  8 37  1  1
  9 38  1  0
 10 11  1  0
 10 39  1  0
 10 40  1  0
 11 24  1  0
 11 12  1  0
 11 41  1  1
 12 13  1  0
 12 42  1  6
 13 14  1  0
 13 43  1  0
 13 44  1  0
 14 15  1  0
 14 16  1  0
 14 45  1  6
 15 46  1  0
 16 24  1  0
 16 17  1  1
 16 18  1  0
 17 47  1  0
 17 48  1  0
 17 49  1  0
 18 19  1  0
 18 20  1  0
 18 50  1  1
 19 51  1  0
 20 21  1  0
 20 22  1  0
 20 52  1  1
 21 53  1  0
 22 23  1  0
 22 24  1  0
 22 54  1  6
 23 55  1  0
 24 56  1  1
M  END
>  <i_m_ct_stereo_status>  (63) 
1

>  <s_m_source_file>  (63) 
/var/tmp/pbs.5076255.sched01/tmpokz5906q/0mijyat0o.sdf

>  <i_m_source_file_index>  (63) 
25

>  <i_lp_mmshare_version>  (63) 
48012

>  <i_f3d_flags>  (63) 
0

>  <s_epik_input>  (63) 
W0NIMl0xW0NIMl1bQ0gyXVtDSDJdW0NAQEhdKFtDQEBdMTJbQ0gzXSlbQ0BASF0oW09IXSlbQ0gyXVtDQEBIXTNbQ0BASF0yW0NIMl1bQ0BASF0oW09IXSlbQ0BAXTQoW0NIM10pW0NAQEhdM1tDQEhdKFtPSF0pW0NASF0oW09IXSlbQ0BASF00W09IXQ==

>  <s_epik_cmdline>  (63) 
J2VwaWtfcHl0aG9uJywgJy1waHQnLCAnMi4wJywgJy1waCcsICc3LjAnLCAnLXRuJywgJzgnLCAnLW1hJywgJzIwMCcsICctaW1hZScsICc8aW5maWxlLm1hZT4nLCAnLW9tYWUnLCAnPG91dGZpbGUubWFlPic=

>  <r_lp_tautomer_probability>  (63) 
1

>  <r_epik_Ionization_Penalty>  (63) 
3.06454e-06

>  <r_epik_Ionization_Penalty_Charging>  (63) 
0

>  <r_epik_Ionization_Penalty_Neutral>  (63) 
3.06454e-06

>  <r_epik_State_Penalty>  (63) 
-0

>  <r_epik_Charging_Adjusted_Penalty>  (63) 
0

>  <i_epik_Tot_Q>  (63) 
0

>  <i_epik_Tot_abs_Q>  (63) 
0

>  <s_lp_Force_Field>  (63) 
OPLS3e

>  <r_lp_Energy>  (63) 
42.1819

>  <b_lp_Chiralities_Consistent>  (63) 
1

>  <s_lp_Variant>  (63) 
15:0-1

>  <s_i_glide_gridfile>  (63) 
pfpi4k_grid

>  <i_i_glide_lignum>  (63) 
25

>  <i_i_glide_rotatable_bonds>  (63) 
5

>  <r_i_docking_score>  (63) 
-4.06894

>  <r_i_glide_ligand_efficiency>  (63) 
-0.169539

>  <r_i_glide_ligand_efficiency_sa>  (63) 
-0.489036

>  <r_i_glide_ligand_efficiency_ln>  (63) 
-0.973884

>  <r_i_glide_gscore>  (63) 
-4.06894

>  <r_i_glide_lipo>  (63) 
-0.421104

>  <r_i_glide_hbond>  (63) 
-0.301238

>  <r_i_glide_metal>  (63) 
-0

>  <r_i_glide_rewards>  (63) 
-1.08781

>  <r_i_glide_evdw>  (63) 
-20.6086

>  <r_i_glide_ecoul>  (63) 
-8.18906

>  <r_i_glide_erotb>  (63) 
0

>  <r_i_glide_esite>  (63) 
0

>  <r_i_glide_emodel>  (63) 
-38.1406

>  <r_i_glide_energy>  (63) 
-28.7976

>  <r_i_glide_einternal>  (63) 
1.24882

>  <r_i_glide_intrahb_reward>  (63) 
-0

>  <i_i_glide_confnum>  (63) 
2

>  <i_i_glide_posenum>  (63) 
4

>  <r_i_glide_eff_state_penalty>  (63) 
0

>  <ligand_id>  (63) 
15

>  <original_smiles>  (63) 
CC12CCCCC1C(O)CC1C2CC(O)C2(C)C(O)C(O)C(O)C12

>  <smiles>  (63) 
[H]OC1([H])C([H])(O[H])C2([H])C3([H])C([H])([H])C([H])(O[H])C4([H])C([H])([H])C([H])([H])C([H])([H])C([H])([H])C4(C([H])([H])[H])C3([H])C([H])([H])C([H])(O[H])C2(C([H])([H])[H])C1([H])O[H]

$$$$
17:0:0
     RDKit          3D

 63 66  0  0  1  0  0  0  0  0999 V2000
    6.0047   -1.4555    1.5262 C   0  0  0  0  0  0  0  0  0  0  0  0
    4.8655   -2.3907    1.1334 C   0  0  0  0  0  0  0  0  0  0  0  0
    4.2158   -2.1629   -0.0222 C   0  0  0  0  0  0  0  0  0  0  0  0
    3.1277   -3.0259   -0.5937 C   0  0  1  0  0  0  0  0  0  0  0  0
    3.5703   -3.4584   -1.8655 O   0  0  0  0  0  0  0  0  0  0  0  0
    2.6810   -4.1506    0.3803 C   0  0  1  0  0  0  0  0  0  0  0  0
    1.8336   -5.0425   -0.3185 O   0  0  0  0  0  0  0  0  0  0  0  0
    3.8252   -4.7981    1.2407 C   0  0  2  0  0  0  0  0  0  0  0  0
    4.8006   -5.5160    0.2685 C   0  0  0  0  0  0  0  0  0  0  0  0
    3.3595   -5.8242    2.3335 C   0  0  2  0  0  0  0  0  0  0  0  0
    2.4689   -7.1036    2.2976 C   0  0  1  0  0  0  0  0  0  0  0  0
    1.3073   -7.0793    1.4892 O   0  0  0  0  0  0  0  0  0  0  0  0
    2.9917   -8.5313    2.3171 C   0  0  0  0  0  0  0  0  0  0  0  0
    4.0661   -8.8953    1.3058 C   0  0  0  0  0  0  0  0  0  0  0  0
    2.4052   -9.3965    3.1889 C   0  0  0  0  0  0  0  0  0  0  0  0
    2.7506  -10.8795    3.2795 C   0  0  0  0  0  0  0  0  0  0  0  0
    1.3481   -8.8961    4.2226 C   0  0  0  0  0  0  0  0  0  0  0  0
   -0.0384   -9.4437    3.8520 C   0  0  0  0  0  0  0  0  0  0  0  0
    1.7411   -9.2859    5.6638 C   0  0  0  0  0  0  0  0  0  0  0  0
    1.1632   -7.4626    4.2446 O   0  0  0  0  0  0  0  0  0  0  0  0
    2.3207   -6.7874    3.8065 C   0  0  2  0  0  0  0  0  0  0  0  0
    2.4438   -5.2965    3.4798 C   0  0  2  0  0  0  0  0  0  0  0  0
    1.1956   -4.7114    3.1679 O   0  0  0  0  0  0  0  0  0  0  0  0
    3.1813   -4.2315    4.3025 C   0  0  1  0  0  0  0  0  0  0  0  0
    4.2520   -4.7997    5.2638 C   0  0  0  0  0  0  0  0  0  0  0  0
    3.7369   -3.1397    3.3151 C   0  0  1  0  0  0  0  0  0  0  0  0
    4.3924   -2.1485    4.0791 O   0  0  0  0  0  0  0  0  0  0  0  0
    4.5544   -3.6094    2.0379 C   0  0  2  0  0  0  0  0  0  0  0  0
    5.7868   -4.1304    2.5028 O   0  0  0  0  0  0  0  0  0  0  0  0
    6.9353   -2.0031    1.6756 H   0  0  0  0  0  0  0  0  0  0  0  0
    5.7898   -0.8902    2.4293 H   0  0  0  0  0  0  0  0  0  0  0  0
    6.1924   -0.7237    0.7411 H   0  0  0  0  0  0  0  0  0  0  0  0
    4.4897   -1.3217   -0.6410 H   0  0  0  0  0  0  0  0  0  0  0  0
    2.2661   -2.3933   -0.7739 H   0  0  0  0  0  0  0  0  0  0  0  0
    3.2444   -4.3211   -2.0458 H   0  0  0  0  0  0  0  0  0  0  0  0
    2.0302   -3.6424    1.0840 H   0  0  0  0  0  0  0  0  0  0  0  0
    2.3146   -5.4577   -1.0284 H   0  0  0  0  0  0  0  0  0  0  0  0
    5.5937   -6.0442    0.7927 H   0  0  0  0  0  0  0  0  0  0  0  0
    5.2937   -4.8164   -0.4074 H   0  0  0  0  0  0  0  0  0  0  0  0
    4.2763   -6.2491   -0.3410 H   0  0  0  0  0  0  0  0  0  0  0  0
    4.2943   -6.1915    2.7680 H   0  0  0  0  0  0  0  0  0  0  0  0
    1.0514   -7.9843    1.3766 H   0  0  0  0  0  0  0  0  0  0  0  0
    3.6849   -8.7995    0.2963 H   0  0  0  0  0  0  0  0  0  0  0  0
    4.4223   -9.9161    1.4104 H   0  0  0  0  0  0  0  0  0  0  0  0
    4.9325   -8.2464    1.4090 H   0  0  0  0  0  0  0  0  0  0  0  0
    1.8909  -11.4743    3.5824 H   0  0  0  0  0  0  0  0  0  0  0  0
    3.5472  -11.0583    4.0002 H   0  0  0  0  0  0  0  0  0  0  0  0
    3.0533  -11.2847    2.3175 H   0  0  0  0  0  0  0  0  0  0  0  0
   -0.0902  -10.5312    3.9183 H   0  0  0  0  0  0  0  0  0  0  0  0
   -0.3054   -9.1631    2.8319 H   0  0  0  0  0  0  0  0  0  0  0  0
   -0.8087   -9.0484    4.5158 H   0  0  0  0  0  0  0  0  0  0  0  0
    1.7670  -10.3673    5.8093 H   0  0  0  0  0  0  0  0  0  0  0  0
    1.0329   -8.8808    6.3881 H   0  0  0  0  0  0  0  0  0  0  0  0
    2.7279   -8.8987    5.9199 H   0  0  0  0  0  0  0  0  0  0  0  0
    3.1728   -7.1066    4.4107 H   0  0  0  0  0  0  0  0  0  0  0  0
    1.3704   -3.8390    2.8577 H   0  0  0  0  0  0  0  0  0  0  0  0
    2.4668   -3.7262    4.9618 H   0  0  0  0  0  0  0  0  0  0  0  0
    5.0447   -5.3372    4.7481 H   0  0  0  0  0  0  0  0  0  0  0  0
    3.8017   -5.4830    5.9861 H   0  0  0  0  0  0  0  0  0  0  0  0
    4.7234   -4.0017    5.8439 H   0  0  0  0  0  0  0  0  0  0  0  0
    2.8634   -2.6200    2.9273 H   0  0  0  0  0  0  0  0  0  0  0  0
    4.5972   -1.4240    3.5054 H   0  0  0  0  0  0  0  0  0  0  0  0
    5.6055   -4.8465    3.0937 H   0  0  0  0  0  0  0  0  0  0  0  0
  1  2  1  0
  1 30  1  0
  1 31  1  0
  1 32  1  0
  2 28  1  0
  2  3  2  0
  3  4  1  0
  3 33  1  0
  4  5  1  0
  4  6  1  0
  4 34  1  6
  5 35  1  0
  6  7  1  0
  6  8  1  0
  6 36  1  1
  7 37  1  0
  8 28  1  0
  8  9  1  6
  8 10  1  0
  9 38  1  0
  9 39  1  0
  9 40  1  0
 10 22  1  0
 10 11  1  0
 10 41  1  1
 11 21  1  0
 11 12  1  6
 11 13  1  0
 12 42  1  0
 13 14  1  0
 13 15  2  0
 14 43  1  0
 14 44  1  0
 14 45  1  0
 15 16  1  0
 15 17  1  0
 16 46  1  0
 16 47  1  0
 16 48  1  0
 17 18  1  0
 17 19  1  0
 17 20  1  0
 18 49  1  0
 18 50  1  0
 18 51  1  0
 19 52  1  0
 19 53  1  0
 19 54  1  0
 20 21  1  0
 21 22  1  0
 21 55  1  1
 22 23  1  6
 22 24  1  0
 23 56  1  0
 24 25  1  0
 24 26  1  0
 24 57  1  1
 25 58  1  0
 25 59  1  0
 25 60  1  0
 26 27  1  0
 26 28  1  0
 26 61  1  6
 27 62  1  0
 28 29  1  1
 29 63  1  0
M  END
>  <i_m_ct_stereo_status>  (64) 
1

>  <s_m_source_file>  (64) 
/var/tmp/pbs.5076255.sched01/tmpokz5906q/0mijyat0o.sdf

>  <i_m_source_file_index>  (64) 
27

>  <i_lp_mmshare_version>  (64) 
48012

>  <i_f3d_flags>  (64) 
0

>  <s_epik_input>  (64) 
W09IXVtDQEBIXTFbQ0BIXShbT0hdKVtDSF09QyhbQ0gzXSlbQ0BAXTIoW09IXSlbQ0BIXShbT0hdKVtDQEhdKFtDSDNdKVtDQF0zKFtPSF0pW0NASF0oW0NAQF00KFtPSF0pW0NASF0zW0NAQF0xMltDSDNdKU9DKFtDSDNdKShbQ0gzXSlDKFtDSDNdKT1DNFtDSDNd

>  <s_epik_cmdline>  (64) 
J2VwaWtfcHl0aG9uJywgJy1waHQnLCAnMi4wJywgJy1waCcsICc3LjAnLCAnLXRuJywgJzgnLCAnLW1hJywgJzIwMCcsICctaW1hZScsICc8aW5maWxlLm1hZT4nLCAnLW9tYWUnLCAnPG91dGZpbGUubWFlPic=

>  <r_lp_tautomer_probability>  (64) 
1

>  <r_epik_Ionization_Penalty>  (64) 
3.60051e-07

>  <r_epik_Ionization_Penalty_Charging>  (64) 
0

>  <r_epik_Ionization_Penalty_Neutral>  (64) 
3.60051e-07

>  <r_epik_State_Penalty>  (64) 
-0

>  <r_epik_Charging_Adjusted_Penalty>  (64) 
0

>  <i_epik_Tot_Q>  (64) 
0

>  <i_epik_Tot_abs_Q>  (64) 
0

>  <s_lp_Force_Field>  (64) 
OPLS3e

>  <r_lp_Energy>  (64) 
80.144

>  <b_lp_Chiralities_Consistent>  (64) 
1

>  <s_lp_Variant>  (64) 
17:0-1

>  <s_i_glide_gridfile>  (64) 
pfpi4k_grid

>  <i_i_glide_lignum>  (64) 
27

>  <i_i_glide_rotatable_bonds>  (64) 
6

>  <r_i_docking_score>  (64) 
-4.0834

>  <r_i_glide_ligand_efficiency>  (64) 
-0.140807

>  <r_i_glide_ligand_efficiency_sa>  (64) 
-0.432603

>  <r_i_glide_ligand_efficiency_ln>  (64) 
-0.934994

>  <r_i_glide_gscore>  (64) 
-4.0834

>  <r_i_glide_lipo>  (64) 
-0.320906

>  <r_i_glide_hbond>  (64) 
0

>  <r_i_glide_metal>  (64) 
-0

>  <r_i_glide_rewards>  (64) 
-0.610219

>  <r_i_glide_evdw>  (64) 
-24.6412

>  <r_i_glide_ecoul>  (64) 
-12.8014

>  <r_i_glide_erotb>  (64) 
0

>  <r_i_glide_esite>  (64) 
0

>  <r_i_glide_emodel>  (64) 
-45.8518

>  <r_i_glide_energy>  (64) 
-37.4426

>  <r_i_glide_einternal>  (64) 
3.26084

>  <r_i_glide_intrahb_reward>  (64) 
-0

>  <i_i_glide_confnum>  (64) 
1

>  <i_i_glide_posenum>  (64) 
15

>  <r_i_glide_eff_state_penalty>  (64) 
0

>  <ligand_id>  (64) 
17

>  <original_smiles>  (64) 
CC1=CC(O)C(O)C2(C)C3C4(O)C(C)=C(C)C(C)(C)OC4C3(O)C(C)C(O)C12O

>  <smiles>  (64) 
[H]OC1([H])C([H])=C(C([H])([H])[H])C2(O[H])C([H])(O[H])C([H])(C([H])([H])[H])C3(O[H])C4([H])OC(C([H])([H])[H])(C([H])([H])[H])C(C([H])([H])[H])=C(C([H])([H])[H])C4(O[H])C3([H])C2(C([H])([H])[H])C1([H])O[H]

$$$$
17:0:1
     RDKit          3D

 63 66  0  0  1  0  0  0  0  0999 V2000
    5.9923   -1.4369    1.5071 C   0  0  0  0  0  0  0  0  0  0  0  0
    4.8612   -2.3714    1.0962 C   0  0  0  0  0  0  0  0  0  0  0  0
    4.2249   -2.1413   -0.0713 C   0  0  0  0  0  0  0  0  0  0  0  0
    3.1418   -3.0089   -0.6543 C   0  0  1  0  0  0  0  0  0  0  0  0
    3.6000   -3.4524   -1.9144 O   0  0  0  0  0  0  0  0  0  0  0  0
    2.6855   -4.1224    0.3256 C   0  0  1  0  0  0  0  0  0  0  0  0
    1.8204   -5.0113   -0.3535 O   0  0  0  0  0  0  0  0  0  0  0  0
    3.8228   -4.7766    1.1892 C   0  0  2  0  0  0  0  0  0  0  0  0
    4.8051   -5.4867    0.2168 C   0  0  0  0  0  0  0  0  0  0  0  0
    3.3450   -5.8097    2.2670 C   0  0  2  0  0  0  0  0  0  0  0  0
    2.4532   -7.0891    2.2109 C   0  0  1  0  0  0  0  0  0  0  0  0
    1.2905   -7.0633    1.4010 O   0  0  0  0  0  0  0  0  0  0  0  0
    2.9780   -8.5145    2.2226 C   0  0  0  0  0  0  0  0  0  0  0  0
    4.0691   -8.8716    1.2282 C   0  0  0  0  0  0  0  0  0  0  0  0
    2.3800   -9.3865    3.0869 C   0  0  0  0  0  0  0  0  0  0  0  0
    2.7276  -10.8671    3.1717 C   0  0  0  0  0  0  0  0  0  0  0  0
    1.3168   -8.8923    4.1143 C   0  0  0  0  0  0  0  0  0  0  0  0
   -0.0684   -9.4395    3.7325 C   0  0  0  0  0  0  0  0  0  0  0  0
    1.6977   -9.2922    5.5566 C   0  0  0  0  0  0  0  0  0  0  0  0
    1.1356   -7.4582    4.1473 O   0  0  0  0  0  0  0  0  0  0  0  0
    2.2976   -6.7840    3.7217 C   0  0  2  0  0  0  0  0  0  0  0  0
    2.4216   -5.2912    3.4110 C   0  0  2  0  0  0  0  0  0  0  0  0
    1.1772   -4.7010    3.0941 O   0  0  0  0  0  0  0  0  0  0  0  0
    3.1528   -4.2286    4.2408 C   0  0  1  0  0  0  0  0  0  0  0  0
    4.2154   -4.8040    5.2101 C   0  0  0  0  0  0  0  0  0  0  0  0
    3.7114   -3.1263    3.2661 C   0  0  1  0  0  0  0  0  0  0  0  0
    4.3657   -2.1431    4.0419 O   0  0  0  0  0  0  0  0  0  0  0  0
    4.5414   -3.5875    1.9964 C   0  0  2  0  0  0  0  0  0  0  0  0
    5.7660   -4.1042    2.4939 O   0  0  0  0  0  0  0  0  0  0  0  0
    6.9211   -1.9847    1.6655 H   0  0  0  0  0  0  0  0  0  0  0  0
    5.7590   -0.8837    2.4147 H   0  0  0  0  0  0  0  0  0  0  0  0
    6.1900   -0.6982    0.7323 H   0  0  0  0  0  0  0  0  0  0  0  0
    4.4961   -1.2921   -0.6762 H   0  0  0  0  0  0  0  0  0  0  0  0
    2.2862   -2.3675   -0.8399 H   0  0  0  0  0  0  0  0  0  0  0  0
    3.2249   -4.3047   -2.1114 H   0  0  0  0  0  0  0  0  0  0  0  0
    2.0392   -3.6071    1.0262 H   0  0  0  0  0  0  0  0  0  0  0  0
    2.2866   -5.4206   -1.0759 H   0  0  0  0  0  0  0  0  0  0  0  0
    5.5950   -6.0179    0.7423 H   0  0  0  0  0  0  0  0  0  0  0  0
    5.3030   -4.7848   -0.4530 H   0  0  0  0  0  0  0  0  0  0  0  0
    4.2849   -6.2158   -0.4023 H   0  0  0  0  0  0  0  0  0  0  0  0
    4.2797   -6.1857    2.6967 H   0  0  0  0  0  0  0  0  0  0  0  0
    1.0149   -7.9659    1.3140 H   0  0  0  0  0  0  0  0  0  0  0  0
    3.7165   -8.7770    0.2079 H   0  0  0  0  0  0  0  0  0  0  0  0
    4.4251   -9.8915    1.3355 H   0  0  0  0  0  0  0  0  0  0  0  0
    4.9329   -8.2217    1.3451 H   0  0  0  0  0  0  0  0  0  0  0  0
    1.8657  -11.4625    3.4670 H   0  0  0  0  0  0  0  0  0  0  0  0
    3.5192  -11.0485    3.8971 H   0  0  0  0  0  0  0  0  0  0  0  0
    3.0326  -11.2632    2.2079 H   0  0  0  0  0  0  0  0  0  0  0  0
   -0.1171  -10.5281    3.7916 H   0  0  0  0  0  0  0  0  0  0  0  0
   -0.3290   -9.1512    2.7126 H   0  0  0  0  0  0  0  0  0  0  0  0
   -0.8412   -9.0510    4.3977 H   0  0  0  0  0  0  0  0  0  0  0  0
    1.7211  -10.3752    5.6933 H   0  0  0  0  0  0  0  0  0  0  0  0
    0.9820   -8.8917    6.2764 H   0  0  0  0  0  0  0  0  0  0  0  0
    2.6831   -8.9066    5.8225 H   0  0  0  0  0  0  0  0  0  0  0  0
    3.1469   -7.1125    4.3268 H   0  0  0  0  0  0  0  0  0  0  0  0
    1.3683   -3.8733    2.6857 H   0  0  0  0  0  0  0  0  0  0  0  0
    2.4322   -3.7267    4.8972 H   0  0  0  0  0  0  0  0  0  0  0  0
    5.0076   -5.3398    4.6923 H   0  0  0  0  0  0  0  0  0  0  0  0
    3.7536   -5.4953    5.9183 H   0  0  0  0  0  0  0  0  0  0  0  0
    4.6805   -4.0132    5.8052 H   0  0  0  0  0  0  0  0  0  0  0  0
    2.8416   -2.6003    2.8770 H   0  0  0  0  0  0  0  0  0  0  0  0
    5.1733   -2.5139    4.3671 H   0  0  0  0  0  0  0  0  0  0  0  0
    5.5813   -4.8769    3.0052 H   0  0  0  0  0  0  0  0  0  0  0  0
  1  2  1  0
  1 30  1  0
  1 31  1  0
  1 32  1  0
  2 28  1  0
  2  3  2  0
  3  4  1  0
  3 33  1  0
  4  5  1  0
  4  6  1  0
  4 34  1  6
  5 35  1  0
  6  7  1  0
  6  8  1  0
  6 36  1  1
  7 37  1  0
  8 28  1  0
  8  9  1  6
  8 10  1  0
  9 38  1  0
  9 39  1  0
  9 40  1  0
 10 22  1  0
 10 11  1  0
 10 41  1  1
 11 21  1  0
 11 12  1  6
 11 13  1  0
 12 42  1  0
 13 14  1  0
 13 15  2  0
 14 43  1  0
 14 44  1  0
 14 45  1  0
 15 16  1  0
 15 17  1  0
 16 46  1  0
 16 47  1  0
 16 48  1  0
 17 18  1  0
 17 19  1  0
 17 20  1  0
 18 49  1  0
 18 50  1  0
 18 51  1  0
 19 52  1  0
 19 53  1  0
 19 54  1  0
 20 21  1  0
 21 22  1  0
 21 55  1  1
 22 23  1  6
 22 24  1  0
 23 56  1  0
 24 25  1  0
 24 26  1  0
 24 57  1  1
 25 58  1  0
 25 59  1  0
 25 60  1  0
 26 27  1  0
 26 28  1  0
 26 61  1  6
 27 62  1  0
 28 29  1  1
 29 63  1  0
M  END
>  <i_m_ct_stereo_status>  (65) 
1

>  <s_m_source_file>  (65) 
/var/tmp/pbs.5076255.sched01/tmpokz5906q/0mijyat0o.sdf

>  <i_m_source_file_index>  (65) 
27

>  <i_lp_mmshare_version>  (65) 
48012

>  <i_f3d_flags>  (65) 
0

>  <s_epik_input>  (65) 
W09IXVtDQEBIXTFbQ0BIXShbT0hdKVtDSF09QyhbQ0gzXSlbQ0BAXTIoW09IXSlbQ0BIXShbT0hdKVtDQEhdKFtDSDNdKVtDQF0zKFtPSF0pW0NASF0oW0NAQF00KFtPSF0pW0NASF0zW0NAQF0xMltDSDNdKU9DKFtDSDNdKShbQ0gzXSlDKFtDSDNdKT1DNFtDSDNd

>  <s_epik_cmdline>  (65) 
J2VwaWtfcHl0aG9uJywgJy1waHQnLCAnMi4wJywgJy1waCcsICc3LjAnLCAnLXRuJywgJzgnLCAnLW1hJywgJzIwMCcsICctaW1hZScsICc8aW5maWxlLm1hZT4nLCAnLW9tYWUnLCAnPG91dGZpbGUubWFlPic=

>  <r_lp_tautomer_probability>  (65) 
1

>  <r_epik_Ionization_Penalty>  (65) 
3.60051e-07

>  <r_epik_Ionization_Penalty_Charging>  (65) 
0

>  <r_epik_Ionization_Penalty_Neutral>  (65) 
3.60051e-07

>  <r_epik_State_Penalty>  (65) 
-0

>  <r_epik_Charging_Adjusted_Penalty>  (65) 
0

>  <i_epik_Tot_Q>  (65) 
0

>  <i_epik_Tot_abs_Q>  (65) 
0

>  <s_lp_Force_Field>  (65) 
OPLS3e

>  <r_lp_Energy>  (65) 
80.144

>  <b_lp_Chiralities_Consistent>  (65) 
1

>  <s_lp_Variant>  (65) 
17:0-1

>  <s_i_glide_gridfile>  (65) 
pfpi4k_grid

>  <i_i_glide_lignum>  (65) 
27

>  <i_i_glide_rotatable_bonds>  (65) 
6

>  <r_i_docking_score>  (65) 
-4.0351

>  <r_i_glide_ligand_efficiency>  (65) 
-0.139141

>  <r_i_glide_ligand_efficiency_sa>  (65) 
-0.427486

>  <r_i_glide_ligand_efficiency_ln>  (65) 
-0.923936

>  <r_i_glide_gscore>  (65) 
-4.0351

>  <r_i_glide_lipo>  (65) 
-0.309304

>  <r_i_glide_hbond>  (65) 
0

>  <r_i_glide_metal>  (65) 
-0

>  <r_i_glide_rewards>  (65) 
-0.610219

>  <r_i_glide_evdw>  (65) 
-24.3772

>  <r_i_glide_ecoul>  (65) 
-12.6448

>  <r_i_glide_erotb>  (65) 
0

>  <r_i_glide_esite>  (65) 
0

>  <r_i_glide_emodel>  (65) 
-45.5635

>  <r_i_glide_energy>  (65) 
-37.022

>  <r_i_glide_einternal>  (65) 
2.76442

>  <r_i_glide_intrahb_reward>  (65) 
-0

>  <i_i_glide_confnum>  (65) 
1

>  <i_i_glide_posenum>  (65) 
6

>  <r_i_glide_eff_state_penalty>  (65) 
0

>  <ligand_id>  (65) 
17

>  <original_smiles>  (65) 
CC1=CC(O)C(O)C2(C)C3C4(O)C(C)=C(C)C(C)(C)OC4C3(O)C(C)C(O)C12O

>  <smiles>  (65) 
[H]OC1([H])C([H])=C(C([H])([H])[H])C2(O[H])C([H])(O[H])C([H])(C([H])([H])[H])C3(O[H])C4([H])OC(C([H])([H])[H])(C([H])([H])[H])C(C([H])([H])[H])=C(C([H])([H])[H])C4(O[H])C3([H])C2(C([H])([H])[H])C1([H])O[H]

$$$$
17:0:2
     RDKit          3D

 63 66  0  0  1  0  0  0  0  0999 V2000
    4.5295   -0.0693   -2.7268 C   0  0  0  0  0  0  0  0  0  0  0  0
    3.8615   -1.2368   -2.0791 C   0  0  0  0  0  0  0  0  0  0  0  0
    2.8631   -1.7577   -2.7848 C   0  0  0  0  0  0  0  0  0  0  0  0
    2.1044   -2.9611   -2.4004 C   0  0  1  0  0  0  0  0  0  0  0  0
    2.2092   -3.8562   -3.4638 O   0  0  0  0  0  0  0  0  0  0  0  0
    2.4609   -3.4248   -0.9609 C   0  0  1  0  0  0  0  0  0  0  0  0
    1.8726   -4.6596   -0.7447 O   0  0  0  0  0  0  0  0  0  0  0  0
    3.9626   -3.3111   -0.5412 C   0  0  2  0  0  0  0  0  0  0  0  0
    4.8207   -4.1860   -1.4841 C   0  0  0  0  0  0  0  0  0  0  0  0
    4.2699   -3.7033    0.9430 C   0  0  2  0  0  0  0  0  0  0  0  0
    3.9843   -4.9759    1.8081 C   0  0  1  0  0  0  0  0  0  0  0  0
    2.7317   -5.6078    1.6629 O   0  0  0  0  0  0  0  0  0  0  0  0
    4.9978   -6.0484    2.1366 C   0  0  0  0  0  0  0  0  0  0  0  0
    5.7528   -6.6553    0.9680 C   0  0  0  0  0  0  0  0  0  0  0  0
    5.0946   -6.4401    3.4385 C   0  0  0  0  0  0  0  0  0  0  0  0
    5.9977   -7.5725    3.9070 C   0  0  0  0  0  0  0  0  0  0  0  0
    4.2799   -5.7082    4.5497 C   0  0  0  0  0  0  0  0  0  0  0  0
    3.1785   -6.6396    5.0899 C   0  0  0  0  0  0  0  0  0  0  0  0
    5.2093   -5.2154    5.6753 C   0  0  0  0  0  0  0  0  0  0  0  0
    3.5660   -4.5359    4.0983 O   0  0  0  0  0  0  0  0  0  0  0  0
    4.1699   -3.9644    2.9625 C   0  0  2  0  0  0  0  0  0  0  0  0
    3.5827   -2.8655    2.0718 C   0  0  2  0  0  0  0  0  0  0  0  0
    2.1763   -2.7981    2.1408 O   0  0  0  0  0  0  0  0  0  0  0  0
    4.0609   -1.4198    1.9942 C   0  0  1  0  0  0  0  0  0  0  0  0
    5.5057   -1.1748    2.5012 C   0  0  0  0  0  0  0  0  0  0  0  0
    3.8037   -0.9127    0.5322 C   0  0  1  0  0  0  0  0  0  0  0  0
    4.2053    0.4286    0.5274 O   0  0  0  0  0  0  0  0  0  0  0  0
    4.3488   -1.7771   -0.6967 C   0  0  2  0  0  0  0  0  0  0  0  0
    5.7648   -1.6577   -0.6454 O   0  0  0  0  0  0  0  0  0  0  0  0
    5.6022   -0.1773   -2.5929 H   0  0  0  0  0  0  0  0  0  0  0  0
    4.2204    0.7840   -2.1846 H   0  0  0  0  0  0  0  0  0  0  0  0
    4.2434    0.1369   -3.7726 H   0  0  0  0  0  0  0  0  0  0  0  0
    2.5955   -1.2865   -3.7221 H   0  0  0  0  0  0  0  0  0  0  0  0
    1.0516   -2.7016   -2.3998 H   0  0  0  0  0  0  0  0  0  0  0  0
    1.4497   -4.3590   -3.5371 H   0  0  0  0  0  0  0  0  0  0  0  0
    1.9004   -2.7751   -0.3047 H   0  0  0  0  0  0  0  0  0  0  0  0
    2.2057   -5.2361   -1.4316 H   0  0  0  0  0  0  0  0  0  0  0  0
    5.8748   -4.1726   -1.2189 H   0  0  0  0  0  0  0  0  0  0  0  0
    4.7307   -3.8753   -2.5296 H   0  0  0  0  0  0  0  0  0  0  0  0
    4.5150   -5.2230   -1.4101 H   0  0  0  0  0  0  0  0  0  0  0  0
    5.3552   -3.5917    1.0161 H   0  0  0  0  0  0  0  0  0  0  0  0
    2.7693   -6.0750    0.8413 H   0  0  0  0  0  0  0  0  0  0  0  0
    5.0478   -7.1546    0.3008 H   0  0  0  0  0  0  0  0  0  0  0  0
    6.4958   -7.3878    1.2768 H   0  0  0  0  0  0  0  0  0  0  0  0
    6.2877   -5.8858    0.4078 H   0  0  0  0  0  0  0  0  0  0  0  0
    5.5695   -8.0871    4.7654 H   0  0  0  0  0  0  0  0  0  0  0  0
    6.9769   -7.1939    4.1985 H   0  0  0  0  0  0  0  0  0  0  0  0
    6.1335   -8.3427    3.1474 H   0  0  0  0  0  0  0  0  0  0  0  0
    3.5787   -7.5310    5.5741 H   0  0  0  0  0  0  0  0  0  0  0  0
    2.5340   -6.9723    4.2738 H   0  0  0  0  0  0  0  0  0  0  0  0
    2.5450   -6.1241    5.8117 H   0  0  0  0  0  0  0  0  0  0  0  0
    5.7025   -6.0376    6.1927 H   0  0  0  0  0  0  0  0  0  0  0  0
    4.6508   -4.6497    6.4198 H   0  0  0  0  0  0  0  0  0  0  0  0
    5.9873   -4.5592    5.2838 H   0  0  0  0  0  0  0  0  0  0  0  0
    5.2157   -3.7428    3.1870 H   0  0  0  0  0  0  0  0  0  0  0  0
    1.9092   -2.1970    1.4526 H   0  0  0  0  0  0  0  0  0  0  0  0
    3.4377   -0.8057    2.6472 H   0  0  0  0  0  0  0  0  0  0  0  0
    6.2583   -1.7252    1.9377 H   0  0  0  0  0  0  0  0  0  0  0  0
    5.5986   -1.4616    3.5498 H   0  0  0  0  0  0  0  0  0  0  0  0
    5.7759   -0.1168    2.4545 H   0  0  0  0  0  0  0  0  0  0  0  0
    2.7256   -0.8378    0.4020 H   0  0  0  0  0  0  0  0  0  0  0  0
    4.7362    0.6152   -0.2103 H   0  0  0  0  0  0  0  0  0  0  0  0
    6.0544   -1.9883    0.1958 H   0  0  0  0  0  0  0  0  0  0  0  0
  1  2  1  0
  1 30  1  0
  1 31  1  0
  1 32  1  0
  2 28  1  0
  2  3  2  0
  3  4  1  0
  3 33  1  0
  4  5  1  0
  4  6  1  0
  4 34  1  1
  5 35  1  0
  6  7  1  0
  6  8  1  0
  6 36  1  1
  7 37  1  0
  8 28  1  0
  8  9  1  6
  8 10  1  0
  9 38  1  0
  9 39  1  0
  9 40  1  0
 10 22  1  0
 10 11  1  0
 10 41  1  1
 11 21  1  0
 11 12  1  6
 11 13  1  0
 12 42  1  0
 13 14  1  0
 13 15  2  0
 14 43  1  0
 14 44  1  0
 14 45  1  0
 15 16  1  0
 15 17  1  0
 16 46  1  0
 16 47  1  0
 16 48  1  0
 17 18  1  0
 17 19  1  0
 17 20  1  0
 18 49  1  0
 18 50  1  0
 18 51  1  0
 19 52  1  0
 19 53  1  0
 19 54  1  0
 20 21  1  0
 21 22  1  0
 21 55  1  1
 22 23  1  6
 22 24  1  0
 23 56  1  0
 24 25  1  0
 24 26  1  0
 24 57  1  1
 25 58  1  0
 25 59  1  0
 25 60  1  0
 26 27  1  0
 26 28  1  0
 26 61  1  6
 27 62  1  0
 28 29  1  6
 29 63  1  0
M  END
>  <i_m_ct_stereo_status>  (66) 
1

>  <s_m_source_file>  (66) 
/var/tmp/pbs.5076255.sched01/tmpokz5906q/0mijyat0o.sdf

>  <i_m_source_file_index>  (66) 
27

>  <i_lp_mmshare_version>  (66) 
48012

>  <i_f3d_flags>  (66) 
0

>  <s_epik_input>  (66) 
W09IXVtDQEBIXTFbQ0BIXShbT0hdKVtDSF09QyhbQ0gzXSlbQ0BAXTIoW09IXSlbQ0BIXShbT0hdKVtDQEhdKFtDSDNdKVtDQF0zKFtPSF0pW0NASF0oW0NAQF00KFtPSF0pW0NASF0zW0NAQF0xMltDSDNdKU9DKFtDSDNdKShbQ0gzXSlDKFtDSDNdKT1DNFtDSDNd

>  <s_epik_cmdline>  (66) 
J2VwaWtfcHl0aG9uJywgJy1waHQnLCAnMi4wJywgJy1waCcsICc3LjAnLCAnLXRuJywgJzgnLCAnLW1hJywgJzIwMCcsICctaW1hZScsICc8aW5maWxlLm1hZT4nLCAnLW9tYWUnLCAnPG91dGZpbGUubWFlPic=

>  <r_lp_tautomer_probability>  (66) 
1

>  <r_epik_Ionization_Penalty>  (66) 
3.60051e-07

>  <r_epik_Ionization_Penalty_Charging>  (66) 
0

>  <r_epik_Ionization_Penalty_Neutral>  (66) 
3.60051e-07

>  <r_epik_State_Penalty>  (66) 
-0

>  <r_epik_Charging_Adjusted_Penalty>  (66) 
0

>  <i_epik_Tot_Q>  (66) 
0

>  <i_epik_Tot_abs_Q>  (66) 
0

>  <s_lp_Force_Field>  (66) 
OPLS3e

>  <r_lp_Energy>  (66) 
80.144

>  <b_lp_Chiralities_Consistent>  (66) 
1

>  <s_lp_Variant>  (66) 
17:0-1

>  <s_i_glide_gridfile>  (66) 
pfpi4k_grid

>  <i_i_glide_lignum>  (66) 
27

>  <i_i_glide_rotatable_bonds>  (66) 
6

>  <r_i_docking_score>  (66) 
-3.20079

>  <r_i_glide_ligand_efficiency>  (66) 
-0.110372

>  <r_i_glide_ligand_efficiency_sa>  (66) 
-0.339098

>  <r_i_glide_ligand_efficiency_ln>  (66) 
-0.7329

>  <r_i_glide_gscore>  (66) 
-3.20079

>  <r_i_glide_lipo>  (66) 
-0.386694

>  <r_i_glide_hbond>  (66) 
0

>  <r_i_glide_metal>  (66) 
-0

>  <r_i_glide_rewards>  (66) 
-0.610219

>  <r_i_glide_evdw>  (66) 
-1.40654

>  <r_i_glide_ecoul>  (66) 
-14.2237

>  <r_i_glide_erotb>  (66) 
0

>  <r_i_glide_esite>  (66) 
0

>  <r_i_glide_emodel>  (66) 
-21.1471

>  <r_i_glide_energy>  (66) 
-15.6302

>  <r_i_glide_einternal>  (66) 
3.49998

>  <r_i_glide_intrahb_reward>  (66) 
-0

>  <i_i_glide_confnum>  (66) 
2

>  <i_i_glide_posenum>  (66) 
38

>  <r_i_glide_eff_state_penalty>  (66) 
0

>  <ligand_id>  (66) 
17

>  <original_smiles>  (66) 
CC1=CC(O)C(O)C2(C)C3C4(O)C(C)=C(C)C(C)(C)OC4C3(O)C(C)C(O)C12O

>  <smiles>  (66) 
[H]OC1([H])C([H])=C(C([H])([H])[H])C2(O[H])C([H])(O[H])C([H])(C([H])([H])[H])C3(O[H])C4([H])OC(C([H])([H])[H])(C([H])([H])[H])C(C([H])([H])[H])=C(C([H])([H])[H])C4(O[H])C3([H])C2(C([H])([H])[H])C1([H])O[H]

$$$$
18:0:0
     RDKit          3D

 73 79  0  0  1  0  0  0  0  0999 V2000
   -0.2215   -2.0186    4.6699 C   0  0  0  0  0  0  0  0  0  0  0  0
    0.2768   -0.8505    5.5517 C   0  0  2  0  0  0  0  0  0  0  0  0
   -0.9815   -0.1475    6.1225 C   0  0  1  0  0  0  0  0  0  0  0  0
   -0.7283    0.5394    7.3271 O   0  0  0  0  0  0  0  0  0  0  0  0
   -1.6456    0.7945    5.1226 C   0  0  0  0  0  0  0  0  0  0  0  0
   -0.6795    1.8615    4.6122 C   0  0  0  0  0  0  0  0  0  0  0  0
    0.6334    1.2797    4.0589 C   0  0  2  0  0  0  0  0  0  0  0  0
    0.6435    0.7744    2.6112 C   0  0  0  0  0  0  0  0  0  0  0  0
    2.1396    0.5117    2.6459 C   0  0  2  0  0  0  0  0  0  0  0  0
    2.7760    0.0751    1.3499 C   0  0  0  0  0  0  0  0  0  0  0  0
    3.4438   -1.0863    1.1361 C   0  0  0  0  0  0  0  0  0  0  0  0
    4.5871   -1.4285    0.1749 C   0  0  2  0  0  0  0  0  0  0  0  0
    4.3466   -1.0376   -1.2866 C   0  0  0  0  0  0  0  0  0  0  0  0
    4.6035   -2.2048   -2.2431 C   0  0  0  0  0  0  0  0  0  0  0  0
    4.3204   -1.7784   -3.6940 C   0  0  0  0  0  0  0  0  0  0  0  0
    6.0781   -2.6800   -2.1413 C   0  0  0  0  0  0  0  0  0  0  0  0
    3.6530   -3.3625   -1.8821 C   0  0  0  0  0  0  0  0  0  0  0  0
    3.1374   -3.4019   -0.4262 C   0  0  1  0  0  0  0  0  0  0  0  0
    2.5681   -4.6878   -0.2308 O   0  0  0  0  0  0  0  0  0  0  0  0
    4.1774   -2.8356    0.6348 C   0  0  1  0  0  0  0  0  0  0  0  0
    4.9044   -4.0466    1.1787 C   0  0  1  0  0  0  0  0  0  0  0  0
    6.1732   -3.6890    1.6578 O   0  0  0  0  0  0  0  0  0  0  0  0
    4.0077   -4.4619    2.2094 O   0  0  0  0  0  0  0  0  0  0  0  0
    2.9998   -3.4467    2.5031 C   0  0  0  0  0  0  0  0  0  0  0  0
    3.7634   -2.2390    2.0305 C   0  0  2  0  0  0  0  0  0  0  0  0
    4.5771   -1.6856    3.2486 C   0  0  1  0  0  0  0  0  0  0  0  0
    5.7134   -0.9386    2.8846 O   0  0  0  0  0  0  0  0  0  0  0  0
    3.7259   -0.8630    4.2639 C   0  0  0  0  0  0  0  0  0  0  0  0
    2.2758   -0.4591    3.8366 C   0  0  1  0  0  0  0  0  0  0  0  0
    1.3176    0.1618    4.9211 C   0  0  2  0  0  0  0  0  0  0  0  0
    2.1127    0.8126    6.0912 C   0  0  0  0  0  0  0  0  0  0  0  0
    2.6036    1.9251    3.0475 C   0  0  0  0  0  0  0  0  0  0  0  0
    1.5745    2.3471    3.9409 O   0  0  0  0  0  0  0  0  0  0  0  0
   -0.6783   -1.6694    3.7472 H   0  0  0  0  0  0  0  0  0  0  0  0
   -0.9804   -2.5987    5.1909 H   0  0  0  0  0  0  0  0  0  0  0  0
    0.5579   -2.7376    4.4201 H   0  0  0  0  0  0  0  0  0  0  0  0
    0.7746   -1.3554    6.3861 H   0  0  0  0  0  0  0  0  0  0  0  0
   -1.7031   -0.9077    6.4013 H   0  0  0  0  0  0  0  0  0  0  0  0
   -0.0774    1.2010    7.1595 H   0  0  0  0  0  0  0  0  0  0  0  0
   -2.0418    0.2205    4.2856 H   0  0  0  0  0  0  0  0  0  0  0  0
   -2.5004    1.2753    5.5924 H   0  0  0  0  0  0  0  0  0  0  0  0
   -1.1656    2.4530    3.8470 H   0  0  0  0  0  0  0  0  0  0  0  0
   -0.4450    2.5580    5.4203 H   0  0  0  0  0  0  0  0  0  0  0  0
    0.0483   -0.1197    2.4315 H   0  0  0  0  0  0  0  0  0  0  0  0
    0.3521    1.5392    1.8911 H   0  0  0  0  0  0  0  0  0  0  0  0
    2.8678    0.8398    0.6230 H   0  0  0  0  0  0  0  0  0  0  0  0
    5.6046   -1.2133    0.4895 H   0  0  0  0  0  0  0  0  0  0  0  0
    3.3176   -0.7117   -1.4306 H   0  0  0  0  0  0  0  0  0  0  0  0
    4.9706   -0.1994   -1.5829 H   0  0  0  0  0  0  0  0  0  0  0  0
    4.4773   -2.6182   -4.3743 H   0  0  0  0  0  0  0  0  0  0  0  0
    4.9822   -0.9717   -4.0113 H   0  0  0  0  0  0  0  0  0  0  0  0
    3.2941   -1.4314   -3.8234 H   0  0  0  0  0  0  0  0  0  0  0  0
    6.3139   -3.4536   -2.8754 H   0  0  0  0  0  0  0  0  0  0  0  0
    6.3194   -3.0948   -1.1651 H   0  0  0  0  0  0  0  0  0  0  0  0
    6.7767   -1.8606   -2.3155 H   0  0  0  0  0  0  0  0  0  0  0  0
    2.7779   -3.3560   -2.5484 H   0  0  0  0  0  0  0  0  0  0  0  0
    4.2093   -4.2639   -2.0997 H   0  0  0  0  0  0  0  0  0  0  0  0
    2.2793   -2.7433   -0.4079 H   0  0  0  0  0  0  0  0  0  0  0  0
    2.7163   -5.2074   -1.0175 H   0  0  0  0  0  0  0  0  0  0  0  0
    5.0577   -4.8508    0.4377 H   0  0  0  0  0  0  0  0  0  0  0  0
    6.5828   -4.4565    2.0128 H   0  0  0  0  0  0  0  0  0  0  0  0
    2.0646   -3.5722    1.9621 H   0  0  0  0  0  0  0  0  0  0  0  0
    2.7630   -3.4450    3.5655 H   0  0  0  0  0  0  0  0  0  0  0  0
    4.9740   -2.5278    3.8103 H   0  0  0  0  0  0  0  0  0  0  0  0
    6.2604   -1.5253    2.3786 H   0  0  0  0  0  0  0  0  0  0  0  0
    3.6208   -1.4787    5.1572 H   0  0  0  0  0  0  0  0  0  0  0  0
    4.2980    0.0066    4.5947 H   0  0  0  0  0  0  0  0  0  0  0  0
    1.8159   -1.3659    3.4725 H   0  0  0  0  0  0  0  0  0  0  0  0
    2.9781    1.3816    5.7532 H   0  0  0  0  0  0  0  0  0  0  0  0
    2.4801    0.0665    6.7993 H   0  0  0  0  0  0  0  0  0  0  0  0
    1.5074    1.5245    6.6482 H   0  0  0  0  0  0  0  0  0  0  0  0
    3.5830    1.9487    3.5203 H   0  0  0  0  0  0  0  0  0  0  0  0
    2.6237    2.6089    2.2013 H   0  0  0  0  0  0  0  0  0  0  0  0
  1  2  1  0
  1 34  1  0
  1 35  1  0
  1 36  1  0
  2 30  1  0
  2  3  1  0
  2 37  1  1
  3  4  1  0
  3  5  1  0
  3 38  1  1
  4 39  1  0
  5  6  1  0
  5 40  1  0
  5 41  1  0
  6  7  1  0
  6 42  1  0
  6 43  1  0
  7 30  1  0
  7 33  1  6
  7  8  1  0
  8  9  1  0
  8 44  1  0
  8 45  1  0
  9 29  1  0
  9 10  1  0
  9 32  1  1
 10 11  2  0
 10 46  1  0
 11 25  1  0
 11 12  1  0
 12 20  1  0
 12 13  1  0
 12 47  1  1
 13 14  1  0
 13 48  1  0
 13 49  1  0
 14 15  1  0
 14 16  1  0
 14 17  1  0
 15 50  1  0
 15 51  1  0
 15 52  1  0
 16 53  1  0
 16 54  1  0
 16 55  1  0
 17 18  1  0
 17 56  1  0
 17 57  1  0
 18 19  1  0
 18 20  1  0
 18 58  1  6
 19 59  1  0
 20 25  1  1
 20 21  1  0
 21 22  1  0
 21 23  1  0
 21 60  1  6
 22 61  1  0
 23 24  1  0
 25 24  1  1
 24 62  1  0
 24 63  1  0
 25 26  1  0
 26 27  1  0
 26 28  1  0
 26 64  1  1
 27 65  1  0
 28 29  1  0
 28 66  1  0
 28 67  1  0
 29 30  1  0
 29 68  1  6
 30 31  1  1
 31 69  1  0
 31 70  1  0
 31 71  1  0
 32 33  1  0
 32 72  1  0
 32 73  1  0
M  END
>  <i_m_ct_stereo_status>  (67) 
1

>  <s_m_source_file>  (67) 
/var/tmp/pbs.5076255.sched01/tmpokz5906q/0mijyat0o.sdf

>  <i_m_source_file_index>  (67) 
28

>  <i_lp_mmshare_version>  (67) 
48012

>  <i_f3d_flags>  (67) 
0

>  <s_epik_input>  (67) 
W0NIMl0xW0NIMl1bQ0BIXShbT0hdKVtDQEBIXShbQ0gzXSlbQ0BAXShbQ0BdMTIzKShbQ0gzXSlbQ0BIXTRbQ0BAXShbQ0gyXTIpKFtDSDJdTzMpW0NIXT1DNVtDQF02KFtDQEBIXShbT0hdKVtDSDJdNClbQ0BdNyhbQ0BASF0oW09IXSlPW0NIMl02KVtDQEhdNVtDSDJdQyhbQ0gzXSkoW0NIM10pW0NIMl1bQ0BIXTdbT0hd

>  <s_epik_cmdline>  (67) 
J2VwaWtfcHl0aG9uJywgJy1waHQnLCAnMi4wJywgJy1waCcsICc3LjAnLCAnLXRuJywgJzgnLCAnLW1hJywgJzIwMCcsICctaW1hZScsICc8aW5maWxlLm1hZT4nLCAnLW9tYWUnLCAnPG91dGZpbGUubWFlPic=

>  <r_lp_tautomer_probability>  (67) 
1

>  <r_epik_Ionization_Penalty>  (67) 
1.09564e-06

>  <r_epik_Ionization_Penalty_Charging>  (67) 
0

>  <r_epik_Ionization_Penalty_Neutral>  (67) 
1.09564e-06

>  <r_epik_State_Penalty>  (67) 
-0

>  <r_epik_Charging_Adjusted_Penalty>  (67) 
0

>  <i_epik_Tot_Q>  (67) 
0

>  <i_epik_Tot_abs_Q>  (67) 
0

>  <s_epik_Chemistry_Notes>  (67) 
This compound contains an acetal/aminal-like group ( X-CH(R)-Y where X, Y are N, S, or O) that may be acid/base labile, releasing an aldehyde.

>  <s_lp_Force_Field>  (67) 
OPLS3e

>  <r_lp_Energy>  (67) 
134.666

>  <b_lp_Chiralities_Consistent>  (67) 
1

>  <s_lp_Variant>  (67) 
18:0-1

>  <s_i_glide_gridfile>  (67) 
pfpi4k_grid

>  <i_i_glide_lignum>  (67) 
28

>  <i_i_glide_rotatable_bonds>  (67) 
4

>  <r_i_docking_score>  (67) 
-3.66826

>  <r_i_glide_ligand_efficiency>  (67) 
-0.11116

>  <r_i_glide_ligand_efficiency_sa>  (67) 
-0.356548

>  <r_i_glide_ligand_efficiency_ln>  (67) 
-0.815803

>  <r_i_glide_gscore>  (67) 
-3.66826

>  <r_i_glide_lipo>  (67) 
-0.270792

>  <r_i_glide_hbond>  (67) 
-0.0538614

>  <r_i_glide_metal>  (67) 
-0

>  <r_i_glide_rewards>  (67) 
-0.812978

>  <r_i_glide_evdw>  (67) 
-31.499

>  <r_i_glide_ecoul>  (67) 
-6.37122

>  <r_i_glide_erotb>  (67) 
0

>  <r_i_glide_esite>  (67) 
0

>  <r_i_glide_emodel>  (67) 
-49.7005

>  <r_i_glide_energy>  (67) 
-37.8702

>  <r_i_glide_einternal>  (67) 
2.06325

>  <r_i_glide_intrahb_reward>  (67) 
-0.5

>  <i_i_glide_confnum>  (67) 
1

>  <i_i_glide_posenum>  (67) 
34

>  <r_i_glide_eff_state_penalty>  (67) 
0

>  <ligand_id>  (67) 
18

>  <original_smiles>  (67) 
CC1C(O)CCC23CC4(C=C5C6CC(C)(C)CC(O)C67C(O)OCC57C(O)CC4C12C)CO3

>  <smiles>  (67) 
[H]OC1([H])OC([H])([H])C23C(=C([H])C45C([H])([H])OC6(C([H])([H])C([H])([H])C([H])(O[H])C([H])(C([H])([H])[H])C6(C([H])([H])[H])C4([H])C([H])([H])C2([H])O[H])C5([H])[H])C2([H])C([H])([H])C(C([H])([H])[H])(C([H])([H])[H])C([H])([H])C([H])(O[H])C123

$$$$
18:0:1
     RDKit          3D

 73 79  0  0  1  0  0  0  0  0999 V2000
   -0.3068   -1.9834    4.6496 C   0  0  0  0  0  0  0  0  0  0  0  0
    0.2171   -0.8378    5.5597 C   0  0  2  0  0  0  0  0  0  0  0  0
   -1.0227   -0.1182    6.1251 C   0  0  1  0  0  0  0  0  0  0  0  0
   -0.7661    0.5410    7.3491 O   0  0  0  0  0  0  0  0  0  0  0  0
   -1.6646    0.8614    5.1476 C   0  0  0  0  0  0  0  0  0  0  0  0
   -0.6755    1.9092    4.6686 C   0  0  0  0  0  0  0  0  0  0  0  0
    0.6228    1.3075    4.1029 C   0  0  2  0  0  0  0  0  0  0  0  0
    0.6125    0.8229    2.6460 C   0  0  0  0  0  0  0  0  0  0  0  0
    2.1081    0.5338    2.6791 C   0  0  2  0  0  0  0  0  0  0  0  0
    2.7497    0.0933    1.3737 C   0  0  0  0  0  0  0  0  0  0  0  0
    3.3872   -1.0654    1.1428 C   0  0  0  0  0  0  0  0  0  0  0  0
    4.5213   -1.4138    0.1696 C   0  0  2  0  0  0  0  0  0  0  0  0
    4.2903   -0.9936   -1.2796 C   0  0  0  0  0  0  0  0  0  0  0  0
    4.5056   -2.1477   -2.2652 C   0  0  0  0  0  0  0  0  0  0  0  0
    4.2306   -1.6867   -3.7122 C   0  0  0  0  0  0  0  0  0  0  0  0
    5.9695   -2.6589   -2.1749 C   0  0  0  0  0  0  0  0  0  0  0  0
    3.5217   -3.2818   -1.9284 C   0  0  0  0  0  0  0  0  0  0  0  0
    3.0358   -3.3598   -0.4630 C   0  0  1  0  0  0  0  0  0  0  0  0
    2.4333   -4.6499   -0.3140 O   0  0  0  0  0  0  0  0  0  0  0  0
    4.0779   -2.8305    0.6013 C   0  0  1  0  0  0  0  0  0  0  0  0
    4.7539   -4.0785    1.1104 C   0  0  1  0  0  0  0  0  0  0  0  0
    6.0579   -3.7651    1.6151 O   0  0  0  0  0  0  0  0  0  0  0  0
    3.8607   -4.4887    2.1452 O   0  0  0  0  0  0  0  0  0  0  0  0
    2.8828   -3.4450    2.4580 C   0  0  0  0  0  0  0  0  0  0  0  0
    3.6876   -2.2480    2.0191 C   0  0  2  0  0  0  0  0  0  0  0  0
    4.5024   -1.7330    3.2393 C   0  0  1  0  0  0  0  0  0  0  0  0
    5.6515   -0.9509    2.9421 O   0  0  0  0  0  0  0  0  0  0  0  0
    3.6579   -0.9164    4.2735 C   0  0  0  0  0  0  0  0  0  0  0  0
    2.2277   -0.4725    3.8429 C   0  0  1  0  0  0  0  0  0  0  0  0
    1.2761    0.1570    4.9396 C   0  0  2  0  0  0  0  0  0  0  0  0
    2.0914    0.7619    6.1261 C   0  0  0  0  0  0  0  0  0  0  0  0
    2.5939    1.9207    3.1065 C   0  0  0  0  0  0  0  0  0  0  0  0
    1.5850    2.3533    4.0052 O   0  0  0  0  0  0  0  0  0  0  0  0
   -0.7588   -1.5986    3.7427 H   0  0  0  0  0  0  0  0  0  0  0  0
   -1.0765   -2.5512    5.1688 H   0  0  0  0  0  0  0  0  0  0  0  0
    0.4540   -2.7134    4.3860 H   0  0  0  0  0  0  0  0  0  0  0  0
    0.7038   -1.3681    6.3821 H   0  0  0  0  0  0  0  0  0  0  0  0
   -1.7766   -0.8689    6.3528 H   0  0  0  0  0  0  0  0  0  0  0  0
   -0.0845    1.1717    7.2087 H   0  0  0  0  0  0  0  0  0  0  0  0
   -2.0752    0.3146    4.3047 H   0  0  0  0  0  0  0  0  0  0  0  0
   -2.5075    1.3511    5.6343 H   0  0  0  0  0  0  0  0  0  0  0  0
   -1.1506    2.5326    3.9060 H   0  0  0  0  0  0  0  0  0  0  0  0
   -0.4261    2.5833    5.4826 H   0  0  0  0  0  0  0  0  0  0  0  0
    0.0041   -0.0487    2.4486 H   0  0  0  0  0  0  0  0  0  0  0  0
    0.3465    1.6077    1.9391 H   0  0  0  0  0  0  0  0  0  0  0  0
    2.8484    0.8859    0.6707 H   0  0  0  0  0  0  0  0  0  0  0  0
    5.5453   -1.2439    0.5010 H   0  0  0  0  0  0  0  0  0  0  0  0
    3.2643   -0.6597   -1.4141 H   0  0  0  0  0  0  0  0  0  0  0  0
    4.9210   -0.1686   -1.5602 H   0  0  0  0  0  0  0  0  0  0  0  0
    4.3743   -2.5143   -4.4029 H   0  0  0  0  0  0  0  0  0  0  0  0
    4.9106   -0.8827   -4.0120 H   0  0  0  0  0  0  0  0  0  0  0  0
    3.2096   -1.3162   -3.8313 H   0  0  0  0  0  0  0  0  0  0  0  0
    6.1874   -3.4234   -2.9210 H   0  0  0  0  0  0  0  0  0  0  0  0
    6.1965   -3.1035   -1.2031 H   0  0  0  0  0  0  0  0  0  0  0  0
    6.6870   -1.8551   -2.3236 H   0  0  0  0  0  0  0  0  0  0  0  0
    2.6547   -3.2441   -2.5825 H   0  0  0  0  0  0  0  0  0  0  0  0
    4.0533   -4.2007   -2.1809 H   0  0  0  0  0  0  0  0  0  0  0  0
    2.1841   -2.6720   -0.4275 H   0  0  0  0  0  0  0  0  0  0  0  0
    2.6254   -5.1764   -1.0770 H   0  0  0  0  0  0  0  0  0  0  0  0
    4.8974   -4.8615    0.3761 H   0  0  0  0  0  0  0  0  0  0  0  0
    6.4276   -4.5543    1.9735 H   0  0  0  0  0  0  0  0  0  0  0  0
    1.9399   -3.5343    1.9123 H   0  0  0  0  0  0  0  0  0  0  0  0
    2.6432   -3.4550    3.5187 H   0  0  0  0  0  0  0  0  0  0  0  0
    4.8847   -2.5989    3.7928 H   0  0  0  0  0  0  0  0  0  0  0  0
    5.3952   -0.2468    2.3954 H   0  0  0  0  0  0  0  0  0  0  0  0
    3.5389   -1.5460    5.1497 H   0  0  0  0  0  0  0  0  0  0  0  0
    4.2393   -0.0604    4.6268 H   0  0  0  0  0  0  0  0  0  0  0  0
    1.7414   -1.3565    3.4642 H   0  0  0  0  0  0  0  0  0  0  0  0
    2.9694    1.3228    5.7934 H   0  0  0  0  0  0  0  0  0  0  0  0
    2.4405   -0.0028    6.8173 H   0  0  0  0  0  0  0  0  0  0  0  0
    1.4978    1.4825    6.6978 H   0  0  0  0  0  0  0  0  0  0  0  0
    3.5850    1.9203    3.5786 H   0  0  0  0  0  0  0  0  0  0  0  0
    2.6314    2.6256    2.2667 H   0  0  0  0  0  0  0  0  0  0  0  0
  1  2  1  0
  1 34  1  0
  1 35  1  0
  1 36  1  0
  2 30  1  0
  2  3  1  0
  2 37  1  1
  3  4  1  0
  3  5  1  0
  3 38  1  1
  4 39  1  0
  5  6  1  0
  5 40  1  0
  5 41  1  0
  6  7  1  0
  6 42  1  0
  6 43  1  0
  7 30  1  0
  7 33  1  6
  7  8  1  0
  8  9  1  0
  8 44  1  0
  8 45  1  0
  9 29  1  0
  9 10  1  0
  9 32  1  1
 10 11  2  0
 10 46  1  0
 11 25  1  0
 11 12  1  0
 12 20  1  0
 12 13  1  0
 12 47  1  1
 13 14  1  0
 13 48  1  0
 13 49  1  0
 14 15  1  0
 14 16  1  0
 14 17  1  0
 15 50  1  0
 15 51  1  0
 15 52  1  0
 16 53  1  0
 16 54  1  0
 16 55  1  0
 17 18  1  0
 17 56  1  0
 17 57  1  0
 18 19  1  0
 18 20  1  0
 18 58  1  6
 19 59  1  0
 20 25  1  1
 20 21  1  0
 21 22  1  0
 21 23  1  0
 21 60  1  6
 22 61  1  0
 23 24  1  0
 25 24  1  1
 24 62  1  0
 24 63  1  0
 25 26  1  0
 26 27  1  0
 26 28  1  0
 26 64  1  1
 27 65  1  0
 28 29  1  0
 28 66  1  0
 28 67  1  0
 29 30  1  0
 29 68  1  6
 30 31  1  1
 31 69  1  0
 31 70  1  0
 31 71  1  0
 32 33  1  0
 32 72  1  0
 32 73  1  0
M  END
>  <i_m_ct_stereo_status>  (68) 
1

>  <s_m_source_file>  (68) 
/var/tmp/pbs.5076255.sched01/tmpokz5906q/0mijyat0o.sdf

>  <i_m_source_file_index>  (68) 
28

>  <i_lp_mmshare_version>  (68) 
48012

>  <i_f3d_flags>  (68) 
0

>  <s_epik_input>  (68) 
W0NIMl0xW0NIMl1bQ0BIXShbT0hdKVtDQEBIXShbQ0gzXSlbQ0BAXShbQ0BdMTIzKShbQ0gzXSlbQ0BIXTRbQ0BAXShbQ0gyXTIpKFtDSDJdTzMpW0NIXT1DNVtDQF02KFtDQEBIXShbT0hdKVtDSDJdNClbQ0BdNyhbQ0BASF0oW09IXSlPW0NIMl02KVtDQEhdNVtDSDJdQyhbQ0gzXSkoW0NIM10pW0NIMl1bQ0BIXTdbT0hd

>  <s_epik_cmdline>  (68) 
J2VwaWtfcHl0aG9uJywgJy1waHQnLCAnMi4wJywgJy1waCcsICc3LjAnLCAnLXRuJywgJzgnLCAnLW1hJywgJzIwMCcsICctaW1hZScsICc8aW5maWxlLm1hZT4nLCAnLW9tYWUnLCAnPG91dGZpbGUubWFlPic=

>  <r_lp_tautomer_probability>  (68) 
1

>  <r_epik_Ionization_Penalty>  (68) 
1.09564e-06

>  <r_epik_Ionization_Penalty_Charging>  (68) 
0

>  <r_epik_Ionization_Penalty_Neutral>  (68) 
1.09564e-06

>  <r_epik_State_Penalty>  (68) 
-0

>  <r_epik_Charging_Adjusted_Penalty>  (68) 
0

>  <i_epik_Tot_Q>  (68) 
0

>  <i_epik_Tot_abs_Q>  (68) 
0

>  <s_epik_Chemistry_Notes>  (68) 
This compound contains an acetal/aminal-like group ( X-CH(R)-Y where X, Y are N, S, or O) that may be acid/base labile, releasing an aldehyde.

>  <s_lp_Force_Field>  (68) 
OPLS3e

>  <r_lp_Energy>  (68) 
134.666

>  <b_lp_Chiralities_Consistent>  (68) 
1

>  <s_lp_Variant>  (68) 
18:0-1

>  <s_i_glide_gridfile>  (68) 
pfpi4k_grid

>  <i_i_glide_lignum>  (68) 
28

>  <i_i_glide_rotatable_bonds>  (68) 
4

>  <r_i_docking_score>  (68) 
-3.18077

>  <r_i_glide_ligand_efficiency>  (68) 
-0.096387

>  <r_i_glide_ligand_efficiency_sa>  (68) 
-0.309164

>  <r_i_glide_ligand_efficiency_ln>  (68) 
-0.707387

>  <r_i_glide_gscore>  (68) 
-3.18077

>  <r_i_glide_lipo>  (68) 
-0.262873

>  <r_i_glide_hbond>  (68) 
-0.0636574

>  <r_i_glide_metal>  (68) 
-0

>  <r_i_glide_rewards>  (68) 
-0.310204

>  <r_i_glide_evdw>  (68) 
-31.1318

>  <r_i_glide_ecoul>  (68) 
-6.58296

>  <r_i_glide_erotb>  (68) 
0

>  <r_i_glide_esite>  (68) 
0

>  <r_i_glide_emodel>  (68) 
-43.6423

>  <r_i_glide_energy>  (68) 
-37.7148

>  <r_i_glide_einternal>  (68) 
1.71246

>  <r_i_glide_intrahb_reward>  (68) 
-0

>  <i_i_glide_confnum>  (68) 
2

>  <i_i_glide_posenum>  (68) 
14

>  <r_i_glide_eff_state_penalty>  (68) 
0

>  <ligand_id>  (68) 
18

>  <original_smiles>  (68) 
CC1C(O)CCC23CC4(C=C5C6CC(C)(C)CC(O)C67C(O)OCC57C(O)CC4C12C)CO3

>  <smiles>  (68) 
[H]OC1([H])OC([H])([H])C23C(=C([H])C45C([H])([H])OC6(C([H])([H])C([H])([H])C([H])(O[H])C([H])(C([H])([H])[H])C6(C([H])([H])[H])C4([H])C([H])([H])C2([H])O[H])C5([H])[H])C2([H])C([H])([H])C(C([H])([H])[H])(C([H])([H])[H])C([H])([H])C([H])(O[H])C123

$$$$
18:0:2
     RDKit          3D

 73 79  0  0  1  0  0  0  0  0999 V2000
   -0.2481   -2.0232    4.6540 C   0  0  0  0  0  0  0  0  0  0  0  0
    0.2636   -0.8705    5.5560 C   0  0  2  0  0  0  0  0  0  0  0  0
   -0.9847   -0.1591    6.1249 C   0  0  1  0  0  0  0  0  0  0  0  0
   -0.7251    0.5179    7.3372 O   0  0  0  0  0  0  0  0  0  0  0  0
   -1.6397    0.8014    5.1370 C   0  0  0  0  0  0  0  0  0  0  0  0
   -0.6599    1.8597    4.6494 C   0  0  0  0  0  0  0  0  0  0  0  0
    0.6434    1.2713    4.0819 C   0  0  2  0  0  0  0  0  0  0  0  0
    0.6424    0.7789    2.6288 C   0  0  0  0  0  0  0  0  0  0  0  0
    2.1371    0.5009    2.6630 C   0  0  2  0  0  0  0  0  0  0  0  0
    2.7753    0.0689    1.3623 C   0  0  0  0  0  0  0  0  0  0  0  0
    3.4210   -1.0975    1.1345 C   0  0  0  0  0  0  0  0  0  0  0  0
    4.5589   -1.4269    0.1674 C   0  0  2  0  0  0  0  0  0  0  0  0
    4.3299   -1.0227   -1.2851 C   0  0  0  0  0  0  0  0  0  0  0  0
    4.5626   -2.1855   -2.2562 C   0  0  0  0  0  0  0  0  0  0  0  0
    4.2873   -1.7388   -3.7062 C   0  0  0  0  0  0  0  0  0  0  0  0
    6.0339   -2.6839   -2.1532 C   0  0  0  0  0  0  0  0  0  0  0  0
    3.5942   -3.3293   -1.9145 C   0  0  0  0  0  0  0  0  0  0  0  0
    3.1021   -3.3926   -0.4527 C   0  0  1  0  0  0  0  0  0  0  0  0
    2.5044   -4.6726   -0.2889 O   0  0  0  0  0  0  0  0  0  0  0  0
    4.1432   -2.8442    0.6103 C   0  0  1  0  0  0  0  0  0  0  0  0
    4.8321   -4.0791    1.1363 C   0  0  1  0  0  0  0  0  0  0  0  0
    6.1238   -3.7257    1.6610 O   0  0  0  0  0  0  0  0  0  0  0  0
    3.9477   -4.4877    2.1750 O   0  0  0  0  0  0  0  0  0  0  0  0
    2.9478   -3.4617    2.4703 C   0  0  0  0  0  0  0  0  0  0  0  0
    3.7321   -2.2600    2.0151 C   0  0  2  0  0  0  0  0  0  0  0  0
    4.5399   -1.7441    3.2384 C   0  0  1  0  0  0  0  0  0  0  0  0
    5.7097   -1.0296    2.8791 O   0  0  0  0  0  0  0  0  0  0  0  0
    3.7070   -0.9097    4.2612 C   0  0  0  0  0  0  0  0  0  0  0  0
    2.2671   -0.4898    3.8339 C   0  0  1  0  0  0  0  0  0  0  0  0
    1.3117    0.1327    4.9251 C   0  0  2  0  0  0  0  0  0  0  0  0
    2.1173    0.7544    6.1062 C   0  0  0  0  0  0  0  0  0  0  0  0
    2.6136    1.8982    3.0819 C   0  0  0  0  0  0  0  0  0  0  0  0
    1.5975    2.3243    3.9807 O   0  0  0  0  0  0  0  0  0  0  0  0
   -0.7031   -1.6544    3.7407 H   0  0  0  0  0  0  0  0  0  0  0  0
   -1.0133   -2.5968    5.1716 H   0  0  0  0  0  0  0  0  0  0  0  0
    0.5187   -2.7499    4.3926 H   0  0  0  0  0  0  0  0  0  0  0  0
    0.7566   -1.3914    6.3823 H   0  0  0  0  0  0  0  0  0  0  0  0
   -1.7185   -0.9129    6.3960 H   0  0  0  0  0  0  0  0  0  0  0  0
   -0.0510    1.1468    7.1854 H   0  0  0  0  0  0  0  0  0  0  0  0
   -2.0421    0.2432    4.2943 H   0  0  0  0  0  0  0  0  0  0  0  0
   -2.4886    1.2844    5.6184 H   0  0  0  0  0  0  0  0  0  0  0  0
   -1.1406    2.4683    3.8856 H   0  0  0  0  0  0  0  0  0  0  0  0
   -0.4171    2.5485    5.4570 H   0  0  0  0  0  0  0  0  0  0  0  0
    0.0421   -0.1030    2.4386 H   0  0  0  0  0  0  0  0  0  0  0  0
    0.3647    1.5565    1.9178 H   0  0  0  0  0  0  0  0  0  0  0  0
    2.8722    0.8461    0.6528 H   0  0  0  0  0  0  0  0  0  0  0  0
    5.5844   -1.2481    0.4872 H   0  0  0  0  0  0  0  0  0  0  0  0
    3.3011   -0.6837   -1.4261 H   0  0  0  0  0  0  0  0  0  0  0  0
    4.9619   -0.1966   -1.5750 H   0  0  0  0  0  0  0  0  0  0  0  0
    4.4387   -2.5679   -4.3956 H   0  0  0  0  0  0  0  0  0  0  0  0
    4.9580   -0.9328   -4.0162 H   0  0  0  0  0  0  0  0  0  0  0  0
    3.2639   -1.3774   -3.8323 H   0  0  0  0  0  0  0  0  0  0  0  0
    6.2719   -3.4331   -2.9091 H   0  0  0  0  0  0  0  0  0  0  0  0
    6.2543   -3.1346   -1.1851 H   0  0  0  0  0  0  0  0  0  0  0  0
    6.7506   -1.8733   -2.2575 H   0  0  0  0  0  0  0  0  0  0  0  0
    2.7298   -3.3108   -2.5835 H   0  0  0  0  0  0  0  0  0  0  0  0
    4.1458   -4.2435   -2.1443 H   0  0  0  0  0  0  0  0  0  0  0  0
    2.2436   -2.7216   -0.4295 H   0  0  0  0  0  0  0  0  0  0  0  0
    2.6762   -5.1909   -1.0597 H   0  0  0  0  0  0  0  0  0  0  0  0
    5.0052   -4.8689    0.4054 H   0  0  0  0  0  0  0  0  0  0  0  0
    6.0271   -2.9760    2.2127 H   0  0  0  0  0  0  0  0  0  0  0  0
    2.0111   -3.5754    1.9240 H   0  0  0  0  0  0  0  0  0  0  0  0
    2.7070   -3.4776    3.5280 H   0  0  0  0  0  0  0  0  0  0  0  0
    4.9102   -2.5988    3.8069 H   0  0  0  0  0  0  0  0  0  0  0  0
    5.4620   -0.2575    2.4324 H   0  0  0  0  0  0  0  0  0  0  0  0
    3.5911   -1.5346    5.1444 H   0  0  0  0  0  0  0  0  0  0  0  0
    4.2912   -0.0532    4.6040 H   0  0  0  0  0  0  0  0  0  0  0  0
    1.7901   -1.3829    3.4634 H   0  0  0  0  0  0  0  0  0  0  0  0
    2.9891    1.3211    5.7737 H   0  0  0  0  0  0  0  0  0  0  0  0
    2.4757   -0.0007    6.8058 H   0  0  0  0  0  0  0  0  0  0  0  0
    1.5234    1.4715    6.6762 H   0  0  0  0  0  0  0  0  0  0  0  0
    3.5975    1.9152    3.5511 H   0  0  0  0  0  0  0  0  0  0  0  0
    2.6432    2.5969    2.2437 H   0  0  0  0  0  0  0  0  0  0  0  0
  1  2  1  0
  1 34  1  0
  1 35  1  0
  1 36  1  0
  2 30  1  0
  2  3  1  0
  2 37  1  1
  3  4  1  0
  3  5  1  0
  3 38  1  1
  4 39  1  0
  5  6  1  0
  5 40  1  0
  5 41  1  0
  6  7  1  0
  6 42  1  0
  6 43  1  0
  7 30  1  0
  7 33  1  6
  7  8  1  0
  8  9  1  0
  8 44  1  0
  8 45  1  0
  9 29  1  0
  9 10  1  0
  9 32  1  1
 10 11  2  0
 10 46  1  0
 11 25  1  0
 11 12  1  0
 12 20  1  0
 12 13  1  0
 12 47  1  1
 13 14  1  0
 13 48  1  0
 13 49  1  0
 14 15  1  0
 14 16  1  0
 14 17  1  0
 15 50  1  0
 15 51  1  0
 15 52  1  0
 16 53  1  0
 16 54  1  0
 16 55  1  0
 17 18  1  0
 17 56  1  0
 17 57  1  0
 18 19  1  0
 18 20  1  0
 18 58  1  6
 19 59  1  0
 20 25  1  1
 20 21  1  0
 21 22  1  0
 21 23  1  0
 21 60  1  6
 22 61  1  0
 23 24  1  0
 25 24  1  1
 24 62  1  0
 24 63  1  0
 25 26  1  0
 26 27  1  0
 26 28  1  0
 26 64  1  1
 27 65  1  0
 28 29  1  0
 28 66  1  0
 28 67  1  0
 29 30  1  0
 29 68  1  6
 30 31  1  1
 31 69  1  0
 31 70  1  0
 31 71  1  0
 32 33  1  0
 32 72  1  0
 32 73  1  0
M  END
>  <i_m_ct_stereo_status>  (69) 
1

>  <s_m_source_file>  (69) 
/var/tmp/pbs.5076255.sched01/tmpokz5906q/0mijyat0o.sdf

>  <i_m_source_file_index>  (69) 
28

>  <i_lp_mmshare_version>  (69) 
48012

>  <i_f3d_flags>  (69) 
0

>  <s_epik_input>  (69) 
W0NIMl0xW0NIMl1bQ0BIXShbT0hdKVtDQEBIXShbQ0gzXSlbQ0BAXShbQ0BdMTIzKShbQ0gzXSlbQ0BIXTRbQ0BAXShbQ0gyXTIpKFtDSDJdTzMpW0NIXT1DNVtDQF02KFtDQEBIXShbT0hdKVtDSDJdNClbQ0BdNyhbQ0BASF0oW09IXSlPW0NIMl02KVtDQEhdNVtDSDJdQyhbQ0gzXSkoW0NIM10pW0NIMl1bQ0BIXTdbT0hd

>  <s_epik_cmdline>  (69) 
J2VwaWtfcHl0aG9uJywgJy1waHQnLCAnMi4wJywgJy1waCcsICc3LjAnLCAnLXRuJywgJzgnLCAnLW1hJywgJzIwMCcsICctaW1hZScsICc8aW5maWxlLm1hZT4nLCAnLW9tYWUnLCAnPG91dGZpbGUubWFlPic=

>  <r_lp_tautomer_probability>  (69) 
1

>  <r_epik_Ionization_Penalty>  (69) 
1.09564e-06

>  <r_epik_Ionization_Penalty_Charging>  (69) 
0

>  <r_epik_Ionization_Penalty_Neutral>  (69) 
1.09564e-06

>  <r_epik_State_Penalty>  (69) 
-0

>  <r_epik_Charging_Adjusted_Penalty>  (69) 
0

>  <i_epik_Tot_Q>  (69) 
0

>  <i_epik_Tot_abs_Q>  (69) 
0

>  <s_epik_Chemistry_Notes>  (69) 
This compound contains an acetal/aminal-like group ( X-CH(R)-Y where X, Y are N, S, or O) that may be acid/base labile, releasing an aldehyde.

>  <s_lp_Force_Field>  (69) 
OPLS3e

>  <r_lp_Energy>  (69) 
134.666

>  <b_lp_Chiralities_Consistent>  (69) 
1

>  <s_lp_Variant>  (69) 
18:0-1

>  <s_i_glide_gridfile>  (69) 
pfpi4k_grid

>  <i_i_glide_lignum>  (69) 
28

>  <i_i_glide_rotatable_bonds>  (69) 
4

>  <r_i_docking_score>  (69) 
-3.16489

>  <r_i_glide_ligand_efficiency>  (69) 
-0.0959057

>  <r_i_glide_ligand_efficiency_sa>  (69) 
-0.307621

>  <r_i_glide_ligand_efficiency_ln>  (69) 
-0.703855

>  <r_i_glide_gscore>  (69) 
-3.16489

>  <r_i_glide_lipo>  (69) 
-0.275218

>  <r_i_glide_hbond>  (69) 
-0.0559819

>  <r_i_glide_metal>  (69) 
-0

>  <r_i_glide_rewards>  (69) 
-0.311884

>  <r_i_glide_evdw>  (69) 
-31.351

>  <r_i_glide_ecoul>  (69) 
-6.36169

>  <r_i_glide_erotb>  (69) 
0

>  <r_i_glide_esite>  (69) 
0

>  <r_i_glide_emodel>  (69) 
-43.6566

>  <r_i_glide_energy>  (69) 
-37.7127

>  <r_i_glide_einternal>  (69) 
1.46237

>  <r_i_glide_intrahb_reward>  (69) 
-0

>  <i_i_glide_confnum>  (69) 
2

>  <i_i_glide_posenum>  (69) 
8

>  <r_i_glide_eff_state_penalty>  (69) 
0

>  <ligand_id>  (69) 
18

>  <original_smiles>  (69) 
CC1C(O)CCC23CC4(C=C5C6CC(C)(C)CC(O)C67C(O)OCC57C(O)CC4C12C)CO3

>  <smiles>  (69) 
[H]OC1([H])OC([H])([H])C23C(=C([H])C45C([H])([H])OC6(C([H])([H])C([H])([H])C([H])(O[H])C([H])(C([H])([H])[H])C6(C([H])([H])[H])C4([H])C([H])([H])C2([H])O[H])C5([H])[H])C2([H])C([H])([H])C(C([H])([H])[H])(C([H])([H])[H])C([H])([H])C([H])(O[H])C123

$$$$
19:0:0
     RDKit          3D

 54 59  0  0  1  0  0  0  0  0999 V2000
    3.0558   -0.1617    5.9107 C   0  0  0  0  0  0  0  0  0  0  0  0
    3.3632   -1.6590    5.9724 C   0  0  0  0  0  0  0  0  0  0  0  0
    3.9629   -2.0753    6.9609 O   0  0  0  0  0  0  0  0  0  0  0  0
    2.8864   -2.5306    4.8690 C   0  0  0  0  0  0  0  0  0  0  0  0
    3.0484   -3.8521    4.6945 C   0  0  0  0  0  0  0  0  0  0  0  0
    4.4316   -4.2713    4.7344 C   0  0  0  0  0  0  0  0  0  0  0  0
    5.1821   -4.7447    5.9691 C   0  0  0  0  0  0  0  0  0  0  0  0
    5.0318   -4.1109    3.5426 C   0  0  0  0  0  0  0  0  0  0  0  0
    4.2328   -3.9919    2.2432 C   0  0  1  0  0  0  0  0  0  0  0  0
    3.0740   -4.9142    2.3095 C   0  0  2  0  0  0  0  0  0  0  0  0
    2.6717   -5.0882    0.7732 C   0  0  0  0  0  0  0  0  0  0  0  0
    3.3878   -4.1009   -0.3032 C   0  0  0  0  0  0  0  0  0  0  0  0
    3.8457   -2.6545    0.2138 C   0  0  1  0  0  0  0  0  0  0  0  0
    3.4865   -2.7146    1.6504 C   0  0  2  0  0  0  0  0  0  0  0  0
    3.2632   -1.4669    2.4851 C   0  0  1  0  0  0  0  0  0  0  0  0
    2.4501   -0.3991    1.7085 C   0  0  0  0  0  0  0  0  0  0  0  0
    2.2512   -1.9428    3.6581 C   0  0  1  0  0  0  0  0  0  0  0  0
    1.4475   -3.0736    3.2274 O   0  0  0  0  0  0  0  0  0  0  0  0
    2.1662   -4.3054    3.5069 C   0  0  2  0  0  0  0  0  0  0  0  0
    1.1178   -5.3249    3.9755 C   0  0  0  0  0  0  0  0  0  0  0  0
    4.7118   -0.8487    2.6331 C   0  0  1  0  0  0  0  0  0  0  0  0
    5.4154   -1.2063    3.7923 O   0  0  0  0  0  0  0  0  0  0  0  0
    5.6684   -1.1984    1.4461 C   0  0  2  0  0  0  0  0  0  0  0  0
    5.3208   -0.6739    0.1700 O   0  0  0  0  0  0  0  0  0  0  0  0
    5.2707   -2.1082    0.2503 C   0  0  2  0  0  0  0  0  0  0  0  0
    6.3105   -2.8450   -0.5735 C   0  0  0  0  0  0  0  0  0  0  0  0
    1.9748   -0.0045    5.9395 H   0  0  0  0  0  0  0  0  0  0  0  0
    3.4480    0.2822    4.9927 H   0  0  0  0  0  0  0  0  0  0  0  0
    3.4974    0.3562    6.7643 H   0  0  0  0  0  0  0  0  0  0  0  0
    4.7820   -4.3514    6.9034 H   0  0  0  0  0  0  0  0  0  0  0  0
    6.2401   -4.4785    5.9056 H   0  0  0  0  0  0  0  0  0  0  0  0
    5.1244   -5.8314    6.0320 H   0  0  0  0  0  0  0  0  0  0  0  0
    6.0826   -4.3257    3.4341 H   0  0  0  0  0  0  0  0  0  0  0  0
    4.9589   -4.4115    1.5465 H   0  0  0  0  0  0  0  0  0  0  0  0
    3.4246   -5.8935    2.6426 H   0  0  0  0  0  0  0  0  0  0  0  0
    2.9374   -6.1056    0.4731 H   0  0  0  0  0  0  0  0  0  0  0  0
    1.5901   -5.0298    0.6718 H   0  0  0  0  0  0  0  0  0  0  0  0
    4.2097   -4.6148   -0.8034 H   0  0  0  0  0  0  0  0  0  0  0  0
    2.6440   -3.9177   -1.0869 H   0  0  0  0  0  0  0  0  0  0  0  0
    3.2410   -1.9153   -0.3147 H   0  0  0  0  0  0  0  0  0  0  0  0
    2.4479   -2.8546    1.3715 H   0  0  0  0  0  0  0  0  0  0  0  0
    2.2438    0.4685    2.3450 H   0  0  0  0  0  0  0  0  0  0  0  0
    1.4911   -0.7926    1.3622 H   0  0  0  0  0  0  0  0  0  0  0  0
    2.9903   -0.0217    0.8367 H   0  0  0  0  0  0  0  0  0  0  0  0
    1.5711   -1.1481    3.9510 H   0  0  0  0  0  0  0  0  0  0  0  0
    1.5759   -6.2504    4.3272 H   0  0  0  0  0  0  0  0  0  0  0  0
    0.4304   -5.5821    3.1700 H   0  0  0  0  0  0  0  0  0  0  0  0
    0.5248   -4.9240    4.7995 H   0  0  0  0  0  0  0  0  0  0  0  0
    4.6433    0.2401    2.6851 H   0  0  0  0  0  0  0  0  0  0  0  0
    4.9285   -0.9514    4.5530 H   0  0  0  0  0  0  0  0  0  0  0  0
    6.7258   -1.0833    1.6716 H   0  0  0  0  0  0  0  0  0  0  0  0
    6.4440   -3.8602   -0.1991 H   0  0  0  0  0  0  0  0  0  0  0  0
    7.2682   -2.3371   -0.4907 H   0  0  0  0  0  0  0  0  0  0  0  0
    6.0263   -2.8879   -1.6236 H   0  0  0  0  0  0  0  0  0  0  0  0
  1  2  1  0
  1 27  1  0
  1 28  1  0
  1 29  1  0
  2  3  2  0
  2  4  1  0
  4 17  1  0
  4  5  2  0
  5 19  1  0
  5  6  1  0
  6  7  1  0
  6  8  2  0
  7 30  1  0
  7 31  1  0
  7 32  1  0
  8  9  1  0
  8 33  1  0
  9 14  1  0
  9 10  1  0
  9 34  1  6
 10 19  1  0
 10 11  1  0
 10 35  1  1
 11 12  1  0
 11 36  1  0
 11 37  1  0
 12 13  1  0
 12 38  1  0
 12 39  1  0
 13 25  1  0
 13 14  1  0
 13 40  1  6
 14 15  1  0
 14 41  1  6
 15 16  1  6
 15 17  1  0
 15 21  1  0
 16 42  1  0
 16 43  1  0
 16 44  1  0
 17 18  1  0
 17 45  1  1
 18 19  1  0
 19 20  1  1
 20 46  1  0
 20 47  1  0
 20 48  1  0
 21 22  1  0
 21 23  1  0
 21 49  1  1
 22 50  1  0
 23 25  1  0
 23 24  1  0
 23 51  1  1
 24 25  1  0
 25 26  1  6
 26 52  1  0
 26 53  1  0
 26 54  1  0
M  END
>  <i_m_ct_stereo_status>  (70) 
1

>  <s_m_source_file>  (70) 
/var/tmp/pbs.5076255.sched01/tmpokz5906q/0mijyat0o.sdf

>  <i_m_source_file_index>  (70) 
29

>  <i_lp_mmshare_version>  (70) 
48012

>  <i_f3d_flags>  (70) 
0

>  <s_epik_input>  (70) 
W0NIM11DKD1PKUMoW0NAQEhdMU8yKT1DKEMoW0NIM10pPVtDSF0zKVtDQF0yKFtDSDNdKVtDQEhdKFtDQEhdM1tDQEhdNFtDQEBdMTVbQ0gzXSlbQ0gyXVtDSDJdW0NAQEhdNFtDQF02KFtDSDNdKVtDQEBIXShPNilbQ0BASF01W09IXQ==

>  <s_epik_cmdline>  (70) 
J2VwaWtfcHl0aG9uJywgJy1waHQnLCAnMi4wJywgJy1waCcsICc3LjAnLCAnLXRuJywgJzgnLCAnLW1hJywgJzIwMCcsICctaW1hZScsICc8aW5maWxlLm1hZT4nLCAnLW9tYWUnLCAnPG91dGZpbGUubWFlPic=

>  <r_lp_tautomer_probability>  (70) 
1

>  <r_epik_Ionization_Penalty>  (70) 
6.69487e-08

>  <r_epik_Ionization_Penalty_Charging>  (70) 
0

>  <r_epik_Ionization_Penalty_Neutral>  (70) 
6.69487e-08

>  <r_epik_State_Penalty>  (70) 
-0

>  <r_epik_Charging_Adjusted_Penalty>  (70) 
0

>  <i_epik_Tot_Q>  (70) 
0

>  <i_epik_Tot_abs_Q>  (70) 
0

>  <s_lp_Force_Field>  (70) 
OPLS3e

>  <r_lp_Energy>  (70) 
162.006

>  <b_lp_Chiralities_Consistent>  (70) 
1

>  <s_lp_Variant>  (70) 
19:0-1

>  <s_i_glide_gridfile>  (70) 
pfpi4k_grid

>  <i_i_glide_lignum>  (70) 
29

>  <i_i_glide_rotatable_bonds>  (70) 
2

>  <r_i_docking_score>  (70) 
-2.15707

>  <r_i_glide_ligand_efficiency>  (70) 
-0.0829644

>  <r_i_glide_ligand_efficiency_sa>  (70) 
-0.245782

>  <r_i_glide_ligand_efficiency_ln>  (70) 
-0.506582

>  <r_i_glide_gscore>  (70) 
-2.15707

>  <r_i_glide_lipo>  (70) 
-0.287012

>  <r_i_glide_hbond>  (70) 
0

>  <r_i_glide_metal>  (70) 
-0

>  <r_i_glide_rewards>  (70) 
-0.978714

>  <r_i_glide_evdw>  (70) 
-20.9395

>  <r_i_glide_ecoul>  (70) 
1.03753

>  <r_i_glide_erotb>  (70) 
0

>  <r_i_glide_esite>  (70) 
0

>  <r_i_glide_emodel>  (70) 
-20.1059

>  <r_i_glide_energy>  (70) 
-19.902

>  <r_i_glide_einternal>  (70) 
2.80949

>  <r_i_glide_intrahb_reward>  (70) 
-0

>  <i_i_glide_confnum>  (70) 
1

>  <i_i_glide_posenum>  (70) 
7

>  <r_i_glide_eff_state_penalty>  (70) 
0

>  <ligand_id>  (70) 
19

>  <original_smiles>  (70) 
CC(=O)C1=C2C(C)=CC3C4CCC5C3C(C)(C1OC24C)C(O)C1OC51C

>  <smiles>  (70) 
[H]OC1([H])C2([H])OC2(C([H])([H])[H])C2([H])C([H])([H])C([H])([H])C3([H])C4([H])C([H])=C(C([H])([H])[H])C5=C(C(=O)C([H])([H])[H])C([H])(OC53C([H])([H])[H])C1(C([H])([H])[H])C42[H]

$$$$
19:0:1
     RDKit          3D

 54 59  0  0  1  0  0  0  0  0999 V2000
    5.6726   -3.5062    5.6478 C   0  0  0  0  0  0  0  0  0  0  0  0
    4.9498   -2.5634    4.6883 C   0  0  0  0  0  0  0  0  0  0  0  0
    5.1418   -1.3546    4.8174 O   0  0  0  0  0  0  0  0  0  0  0  0
    4.0179   -3.0905    3.6577 C   0  0  0  0  0  0  0  0  0  0  0  0
    3.8043   -4.3395    3.2107 C   0  0  0  0  0  0  0  0  0  0  0  0
    4.9841   -5.0287    2.7430 C   0  0  0  0  0  0  0  0  0  0  0  0
    5.8605   -5.9533    3.5676 C   0  0  0  0  0  0  0  0  0  0  0  0
    5.2806   -4.6867    1.4700 C   0  0  0  0  0  0  0  0  0  0  0  0
    4.2142   -4.1118    0.5190 C   0  0  1  0  0  0  0  0  0  0  0  0
    2.9193   -4.7940    0.7857 C   0  0  2  0  0  0  0  0  0  0  0  0
    2.1034   -4.5210   -0.5647 C   0  0  0  0  0  0  0  0  0  0  0  0
    2.7118   -3.4462   -1.6283 C   0  0  0  0  0  0  0  0  0  0  0  0
    3.6280   -2.2820   -1.0437 C   0  0  1  0  0  0  0  0  0  0  0  0
    3.6646   -2.6071    0.4095 C   0  0  2  0  0  0  0  0  0  0  0  0
    3.9675   -1.5749    1.4702 C   0  0  1  0  0  0  0  0  0  0  0  0
    3.2798   -0.2270    1.1737 C   0  0  0  0  0  0  0  0  0  0  0  0
    3.2455   -2.1316    2.8104 C   0  0  1  0  0  0  0  0  0  0  0  0
    2.0977   -2.9580    2.4694 O   0  0  0  0  0  0  0  0  0  0  0  0
    2.5463   -4.3284    2.2973 C   0  0  2  0  0  0  0  0  0  0  0  0
    1.4411   -5.2140    2.8951 C   0  0  0  0  0  0  0  0  0  0  0  0
    5.4916   -1.2879    1.2509 C   0  0  1  0  0  0  0  0  0  0  0  0
    6.2962   -2.0631    2.0687 O   0  0  0  0  0  0  0  0  0  0  0  0
    6.0032   -1.5142   -0.2105 C   0  0  2  0  0  0  0  0  0  0  0  0
    5.4795   -0.6511   -1.2183 O   0  0  0  0  0  0  0  0  0  0  0  0
    5.1042   -2.0341   -1.3658 C   0  0  2  0  0  0  0  0  0  0  0  0
    5.6848   -2.7703   -2.5651 C   0  0  0  0  0  0  0  0  0  0  0  0
    6.3690   -4.1127    5.1314 H   0  0  0  0  0  0  0  0  0  0  0  0
    4.9631   -4.1363    6.1867 H   0  0  0  0  0  0  0  0  0  0  0  0
    6.2135   -2.9249    6.4111 H   0  0  0  0  0  0  0  0  0  0  0  0
    5.7785   -5.8001    4.6180 H   0  0  0  0  0  0  0  0  0  0  0  0
    6.9026   -5.8416    3.2679 H   0  0  0  0  0  0  0  0  0  0  0  0
    5.5920   -6.9955    3.3400 H   0  0  0  0  0  0  0  0  0  0  0  0
    6.1662   -5.0698    0.9978 H   0  0  0  0  0  0  0  0  0  0  0  0
    4.5907   -4.4822   -0.4322 H   0  0  0  0  0  0  0  0  0  0  0  0
    3.0855   -5.8699    0.8193 H   0  0  0  0  0  0  0  0  0  0  0  0
    1.9158   -5.4679   -1.0514 H   0  0  0  0  0  0  0  0  0  0  0  0
    1.0699   -4.2990   -0.3912 H   0  0  0  0  0  0  0  0  0  0  0  0
    3.2099   -3.8925   -2.4824 H   0  0  0  0  0  0  0  0  0  0  0  0
    1.8380   -2.9547   -2.0656 H   0  0  0  0  0  0  0  0  0  0  0  0
    3.1137   -1.3430   -1.2417 H   0  0  0  0  0  0  0  0  0  0  0  0
    2.5796   -2.4877    0.4479 H   0  0  0  0  0  0  0  0  0  0  0  0
    3.4676    0.4979    1.9701 H   0  0  0  0  0  0  0  0  0  0  0  0
    2.1968   -0.3250    1.0505 H   0  0  0  0  0  0  0  0  0  0  0  0
    3.6897    0.2056    0.2612 H   0  0  0  0  0  0  0  0  0  0  0  0
    2.8879   -1.3032    3.4276 H   0  0  0  0  0  0  0  0  0  0  0  0
    1.7279   -6.2675    2.9247 H   0  0  0  0  0  0  0  0  0  0  0  0
    0.5270   -5.1495    2.3117 H   0  0  0  0  0  0  0  0  0  0  0  0
    1.1922   -4.9042    3.9129 H   0  0  0  0  0  0  0  0  0  0  0  0
    5.7376   -0.2617    1.5194 H   0  0  0  0  0  0  0  0  0  0  0  0
    6.1746   -2.9749    1.8393 H   0  0  0  0  0  0  0  0  0  0  0  0
    7.0763   -1.6722   -0.2983 H   0  0  0  0  0  0  0  0  0  0  0  0
    5.6527   -3.8531   -2.4261 H   0  0  0  0  0  0  0  0  0  0  0  0
    6.7267   -2.5015   -2.7208 H   0  0  0  0  0  0  0  0  0  0  0  0
    5.1415   -2.5141   -3.4742 H   0  0  0  0  0  0  0  0  0  0  0  0
  1  2  1  0
  1 27  1  0
  1 28  1  0
  1 29  1  0
  2  3  2  0
  2  4  1  0
  4 17  1  0
  4  5  2  0
  5 19  1  0
  5  6  1  0
  6  7  1  0
  6  8  2  0
  7 30  1  0
  7 31  1  0
  7 32  1  0
  8  9  1  0
  8 33  1  0
  9 14  1  0
  9 10  1  0
  9 34  1  6
 10 19  1  0
 10 11  1  0
 10 35  1  1
 11 12  1  0
 11 36  1  0
 11 37  1  0
 12 13  1  0
 12 38  1  0
 12 39  1  0
 13 25  1  0
 13 14  1  0
 13 40  1  1
 14 15  1  0
 14 41  1  1
 15 16  1  6
 15 17  1  0
 15 21  1  0
 16 42  1  0
 16 43  1  0
 16 44  1  0
 17 18  1  0
 17 45  1  1
 18 19  1  0
 19 20  1  1
 20 46  1  0
 20 47  1  0
 20 48  1  0
 21 22  1  0
 21 23  1  0
 21 49  1  1
 22 50  1  0
 23 25  1  0
 23 24  1  0
 23 51  1  1
 24 25  1  0
 25 26  1  6
 26 52  1  0
 26 53  1  0
 26 54  1  0
M  END
>  <i_m_ct_stereo_status>  (71) 
1

>  <s_m_source_file>  (71) 
/var/tmp/pbs.5076255.sched01/tmpokz5906q/0mijyat0o.sdf

>  <i_m_source_file_index>  (71) 
29

>  <i_lp_mmshare_version>  (71) 
48012

>  <i_f3d_flags>  (71) 
0

>  <s_epik_input>  (71) 
W0NIM11DKD1PKUMoW0NAQEhdMU8yKT1DKEMoW0NIM10pPVtDSF0zKVtDQF0yKFtDSDNdKVtDQEhdKFtDQEhdM1tDQEhdNFtDQEBdMTVbQ0gzXSlbQ0gyXVtDSDJdW0NAQEhdNFtDQF02KFtDSDNdKVtDQEBIXShPNilbQ0BASF01W09IXQ==

>  <s_epik_cmdline>  (71) 
J2VwaWtfcHl0aG9uJywgJy1waHQnLCAnMi4wJywgJy1waCcsICc3LjAnLCAnLXRuJywgJzgnLCAnLW1hJywgJzIwMCcsICctaW1hZScsICc8aW5maWxlLm1hZT4nLCAnLW9tYWUnLCAnPG91dGZpbGUubWFlPic=

>  <r_lp_tautomer_probability>  (71) 
1

>  <r_epik_Ionization_Penalty>  (71) 
6.69487e-08

>  <r_epik_Ionization_Penalty_Charging>  (71) 
0

>  <r_epik_Ionization_Penalty_Neutral>  (71) 
6.69487e-08

>  <r_epik_State_Penalty>  (71) 
-0

>  <r_epik_Charging_Adjusted_Penalty>  (71) 
0

>  <i_epik_Tot_Q>  (71) 
0

>  <i_epik_Tot_abs_Q>  (71) 
0

>  <s_lp_Force_Field>  (71) 
OPLS3e

>  <r_lp_Energy>  (71) 
162.006

>  <b_lp_Chiralities_Consistent>  (71) 
1

>  <s_lp_Variant>  (71) 
19:0-1

>  <s_i_glide_gridfile>  (71) 
pfpi4k_grid

>  <i_i_glide_lignum>  (71) 
29

>  <i_i_glide_rotatable_bonds>  (71) 
2

>  <r_i_docking_score>  (71) 
-1.82736

>  <r_i_glide_ligand_efficiency>  (71) 
-0.0702829

>  <r_i_glide_ligand_efficiency_sa>  (71) 
-0.208213

>  <r_i_glide_ligand_efficiency_ln>  (71) 
-0.429149

>  <r_i_glide_gscore>  (71) 
-1.82736

>  <r_i_glide_lipo>  (71) 
-0.470156

>  <r_i_glide_hbond>  (71) 
-0.0103639

>  <r_i_glide_metal>  (71) 
-0

>  <r_i_glide_rewards>  (71) 
-1.02357

>  <r_i_glide_evdw>  (71) 
-9.32854

>  <r_i_glide_ecoul>  (71) 
0.954432

>  <r_i_glide_erotb>  (71) 
0

>  <r_i_glide_esite>  (71) 
0

>  <r_i_glide_emodel>  (71) 
-8.81529

>  <r_i_glide_energy>  (71) 
-8.3741

>  <r_i_glide_einternal>  (71) 
0.0710695

>  <r_i_glide_intrahb_reward>  (71) 
-0

>  <i_i_glide_confnum>  (71) 
1

>  <i_i_glide_posenum>  (71) 
30

>  <r_i_glide_eff_state_penalty>  (71) 
0

>  <ligand_id>  (71) 
19

>  <original_smiles>  (71) 
CC(=O)C1=C2C(C)=CC3C4CCC5C3C(C)(C1OC24C)C(O)C1OC51C

>  <smiles>  (71) 
[H]OC1([H])C2([H])OC2(C([H])([H])[H])C2([H])C([H])([H])C([H])([H])C3([H])C4([H])C([H])=C(C([H])([H])[H])C5=C(C(=O)C([H])([H])[H])C([H])(OC53C([H])([H])[H])C1(C([H])([H])[H])C42[H]

$$$$
20:0:0
     RDKit          3D

 72 77  0  0  1  0  0  0  0  0999 V2000
   -1.3736    0.9946    2.3362 C   0  0  0  0  0  0  0  0  0  0  0  0
   -1.3844    1.6360    3.5262 C   0  0  0  0  0  0  0  0  0  0  0  0
   -2.3925    2.7506    3.7219 C   0  0  0  0  0  0  0  0  0  0  0  0
   -0.5257    1.2761    4.7757 C   0  0  2  0  0  0  0  0  0  0  0  0
   -1.3026   -0.0458    5.4474 C   0  0  1  0  0  0  0  0  0  0  0  0
   -2.1502   -0.7454    4.5550 O   0  0  0  0  0  0  0  0  0  0  0  0
   -0.4515   -1.3011    6.1046 C   0  0  0  0  0  0  0  0  0  0  0  0
    0.9009   -0.9184    6.8587 C   0  0  1  0  0  0  0  0  0  0  0  0
    2.4225   -1.1948    6.5024 C   0  0  1  0  0  0  0  0  0  0  0  0
    2.5707   -2.4567    5.6221 C   0  0  0  0  0  0  0  0  0  0  0  0
    3.4978    0.0859    6.3601 C   0  0  2  0  0  0  0  0  0  0  0  0
    4.7635   -0.4829    6.7212 O   0  0  0  0  0  0  0  0  0  0  0  0
    3.3482    1.5001    7.0482 C   0  0  1  0  0  0  0  0  0  0  0  0
    3.2553    2.9644    6.0825 C   0  0  1  0  0  0  0  0  0  0  0  0
    3.2576    3.4083    4.4618 C   0  0  0  0  0  0  0  0  0  0  0  0
    2.4437    2.6491    3.1833 C   0  0  0  0  0  0  0  0  0  0  0  0
    1.5874    1.2006    3.3549 C   0  0  1  0  0  0  0  0  0  0  0  0
    2.4082    0.0546    2.8367 C   0  0  1  0  0  0  0  0  0  0  0  0
    3.0121    0.1787    1.4205 C   0  0  0  0  0  0  0  0  0  0  0  0
    3.4478   -0.0582    3.8936 C   0  0  0  0  0  0  0  0  0  0  0  0
    4.3355   -0.9108    3.7537 O   0  0  0  0  0  0  0  0  0  0  0  0
    3.4222    0.9199    5.1313 C   0  0  2  0  0  0  0  0  0  0  0  0
    4.8178    1.3370    4.9680 O   0  0  0  0  0  0  0  0  0  0  0  0
    2.2225    2.2953    5.5106 C   0  0  2  0  0  0  0  0  0  0  0  0
    0.4819    2.5360    5.3012 C   0  0  1  0  0  0  0  0  0  0  0  0
    0.2575    3.7360    4.5414 O   0  0  0  0  0  0  0  0  0  0  0  0
    0.2174    4.9591    5.1086 C   0  0  0  0  0  0  0  0  0  0  0  0
    0.2693    6.0792    4.0793 C   0  0  0  0  0  0  0  0  0  0  0  0
    0.1707    5.1968    6.3142 O   0  0  0  0  0  0  0  0  0  0  0  0
    0.7323    0.6003    4.7969 C   0  0  1  0  0  0  0  0  0  0  0  0
    0.8692    0.5176    6.7194 C   0  0  1  0  0  0  0  0  0  0  0  0
   -0.3380    0.9788    7.7244 C   0  0  0  0  0  0  0  0  0  0  0  0
    2.0300    1.1363    7.7537 C   0  0  1  0  0  0  0  0  0  0  0  0
    2.2772    0.3823    8.9374 O   0  0  0  0  0  0  0  0  0  0  0  0
   -2.0191    1.2934    1.5268 H   0  0  0  0  0  0  0  0  0  0  0  0
   -0.7219    0.1533    2.1525 H   0  0  0  0  0  0  0  0  0  0  0  0
   -2.7035    2.8102    4.7648 H   0  0  0  0  0  0  0  0  0  0  0  0
   -3.2857    2.5492    3.1266 H   0  0  0  0  0  0  0  0  0  0  0  0
   -1.9897    3.7114    3.4041 H   0  0  0  0  0  0  0  0  0  0  0  0
   -2.0703    0.3201    6.1256 H   0  0  0  0  0  0  0  0  0  0  0  0
   -2.7040   -0.1257    4.0966 H   0  0  0  0  0  0  0  0  0  0  0  0
   -1.0907   -1.7935    6.8328 H   0  0  0  0  0  0  0  0  0  0  0  0
   -0.2480   -2.0809    5.3678 H   0  0  0  0  0  0  0  0  0  0  0  0
    0.7730   -1.2417    7.8939 H   0  0  0  0  0  0  0  0  0  0  0  0
    2.7776   -1.6161    7.4463 H   0  0  0  0  0  0  0  0  0  0  0  0
    2.1310   -2.3397    4.6312 H   0  0  0  0  0  0  0  0  0  0  0  0
    2.0493   -3.2972    6.0880 H   0  0  0  0  0  0  0  0  0  0  0  0
    3.6131   -2.7596    5.5076 H   0  0  0  0  0  0  0  0  0  0  0  0
    4.9778   -1.1273    6.0619 H   0  0  0  0  0  0  0  0  0  0  0  0
    4.1456    1.6480    7.7763 H   0  0  0  0  0  0  0  0  0  0  0  0
    3.1881    3.8878    6.6933 H   0  0  0  0  0  0  0  0  0  0  0  0
    2.9148    4.4461    4.4456 H   0  0  0  0  0  0  0  0  0  0  0  0
    4.2792    3.5619    4.1447 H   0  0  0  0  0  0  0  0  0  0  0  0
    1.7565    3.3839    2.7587 H   0  0  0  0  0  0  0  0  0  0  0  0
    3.1571    2.5709    2.3711 H   0  0  0  0  0  0  0  0  0  0  0  0
    0.9284    1.3358    2.5190 H   0  0  0  0  0  0  0  0  0  0  0  0
    1.8220   -0.8657    2.8193 H   0  0  0  0  0  0  0  0  0  0  0  0
    3.3503   -0.7922    1.0604 H   0  0  0  0  0  0  0  0  0  0  0  0
    3.8743    0.8433    1.3612 H   0  0  0  0  0  0  0  0  0  0  0  0
    2.2607    0.5374    0.7236 H   0  0  0  0  0  0  0  0  0  0  0  0
    4.8799    1.7680    4.1350 H   0  0  0  0  0  0  0  0  0  0  0  0
    1.8078    2.8144    6.3616 H   0  0  0  0  0  0  0  0  0  0  0  0
    0.0372    2.8453    6.2455 H   0  0  0  0  0  0  0  0  0  0  0  0
   -0.5862    6.0421    3.4044 H   0  0  0  0  0  0  0  0  0  0  0  0
    1.1733    5.9974    3.4713 H   0  0  0  0  0  0  0  0  0  0  0  0
    0.2880    7.0557    4.5636 H   0  0  0  0  0  0  0  0  0  0  0  0
    0.6537   -0.3948    4.3694 H   0  0  0  0  0  0  0  0  0  0  0  0
   -1.0388    1.7182    7.3491 H   0  0  0  0  0  0  0  0  0  0  0  0
   -0.0578    1.3847    8.6967 H   0  0  0  0  0  0  0  0  0  0  0  0
   -0.9546    0.1534    8.0660 H   0  0  0  0  0  0  0  0  0  0  0  0
    1.7477    2.0901    8.2018 H   0  0  0  0  0  0  0  0  0  0  0  0
    2.9001    0.8522    9.4690 H   0  0  0  0  0  0  0  0  0  0  0  0
  1  2  2  0
  1 35  1  0
  1 36  1  0
  2  3  1  0
  4  2  1  6
  3 37  1  0
  3 38  1  0
  3 39  1  0
  4 25  1  0
  4 30  1  0
  4  5  1  0
  5  6  1  0
  5  7  1  0
  5 40  1  1
  6 41  1  0
  7  8  1  0
  7 42  1  0
  7 43  1  0
  8 31  1  0
  8  9  1  0
  8 44  1  1
  9 10  1  0
  9 11  1  0
  9 45  1  1
 10 46  1  0
 10 47  1  0
 10 48  1  0
 11 22  1  0
 11 12  1  1
 11 13  1  0
 12 49  1  0
 13 33  1  0
 13 14  1  0
 13 50  1  1
 14 24  1  0
 14 15  1  0
 14 51  1  1
 15 16  1  0
 15 52  1  0
 15 53  1  0
 16 17  1  0
 16 54  1  0
 16 55  1  0
 17 18  1  0
 17 30  1  0
 17 56  1  6
 18 19  1  0
 18 20  1  0
 18 57  1  6
 19 58  1  0
 19 59  1  0
 19 60  1  0
 20 21  2  0
 20 22  1  0
 22 23  1  6
 22 24  1  0
 23 61  1  0
 24 25  1  0
 24 62  1  6
 25 26  1  0
 25 63  1  1
 26 27  1  0
 27 28  1  0
 27 29  2  0
 28 64  1  0
 28 65  1  0
 28 66  1  0
 30 31  1  0
 30 67  1  6
 31 32  1  1
 31 33  1  0
 32 68  1  0
 32 69  1  0
 32 70  1  0
 33 34  1  0
 33 71  1  1
 34 72  1  0
M  END
>  <i_m_ct_stereo_status>  (72) 
1

>  <s_m_source_file>  (72) 
/var/tmp/pbs.5076255.sched01/tmpokz5906q/0mijyat0o.sdf

>  <i_m_source_file_index>  (72) 
30

>  <i_lp_mmshare_version>  (72) 
48012

>  <i_f3d_flags>  (72) 
0

>  <s_epik_input>  (72) 
W0NIMl09QyhbQ0gzXSlbQ0BdMTJbQ0BIXTNbQ0BIXTRbQ0gyXVtDSDJdW0NAQEhdNVtDQEBIXTZbQ0BAXShbT0hdKShbQ0BIXShbQ0gzXSlbQ0BIXShbQ0gyXVtDQEBIXTFbT0hdKVtDQEBdMyhbQ0gzXSlbQ0BIXTZbT0hdKVtDQEBdKFtPSF0pKEMoPU8pW0NAQEhdNFtDSDNdKVtDQEBIXTVbQ0BIXTJPQyg9TylbQ0gzXQ==

>  <s_epik_cmdline>  (72) 
J2VwaWtfcHl0aG9uJywgJy1waHQnLCAnMi4wJywgJy1waCcsICc3LjAnLCAnLXRuJywgJzgnLCAnLW1hJywgJzIwMCcsICctaW1hZScsICc8aW5maWxlLm1hZT4nLCAnLW9tYWUnLCAnPG91dGZpbGUubWFlPic=

>  <r_lp_tautomer_probability>  (72) 
1

>  <r_epik_Ionization_Penalty>  (72) 
1.1403e-06

>  <r_epik_Ionization_Penalty_Charging>  (72) 
0

>  <r_epik_Ionization_Penalty_Neutral>  (72) 
1.1403e-06

>  <r_epik_State_Penalty>  (72) 
-0

>  <r_epik_Charging_Adjusted_Penalty>  (72) 
0

>  <i_epik_Tot_Q>  (72) 
0

>  <i_epik_Tot_abs_Q>  (72) 
0

>  <s_epik_Chemistry_Notes>  (72) 
This compound has an ester and may undergo hydrolysis at high or low pH.

>  <s_lp_Force_Field>  (72) 
OPLS3e

>  <r_lp_Energy>  (72) 
771.954

>  <b_lp_Chiralities_Consistent>  (72) 
1

>  <s_lp_Variant>  (72) 
20:0-1

>  <s_i_glide_gridfile>  (72) 
pfpi4k_grid

>  <i_i_glide_lignum>  (72) 
30

>  <i_i_glide_rotatable_bonds>  (72) 
7

>  <r_i_docking_score>  (72) 
-2.65467

>  <r_i_glide_ligand_efficiency>  (72) 
-0.0780786

>  <r_i_glide_ligand_efficiency_sa>  (72) 
-0.252944

>  <r_i_glide_ligand_efficiency_ln>  (72) 
-0.586491

>  <r_i_glide_gscore>  (72) 
-2.65467

>  <r_i_glide_lipo>  (72) 
-0.0233409

>  <r_i_glide_hbond>  (72) 
-0.315845

>  <r_i_glide_metal>  (72) 
-0

>  <r_i_glide_rewards>  (72) 
-0.674736

>  <r_i_glide_evdw>  (72) 
-24.8973

>  <r_i_glide_ecoul>  (72) 
-3.64656

>  <r_i_glide_erotb>  (72) 
0.179691

>  <r_i_glide_esite>  (72) 
-0.0285927

>  <r_i_glide_emodel>  (72) 
-36.2925

>  <r_i_glide_energy>  (72) 
-28.5438

>  <r_i_glide_einternal>  (72) 
3.02327

>  <r_i_glide_intrahb_reward>  (72) 
-0.5

>  <i_i_glide_confnum>  (72) 
2

>  <i_i_glide_posenum>  (72) 
25

>  <r_i_glide_eff_state_penalty>  (72) 
0

>  <ligand_id>  (72) 
20

>  <original_smiles>  (72) 
C=C(C)C12C(O)CC3C(C)C4(O)C5C6CCC(C(C)C(=O)C4(O)C6C1OC(C)=O)C2C3(C)C5O

>  <smiles>  (72) 
[H]OC1([H])C([H])([H])C2([H])C([H])(C([H])([H])[H])C3(O[H])C4(O[H])C(=O)C([H])(C([H])([H])[H])C5([H])C([H])([H])C([H])([H])C6([H])C4([H])C([H])(OC(=O)C([H])([H])[H])C1(C(=C([H])[H])C([H])([H])[H])C5([H])C2(C([H])([H])[H])C([H])(O[H])C63[H]

$$$$
20:0:1
     RDKit          3D

 72 77  0  0  1  0  0  0  0  0999 V2000
   -1.5722    2.9191    3.8138 C   0  0  0  0  0  0  0  0  0  0  0  0
   -0.9076    1.7665    3.8699 C   0  0  0  0  0  0  0  0  0  0  0  0
   -0.8816    0.9240    2.5835 C   0  0  0  0  0  0  0  0  0  0  0  0
   -0.2333    1.1805    5.1707 C   0  0  2  0  0  0  0  0  0  0  0  0
   -1.1970   -0.1074    5.6566 C   0  0  1  0  0  0  0  0  0  0  0  0
   -2.1168   -0.6089    4.7021 O   0  0  0  0  0  0  0  0  0  0  0  0
   -0.5476   -1.5356    6.1979 C   0  0  0  0  0  0  0  0  0  0  0  0
    0.8114   -1.4326    7.0357 C   0  0  1  0  0  0  0  0  0  0  0  0
    2.2987   -1.8704    6.6987 C   0  0  1  0  0  0  0  0  0  0  0  0
    2.3180   -3.0365    5.6819 C   0  0  0  0  0  0  0  0  0  0  0  0
    3.5463   -0.7437    6.7548 C   0  0  2  0  0  0  0  0  0  0  0  0
    4.7165   -1.5012    7.0863 O   0  0  0  0  0  0  0  0  0  0  0  0
    3.5467    0.5984    7.6085 C   0  0  1  0  0  0  0  0  0  0  0  0
    3.7060    2.1672    6.8264 C   0  0  1  0  0  0  0  0  0  0  0  0
    3.8538    2.7965    5.2679 C   0  0  0  0  0  0  0  0  0  0  0  0
    3.0037    2.3074    3.8874 C   0  0  0  0  0  0  0  0  0  0  0  0
    1.9522    0.9854    3.8436 C   0  0  1  0  0  0  0  0  0  0  0  0
    2.6530   -0.1965    3.2190 C   0  0  1  0  0  0  0  0  0  0  0  0
    3.3331    0.0010    1.8407 C   0  0  0  0  0  0  0  0  0  0  0  0
    3.6130   -0.5752    4.2947 C   0  0  0  0  0  0  0  0  0  0  0  0
    4.3714   -1.5267    4.0751 O   0  0  0  0  0  0  0  0  0  0  0  0
    3.6525    0.2403    5.6372 C   0  0  2  0  0  0  0  0  0  0  0  0
    5.1129    0.4649    5.5720 O   0  0  0  0  0  0  0  0  0  0  0  0
    2.6125    1.7187    6.1477 C   0  0  2  0  0  0  0  0  0  0  0  0
    0.9217    2.2209    5.8937 C   0  0  1  0  0  0  0  0  0  0  0  0
    0.9168    3.5413    5.3120 O   0  0  0  0  0  0  0  0  0  0  0  0
    0.0935    4.5326    5.7573 C   0  0  0  0  0  0  0  0  0  0  0  0
    0.2697    5.8247    4.9553 C   0  0  0  0  0  0  0  0  0  0  0  0
   -0.7902    4.4254    6.5937 O   0  0  0  0  0  0  0  0  0  0  0  0
    0.9473    0.3426    5.1755 C   0  0  1  0  0  0  0  0  0  0  0  0
    0.9749    0.0054    7.0730 C   0  0  1  0  0  0  0  0  0  0  0  0
   -0.2060    0.5207    8.0798 C   0  0  0  0  0  0  0  0  0  0  0  0
    2.1621    0.3229    8.2232 C   0  0  1  0  0  0  0  0  0  0  0  0
    2.2754   -0.5964    9.3175 O   0  0  0  0  0  0  0  0  0  0  0  0
   -1.9462    3.2578    2.8490 H   0  0  0  0  0  0  0  0  0  0  0  0
   -1.7455    3.5428    4.6816 H   0  0  0  0  0  0  0  0  0  0  0  0
   -0.0980    0.1637    2.5563 H   0  0  0  0  0  0  0  0  0  0  0  0
   -0.7751    1.5643    1.7072 H   0  0  0  0  0  0  0  0  0  0  0  0
   -1.8330    0.4165    2.4743 H   0  0  0  0  0  0  0  0  0  0  0  0
   -1.9319    0.2772    6.3622 H   0  0  0  0  0  0  0  0  0  0  0  0
   -2.4921    0.1287    4.2358 H   0  0  0  0  0  0  0  0  0  0  0  0
   -1.2896   -1.9923    6.8511 H   0  0  0  0  0  0  0  0  0  0  0  0
   -0.4455   -2.2858    5.4087 H   0  0  0  0  0  0  0  0  0  0  0  0
    0.5854   -1.8694    8.0131 H   0  0  0  0  0  0  0  0  0  0  0  0
    2.5503   -2.4445    7.5923 H   0  0  0  0  0  0  0  0  0  0  0  0
    1.9488   -2.7442    4.7002 H   0  0  0  0  0  0  0  0  0  0  0  0
    1.6673   -3.8431    6.0274 H   0  0  0  0  0  0  0  0  0  0  0  0
    3.3148   -3.4634    5.5704 H   0  0  0  0  0  0  0  0  0  0  0  0
    5.4381   -0.8985    7.0824 H   0  0  0  0  0  0  0  0  0  0  0  0
    4.3118    0.5518    8.3839 H   0  0  0  0  0  0  0  0  0  0  0  0
    3.7282    3.0209    7.5416 H   0  0  0  0  0  0  0  0  0  0  0  0
    3.6540    3.8711    5.3557 H   0  0  0  0  0  0  0  0  0  0  0  0
    4.9117    2.8306    5.0202 H   0  0  0  0  0  0  0  0  0  0  0  0
    2.4462    3.1794    3.5259 H   0  0  0  0  0  0  0  0  0  0  0  0
    3.7534    2.1994    3.1084 H   0  0  0  0  0  0  0  0  0  0  0  0
    1.3517    1.3248    3.0143 H   0  0  0  0  0  0  0  0  0  0  0  0
    1.9551   -1.0204    3.0776 H   0  0  0  0  0  0  0  0  0  0  0  0
    3.5489   -0.9665    1.3793 H   0  0  0  0  0  0  0  0  0  0  0  0
    4.2872    0.5304    1.8883 H   0  0  0  0  0  0  0  0  0  0  0  0
    2.6842    0.5410    1.1482 H   0  0  0  0  0  0  0  0  0  0  0  0
    5.2623    1.0135    4.8188 H   0  0  0  0  0  0  0  0  0  0  0  0
    2.2204    2.1853    7.0574 H   0  0  0  0  0  0  0  0  0  0  0  0
    0.4861    2.4568    6.8626 H   0  0  0  0  0  0  0  0  0  0  0  0
    0.1795    5.6368    3.8887 H   0  0  0  0  0  0  0  0  0  0  0  0
    1.2432    6.2611    5.1575 H   0  0  0  0  0  0  0  0  0  0  0  0
   -0.4929    6.5472    5.2384 H   0  0  0  0  0  0  0  0  0  0  0  0
    0.7754   -0.5967    4.6322 H   0  0  0  0  0  0  0  0  0  0  0  0
   -0.7971    1.3779    7.7579 H   0  0  0  0  0  0  0  0  0  0  0  0
    0.0630    0.7825    9.1060 H   0  0  0  0  0  0  0  0  0  0  0  0
   -0.9437   -0.2469    8.2971 H   0  0  0  0  0  0  0  0  0  0  0  0
    1.9833    1.2434    8.7887 H   0  0  0  0  0  0  0  0  0  0  0  0
    1.5225   -0.4994    9.8701 H   0  0  0  0  0  0  0  0  0  0  0  0
  1  2  2  0
  1 35  1  0
  1 36  1  0
  2  3  1  0
  4  2  1  6
  3 37  1  0
  3 38  1  0
  3 39  1  0
  4 25  1  0
  4 30  1  0
  4  5  1  0
  5  6  1  0
  5  7  1  0
  5 40  1  1
  6 41  1  0
  7  8  1  0
  7 42  1  0
  7 43  1  0
  8 31  1  0
  8  9  1  0
  8 44  1  1
  9 10  1  0
  9 11  1  0
  9 45  1  1
 10 46  1  0
 10 47  1  0
 10 48  1  0
 11 22  1  0
 11 12  1  1
 11 13  1  0
 12 49  1  0
 13 33  1  0
 13 14  1  0
 13 50  1  1
 14 24  1  0
 14 15  1  0
 14 51  1  1
 15 16  1  0
 15 52  1  0
 15 53  1  0
 16 17  1  0
 16 54  1  0
 16 55  1  0
 17 18  1  0
 17 30  1  0
 17 56  1  6
 18 19  1  0
 18 20  1  0
 18 57  1  6
 19 58  1  0
 19 59  1  0
 19 60  1  0
 20 21  2  0
 20 22  1  0
 22 23  1  1
 22 24  1  0
 23 61  1  0
 24 25  1  0
 24 62  1  6
 25 26  1  0
 25 63  1  1
 26 27  1  0
 27 28  1  0
 27 29  2  0
 28 64  1  0
 28 65  1  0
 28 66  1  0
 30 31  1  0
 30 67  1  6
 31 32  1  1
 31 33  1  0
 32 68  1  0
 32 69  1  0
 32 70  1  0
 33 34  1  0
 33 71  1  1
 34 72  1  0
M  END
>  <i_m_ct_stereo_status>  (73) 
1

>  <s_m_source_file>  (73) 
/var/tmp/pbs.5076255.sched01/tmpokz5906q/0mijyat0o.sdf

>  <i_m_source_file_index>  (73) 
30

>  <i_lp_mmshare_version>  (73) 
48012

>  <i_f3d_flags>  (73) 
0

>  <s_epik_input>  (73) 
W0NIMl09QyhbQ0gzXSlbQ0BdMTJbQ0BIXTNbQ0BIXTRbQ0gyXVtDSDJdW0NAQEhdNVtDQEBIXTZbQ0BAXShbT0hdKShbQ0BIXShbQ0gzXSlbQ0BIXShbQ0gyXVtDQEBIXTFbT0hdKVtDQEBdMyhbQ0gzXSlbQ0BIXTZbT0hdKVtDQEBdKFtPSF0pKEMoPU8pW0NAQEhdNFtDSDNdKVtDQEBIXTVbQ0BIXTJPQyg9TylbQ0gzXQ==

>  <s_epik_cmdline>  (73) 
J2VwaWtfcHl0aG9uJywgJy1waHQnLCAnMi4wJywgJy1waCcsICc3LjAnLCAnLXRuJywgJzgnLCAnLW1hJywgJzIwMCcsICctaW1hZScsICc8aW5maWxlLm1hZT4nLCAnLW9tYWUnLCAnPG91dGZpbGUubWFlPic=

>  <r_lp_tautomer_probability>  (73) 
1

>  <r_epik_Ionization_Penalty>  (73) 
1.1403e-06

>  <r_epik_Ionization_Penalty_Charging>  (73) 
0

>  <r_epik_Ionization_Penalty_Neutral>  (73) 
1.1403e-06

>  <r_epik_State_Penalty>  (73) 
-0

>  <r_epik_Charging_Adjusted_Penalty>  (73) 
0

>  <i_epik_Tot_Q>  (73) 
0

>  <i_epik_Tot_abs_Q>  (73) 
0

>  <s_epik_Chemistry_Notes>  (73) 
This compound has an ester and may undergo hydrolysis at high or low pH.

>  <s_lp_Force_Field>  (73) 
OPLS3e

>  <r_lp_Energy>  (73) 
771.954

>  <b_lp_Chiralities_Consistent>  (73) 
1

>  <s_lp_Variant>  (73) 
20:0-1

>  <s_i_glide_gridfile>  (73) 
pfpi4k_grid

>  <i_i_glide_lignum>  (73) 
30

>  <i_i_glide_rotatable_bonds>  (73) 
7

>  <r_i_docking_score>  (73) 
-1.4036

>  <r_i_glide_ligand_efficiency>  (73) 
-0.0412824

>  <r_i_glide_ligand_efficiency_sa>  (73) 
-0.133739

>  <r_i_glide_ligand_efficiency_ln>  (73) 
-0.310095

>  <r_i_glide_gscore>  (73) 
-1.4036

>  <r_i_glide_lipo>  (73) 
-0.0137235

>  <r_i_glide_hbond>  (73) 
-0.153427

>  <r_i_glide_metal>  (73) 
-0

>  <r_i_glide_rewards>  (73) 
-0.174603

>  <r_i_glide_evdw>  (73) 
-18.9729

>  <r_i_glide_ecoul>  (73) 
-1.88975

>  <r_i_glide_erotb>  (73) 
0.179691

>  <r_i_glide_esite>  (73) 
-0.00943263

>  <r_i_glide_emodel>  (73) 
-17.7468

>  <r_i_glide_energy>  (73) 
-20.8626

>  <r_i_glide_einternal>  (73) 
7.07208

>  <r_i_glide_intrahb_reward>  (73) 
-0

>  <i_i_glide_confnum>  (73) 
2

>  <i_i_glide_posenum>  (73) 
13

>  <r_i_glide_eff_state_penalty>  (73) 
0

>  <ligand_id>  (73) 
20

>  <original_smiles>  (73) 
C=C(C)C12C(O)CC3C(C)C4(O)C5C6CCC(C(C)C(=O)C4(O)C6C1OC(C)=O)C2C3(C)C5O

>  <smiles>  (73) 
[H]OC1([H])C([H])([H])C2([H])C([H])(C([H])([H])[H])C3(O[H])C4(O[H])C(=O)C([H])(C([H])([H])[H])C5([H])C([H])([H])C([H])([H])C6([H])C4([H])C([H])(OC(=O)C([H])([H])[H])C1(C(=C([H])[H])C([H])([H])[H])C5([H])C2(C([H])([H])[H])C([H])(O[H])C63[H]

$$$$
20:0:2
     RDKit          3D

 72 77  0  0  1  0  0  0  0  0999 V2000
    0.0202    5.8745    5.1116 C   0  0  0  0  0  0  0  0  0  0  0  0
   -0.3180    4.5962    4.9250 C   0  0  0  0  0  0  0  0  0  0  0  0
   -1.1264    4.2562    3.6639 C   0  0  0  0  0  0  0  0  0  0  0  0
    0.0044    3.4820    5.9900 C   0  0  2  0  0  0  0  0  0  0  0  0
   -1.4627    3.0102    6.6264 C   0  0  1  0  0  0  0  0  0  0  0  0
   -2.6099    3.3504    5.8828 O   0  0  0  0  0  0  0  0  0  0  0  0
   -1.7842    1.4178    6.9172 C   0  0  0  0  0  0  0  0  0  0  0  0
   -0.5666    0.5300    7.4134 C   0  0  1  0  0  0  0  0  0  0  0  0
    0.2297   -0.6557    6.7132 C   0  0  1  0  0  0  0  0  0  0  0  0
   -0.6308   -1.3634    5.6479 C   0  0  0  0  0  0  0  0  0  0  0  0
    1.8968   -0.5657    6.5239 C   0  0  2  0  0  0  0  0  0  0  0  0
    2.3830   -1.9075    6.5479 O   0  0  0  0  0  0  0  0  0  0  0  0
    2.8559    0.3010    7.4334 C   0  0  1  0  0  0  0  0  0  0  0  0
    3.8594    1.5268    6.7199 C   0  0  1  0  0  0  0  0  0  0  0  0
    4.1460    2.2277    5.2196 C   0  0  0  0  0  0  0  0  0  0  0  0
    3.0008    2.6544    4.0411 C   0  0  0  0  0  0  0  0  0  0  0  0
    1.3492    2.3140    4.1675 C   0  0  1  0  0  0  0  0  0  0  0  0
    1.0281    1.0956    3.3437 C   0  0  1  0  0  0  0  0  0  0  0  0
    1.4911    1.0989    1.8682 C   0  0  0  0  0  0  0  0  0  0  0  0
    1.6738   -0.0051    4.1212 C   0  0  0  0  0  0  0  0  0  0  0  0
    1.5974   -1.1522    3.6751 O   0  0  0  0  0  0  0  0  0  0  0  0
    2.4307    0.3385    5.4505 C   0  0  2  0  0  0  0  0  0  0  0  0
    3.6710   -0.3543    5.0817 O   0  0  0  0  0  0  0  0  0  0  0  0
    2.6597    1.9913    6.2866 C   0  0  2  0  0  0  0  0  0  0  0  0
    1.6486    3.4366    6.4755 C   0  0  1  0  0  0  0  0  0  0  0  0
    2.4004    4.5928    6.0308 O   0  0  0  0  0  0  0  0  0  0  0  0
    3.3134    5.2953    6.7478 C   0  0  0  0  0  0  0  0  0  0  0  0
    3.6461    4.8214    8.1858 C   0  0  0  0  0  0  0  0  0  0  0  0
    3.8983    6.2535    6.2629 O   0  0  0  0  0  0  0  0  0  0  0  0
    0.3776    2.1408    5.6646 C   0  0  1  0  0  0  0  0  0  0  0  0
    0.4640    1.5261    7.4930 C   0  0  1  0  0  0  0  0  0  0  0  0
    0.0252    2.4380    8.7866 C   0  0  0  0  0  0  0  0  0  0  0  0
    1.7309    0.8428    8.3397 C   0  0  1  0  0  0  0  0  0  0  0  0
    1.3808   -0.1216    9.3456 O   0  0  0  0  0  0  0  0  0  0  0  0
   -0.1791    6.6219    4.3484 H   0  0  0  0  0  0  0  0  0  0  0  0
    0.5279    6.2239    6.0046 H   0  0  0  0  0  0  0  0  0  0  0  0
   -1.0852    3.1976    3.3557 H   0  0  0  0  0  0  0  0  0  0  0  0
   -0.7136    4.8452    2.8414 H   0  0  0  0  0  0  0  0  0  0  0  0
   -2.1522    4.5668    3.7619 H   0  0  0  0  0  0  0  0  0  0  0  0
   -1.6653    3.6193    7.5057 H   0  0  0  0  0  0  0  0  0  0  0  0
   -2.5415    2.9373    5.0398 H   0  0  0  0  0  0  0  0  0  0  0  0
   -2.5571    1.3911    7.6861 H   0  0  0  0  0  0  0  0  0  0  0  0
   -2.2351    0.9427    6.0449 H   0  0  0  0  0  0  0  0  0  0  0  0
   -0.8452    0.1869    8.4186 H   0  0  0  0  0  0  0  0  0  0  0  0
    0.1732   -1.4150    7.4964 H   0  0  0  0  0  0  0  0  0  0  0  0
   -0.8666   -0.7280    4.7953 H   0  0  0  0  0  0  0  0  0  0  0  0
   -1.5947   -1.6691    6.0771 H   0  0  0  0  0  0  0  0  0  0  0  0
   -0.1410   -2.2708    5.2893 H   0  0  0  0  0  0  0  0  0  0  0  0
    2.2562   -2.2637    7.4010 H   0  0  0  0  0  0  0  0  0  0  0  0
    3.5158   -0.3347    8.0231 H   0  0  0  0  0  0  0  0  0  0  0  0
    4.5300    1.9980    7.4749 H   0  0  0  0  0  0  0  0  0  0  0  0
    4.6573    3.1673    5.4510 H   0  0  0  0  0  0  0  0  0  0  0  0
    4.9428    1.6867    4.7156 H   0  0  0  0  0  0  0  0  0  0  0  0
    3.0839    3.7382    3.9048 H   0  0  0  0  0  0  0  0  0  0  0  0
    3.4078    2.2952    3.0921 H   0  0  0  0  0  0  0  0  0  0  0  0
    0.9793    3.1151    3.5390 H   0  0  0  0  0  0  0  0  0  0  0  0
   -0.0469    0.9222    3.3208 H   0  0  0  0  0  0  0  0  0  0  0  0
    0.9784    0.3178    1.3122 H   0  0  0  0  0  0  0  0  0  0  0  0
    2.5545    0.9228    1.7413 H   0  0  0  0  0  0  0  0  0  0  0  0
    1.2392    2.0530    1.3916 H   0  0  0  0  0  0  0  0  0  0  0  0
    4.2230   -0.3071    5.8405 H   0  0  0  0  0  0  0  0  0  0  0  0
    2.8293    2.4275    7.2585 H   0  0  0  0  0  0  0  0  0  0  0  0
    1.5847    3.6994    7.5130 H   0  0  0  0  0  0  0  0  0  0  0  0
    4.0463    3.8420    8.1658 H   0  0  0  0  0  0  0  0  0  0  0  0
    2.7378    4.8484    8.8342 H   0  0  0  0  0  0  0  0  0  0  0  0
    4.3935    5.4682    8.6445 H   0  0  0  0  0  0  0  0  0  0  0  0
   -0.4209    1.6328    5.1325 H   0  0  0  0  0  0  0  0  0  0  0  0
    0.0701    3.5194    8.6840 H   0  0  0  0  0  0  0  0  0  0  0  0
    0.5384    2.2570    9.7284 H   0  0  0  0  0  0  0  0  0  0  0  0
   -0.9979    2.2517    9.1284 H   0  0  0  0  0  0  0  0  0  0  0  0
    2.2594    1.5580    8.9621 H   0  0  0  0  0  0  0  0  0  0  0  0
    1.2147   -0.9481    8.9309 H   0  0  0  0  0  0  0  0  0  0  0  0
  1  2  2  0
  1 35  1  0
  1 36  1  0
  2  3  1  0
  4  2  1  6
  3 37  1  0
  3 38  1  0
  3 39  1  0
  4 25  1  0
  4 30  1  0
  4  5  1  0
  5  6  1  0
  5  7  1  0
  5 40  1  1
  6 41  1  0
  7  8  1  0
  7 42  1  0
  7 43  1  0
  8 31  1  0
  8  9  1  0
  8 44  1  1
  9 10  1  0
  9 11  1  0
  9 45  1  1
 10 46  1  0
 10 47  1  0
 10 48  1  0
 11 22  1  0
 11 12  1  6
 11 13  1  0
 12 49  1  0
 13 33  1  0
 13 14  1  0
 13 50  1  1
 14 24  1  0
 14 15  1  0
 14 51  1  1
 15 16  1  0
 15 52  1  0
 15 53  1  0
 16 17  1  0
 16 54  1  0
 16 55  1  0
 17 18  1  0
 17 30  1  0
 17 56  1  6
 18 19  1  0
 18 20  1  0
 18 57  1  6
 19 58  1  0
 19 59  1  0
 19 60  1  0
 20 21  2  0
 20 22  1  0
 22 23  1  6
 22 24  1  0
 23 61  1  0
 24 25  1  0
 24 62  1  6
 25 26  1  0
 25 63  1  1
 26 27  1  0
 27 28  1  0
 27 29  2  0
 28 64  1  0
 28 65  1  0
 28 66  1  0
 30 31  1  0
 30 67  1  6
 31 32  1  1
 31 33  1  0
 32 68  1  0
 32 69  1  0
 32 70  1  0
 33 34  1  0
 33 71  1  1
 34 72  1  0
M  END
>  <i_m_ct_stereo_status>  (74) 
1

>  <s_m_source_file>  (74) 
/var/tmp/pbs.5076255.sched01/tmpokz5906q/0mijyat0o.sdf

>  <i_m_source_file_index>  (74) 
30

>  <i_lp_mmshare_version>  (74) 
48012

>  <i_f3d_flags>  (74) 
0

>  <s_epik_input>  (74) 
W0NIMl09QyhbQ0gzXSlbQ0BdMTJbQ0BIXTNbQ0BIXTRbQ0gyXVtDSDJdW0NAQEhdNVtDQEBIXTZbQ0BAXShbT0hdKShbQ0BIXShbQ0gzXSlbQ0BIXShbQ0gyXVtDQEBIXTFbT0hdKVtDQEBdMyhbQ0gzXSlbQ0BIXTZbT0hdKVtDQEBdKFtPSF0pKEMoPU8pW0NAQEhdNFtDSDNdKVtDQEBIXTVbQ0BIXTJPQyg9TylbQ0gzXQ==

>  <s_epik_cmdline>  (74) 
J2VwaWtfcHl0aG9uJywgJy1waHQnLCAnMi4wJywgJy1waCcsICc3LjAnLCAnLXRuJywgJzgnLCAnLW1hJywgJzIwMCcsICctaW1hZScsICc8aW5maWxlLm1hZT4nLCAnLW9tYWUnLCAnPG91dGZpbGUubWFlPic=

>  <r_lp_tautomer_probability>  (74) 
1

>  <r_epik_Ionization_Penalty>  (74) 
1.1403e-06

>  <r_epik_Ionization_Penalty_Charging>  (74) 
0

>  <r_epik_Ionization_Penalty_Neutral>  (74) 
1.1403e-06

>  <r_epik_State_Penalty>  (74) 
-0

>  <r_epik_Charging_Adjusted_Penalty>  (74) 
0

>  <i_epik_Tot_Q>  (74) 
0

>  <i_epik_Tot_abs_Q>  (74) 
0

>  <s_epik_Chemistry_Notes>  (74) 
This compound has an ester and may undergo hydrolysis at high or low pH.

>  <s_lp_Force_Field>  (74) 
OPLS3e

>  <r_lp_Energy>  (74) 
771.954

>  <b_lp_Chiralities_Consistent>  (74) 
1

>  <s_lp_Variant>  (74) 
20:0-1

>  <s_i_glide_gridfile>  (74) 
pfpi4k_grid

>  <i_i_glide_lignum>  (74) 
30

>  <i_i_glide_rotatable_bonds>  (74) 
7

>  <r_i_docking_score>  (74) 
-1.07227

>  <r_i_glide_ligand_efficiency>  (74) 
-0.0315372

>  <r_i_glide_ligand_efficiency_sa>  (74) 
-0.102168

>  <r_i_glide_ligand_efficiency_ln>  (74) 
-0.236894

>  <r_i_glide_gscore>  (74) 
-1.07227

>  <r_i_glide_lipo>  (74) 
-0.0367045

>  <r_i_glide_hbond>  (74) 
0

>  <r_i_glide_metal>  (74) 
-0

>  <r_i_glide_rewards>  (74) 
-0.173274

>  <r_i_glide_evdw>  (74) 
-22.7395

>  <r_i_glide_ecoul>  (74) 
0.64847

>  <r_i_glide_erotb>  (74) 
0.179691

>  <r_i_glide_esite>  (74) 
-0.00227445

>  <r_i_glide_emodel>  (74) 
-18.6794

>  <r_i_glide_energy>  (74) 
-22.091

>  <r_i_glide_einternal>  (74) 
8.7541

>  <r_i_glide_intrahb_reward>  (74) 
-0

>  <i_i_glide_confnum>  (74) 
3

>  <i_i_glide_posenum>  (74) 
20

>  <r_i_glide_eff_state_penalty>  (74) 
0

>  <ligand_id>  (74) 
20

>  <original_smiles>  (74) 
C=C(C)C12C(O)CC3C(C)C4(O)C5C6CCC(C(C)C(=O)C4(O)C6C1OC(C)=O)C2C3(C)C5O

>  <smiles>  (74) 
[H]OC1([H])C([H])([H])C2([H])C([H])(C([H])([H])[H])C3(O[H])C4(O[H])C(=O)C([H])(C([H])([H])[H])C5([H])C([H])([H])C([H])([H])C6([H])C4([H])C([H])(OC(=O)C([H])([H])[H])C1(C(=C([H])[H])C([H])([H])[H])C5([H])C2(C([H])([H])[H])C([H])(O[H])C63[H]

$$$$
22:0:0
     RDKit          3D

 86 91  0  0  1  0  0  0  0  0999 V2000
    5.7950   -3.3157   -1.4228 C   0  0  0  0  0  0  0  0  0  0  0  0
    6.5216   -3.4383   -0.0957 C   0  0  0  0  0  0  0  0  0  0  0  0
    7.9195   -2.8478   -0.0946 C   0  0  0  0  0  0  0  0  0  0  0  0
    6.0116   -3.9955    1.0216 C   0  0  0  0  0  0  0  0  0  0  0  0
    4.6394   -4.6513    1.2203 C   0  0  0  0  0  0  0  0  0  0  0  0
    4.4613   -5.5816    2.5180 C   0  0  2  0  0  0  0  0  0  0  0  0
    3.3365   -6.4497    2.2785 O   0  0  0  0  0  0  0  0  0  0  0  0
    2.0819   -5.8142    2.4754 C   0  0  1  0  0  0  0  0  0  0  0  0
    0.9899   -6.7283    3.0824 C   0  0  0  0  0  0  0  0  0  0  0  0
   -0.2095   -6.9970    2.3685 C   0  0  0  0  0  0  0  0  0  0  0  0
   -1.2120   -7.8239    2.9522 C   0  0  0  0  0  0  0  0  0  0  0  0
   -1.0259   -8.3934    4.2393 C   0  0  0  0  0  0  0  0  0  0  0  0
    0.1625   -8.1266    4.9376 C   0  0  0  0  0  0  0  0  0  0  0  0
    0.4277   -8.7185    6.3112 C   0  0  0  0  0  0  0  0  0  0  0  0
    1.1445   -7.3096    4.3664 C   0  0  0  0  0  0  0  0  0  0  0  0
    2.4795   -4.5651    3.2784 C   0  0  1  0  0  0  0  0  0  0  0  0
    1.3263   -3.8453    4.0107 C   0  0  0  0  0  0  0  0  0  0  0  0
    3.9635   -4.7986    3.8277 C   0  0  2  0  0  0  0  0  0  0  0  0
    4.6329   -3.4486    4.0492 C   0  0  0  0  0  0  0  0  0  0  0  0
    4.4909   -2.7308    5.1783 C   0  0  0  0  0  0  0  0  0  0  0  0
    5.1837   -1.3938    5.3480 C   0  0  0  0  0  0  0  0  0  0  0  0
    3.6527   -3.2078    6.3710 C   0  0  0  0  0  0  0  0  0  0  0  0
    3.2196   -4.6974    6.2958 C   0  0  0  0  0  0  0  0  0  0  0  0
    4.0202   -5.5521    5.2439 C   0  0  2  0  0  0  0  0  0  0  0  0
    5.3106   -6.1770    5.9545 C   0  0  1  0  0  0  0  0  0  0  0  0
    6.0091   -5.1865    6.9328 C   0  0  0  0  0  0  0  0  0  0  0  0
    4.9058   -7.3590    6.8885 C   0  0  0  0  0  0  0  0  0  0  0  0
    3.8276   -7.4571    7.4778 O   0  0  0  0  0  0  0  0  0  0  0  0
    5.9732   -8.3341    6.9701 C   0  0  0  0  0  0  0  0  0  0  0  0
    6.8367   -8.0389    6.0069 C   0  0  0  0  0  0  0  0  0  0  0  0
    6.3933   -6.9131    5.0800 C   0  0  2  0  0  0  0  0  0  0  0  0
    7.5048   -6.0552    4.8570 O   0  0  0  0  0  0  0  0  0  0  0  0
    5.9626   -7.5592    3.7089 C   0  0  2  0  0  0  0  0  0  0  0  0
    4.7993   -8.3589    3.8691 O   0  0  0  0  0  0  0  0  0  0  0  0
    7.0979   -8.4881    3.1149 C   0  0  1  0  0  0  0  0  0  0  0  0
    6.9214  -10.0116    3.3001 C   0  0  0  0  0  0  0  0  0  0  0  0
    7.2740   -8.1190    1.6363 C   0  0  0  0  0  0  0  0  0  0  0  0
    6.0448   -7.3038    1.2807 C   0  0  1  0  0  0  0  0  0  0  0  0
    5.0366   -8.2140    0.8787 O   0  0  0  0  0  0  0  0  0  0  0  0
    5.7208   -6.5294    2.5811 C   0  0  1  0  0  0  0  0  0  0  0  0
    5.7518   -2.2674   -1.7218 H   0  0  0  0  0  0  0  0  0  0  0  0
    4.7742   -3.6971   -1.3913 H   0  0  0  0  0  0  0  0  0  0  0  0
    6.3412   -3.8550   -2.1955 H   0  0  0  0  0  0  0  0  0  0  0  0
    7.8852   -1.7860   -0.3303 H   0  0  0  0  0  0  0  0  0  0  0  0
    8.5414   -3.3470   -0.8361 H   0  0  0  0  0  0  0  0  0  0  0  0
    8.4046   -2.9521    0.8739 H   0  0  0  0  0  0  0  0  0  0  0  0
    6.6473   -3.9594    1.8931 H   0  0  0  0  0  0  0  0  0  0  0  0
    3.9760   -3.7925    1.1819 H   0  0  0  0  0  0  0  0  0  0  0  0
    4.3834   -5.2206    0.3241 H   0  0  0  0  0  0  0  0  0  0  0  0
    1.7366   -5.4962    1.4924 H   0  0  0  0  0  0  0  0  0  0  0  0
   -0.3790   -6.5879    1.3816 H   0  0  0  0  0  0  0  0  0  0  0  0
   -2.1287   -8.0471    2.4127 H   0  0  0  0  0  0  0  0  0  0  0  0
   -1.7660   -9.0434    4.6798 H   0  0  0  0  0  0  0  0  0  0  0  0
    1.4267   -8.4756    6.6792 H   0  0  0  0  0  0  0  0  0  0  0  0
    0.3498   -9.8038    6.2850 H   0  0  0  0  0  0  0  0  0  0  0  0
   -0.2683   -8.3253    7.0456 H   0  0  0  0  0  0  0  0  0  0  0  0
    1.9575   -7.2014    4.9979 H   0  0  0  0  0  0  0  0  0  0  0  0
    2.5911   -3.7842    2.5299 H   0  0  0  0  0  0  0  0  0  0  0  0
    0.7492   -4.4860    4.6723 H   0  0  0  0  0  0  0  0  0  0  0  0
    0.6118   -3.4784    3.2780 H   0  0  0  0  0  0  0  0  0  0  0  0
    1.6721   -2.9582    4.5397 H   0  0  0  0  0  0  0  0  0  0  0  0
    5.2744   -3.0691    3.2750 H   0  0  0  0  0  0  0  0  0  0  0  0
    5.8850   -1.4304    6.1812 H   0  0  0  0  0  0  0  0  0  0  0  0
    4.4370   -0.6277    5.5390 H   0  0  0  0  0  0  0  0  0  0  0  0
    5.7304   -1.1274    4.4455 H   0  0  0  0  0  0  0  0  0  0  0  0
    4.2379   -3.0467    7.2839 H   0  0  0  0  0  0  0  0  0  0  0  0
    2.7800   -2.5543    6.4766 H   0  0  0  0  0  0  0  0  0  0  0  0
    3.2547   -5.1112    7.2998 H   0  0  0  0  0  0  0  0  0  0  0  0
    2.1563   -4.7710    6.1229 H   0  0  0  0  0  0  0  0  0  0  0  0
    3.5700   -6.4561    5.0143 H   0  0  0  0  0  0  0  0  0  0  0  0
    6.3227   -4.2788    6.4130 H   0  0  0  0  0  0  0  0  0  0  0  0
    6.9031   -5.6279    7.3878 H   0  0  0  0  0  0  0  0  0  0  0  0
    5.3780   -4.9027    7.7799 H   0  0  0  0  0  0  0  0  0  0  0  0
    6.0558   -9.0987    7.7267 H   0  0  0  0  0  0  0  0  0  0  0  0
    7.7696   -8.5567    5.8575 H   0  0  0  0  0  0  0  0  0  0  0  0
    8.1215   -6.5091    4.3003 H   0  0  0  0  0  0  0  0  0  0  0  0
    4.9880   -9.0377    4.5018 H   0  0  0  0  0  0  0  0  0  0  0  0
    8.0539   -8.2454    3.5779 H   0  0  0  0  0  0  0  0  0  0  0  0
    6.0574  -10.3924    2.7536 H   0  0  0  0  0  0  0  0  0  0  0  0
    6.8056  -10.2835    4.3482 H   0  0  0  0  0  0  0  0  0  0  0  0
    7.7942  -10.5474    2.9281 H   0  0  0  0  0  0  0  0  0  0  0  0
    8.1624   -7.4942    1.5219 H   0  0  0  0  0  0  0  0  0  0  0  0
    7.4083   -8.9770    0.9733 H   0  0  0  0  0  0  0  0  0  0  0  0
    6.2649   -6.6345    0.4532 H   0  0  0  0  0  0  0  0  0  0  0  0
    4.8722   -8.8078    1.5980 H   0  0  0  0  0  0  0  0  0  0  0  0
    6.5680   -5.8642    2.6678 H   0  0  0  0  0  0  0  0  0  0  0  0
  1  2  1  0
  1 41  1  0
  1 42  1  0
  1 43  1  0
  2  3  1  0
  2  4  2  3
  3 44  1  0
  3 45  1  0
  3 46  1  0
  4  5  1  0
  4 47  1  0
  6  5  1  6
  5 48  1  0
  5 49  1  0
  6 18  1  0
  6 40  1  0
  6  7  1  0
  7  8  1  0
  8  9  1  0
  8 16  1  0
  8 50  1  6
  9 15  1  0
  9 10  2  0
 10 11  1  0
 10 51  1  0
 11 12  2  0
 11 52  1  0
 12 13  1  0
 12 53  1  0
 13 14  1  0
 13 15  2  0
 14 54  1  0
 14 55  1  0
 14 56  1  0
 15 57  1  0
 16 17  1  0
 16 18  1  0
 16 58  1  6
 17 59  1  0
 17 60  1  0
 17 61  1  0
 18 24  1  0
 18 19  1  1
 19 20  2  0
 19 62  1  0
 20 21  1  0
 20 22  1  0
 21 63  1  0
 21 64  1  0
 21 65  1  0
 22 23  1  0
 22 66  1  0
 22 67  1  0
 23 24  1  0
 23 68  1  0
 23 69  1  0
 24 25  1  0
 24 70  1  6
 25 31  1  0
 25 26  1  1
 25 27  1  0
 26 71  1  0
 26 72  1  0
 26 73  1  0
 27 28  2  0
 27 29  1  0
 29 30  2  0
 29 74  1  0
 30 31  1  0
 30 75  1  0
 31 32  1  6
 31 33  1  0
 32 76  1  0
 33 40  1  0
 33 34  1  1
 33 35  1  0
 34 77  1  0
 35 36  1  0
 35 37  1  0
 35 78  1  1
 36 79  1  0
 36 80  1  0
 36 81  1  0
 37 38  1  0
 37 82  1  0
 37 83  1  0
 38 39  1  0
 38 40  1  0
 38 84  1  6
 39 85  1  0
 40 86  1  1
M  END
>  <i_m_ct_stereo_status>  (75) 
1

>  <s_m_source_file>  (75) 
/var/tmp/pbs.5076255.sched01/tmpokz5906q/0mijyat0o.sdf

>  <i_m_source_file_index>  (75) 
32

>  <i_lp_mmshare_version>  (75) 
48012

>  <i_f3d_flags>  (75) 
0

>  <s_epik_input>  (75) 
W0NIM11jKFtjSF0xKVtjSF1bY0hdW2NIXWMxW0NAQEhdKFtDQEhdMltDSDNdKU9bQ0BdKFtDQF0yMzQpKFtDSDJdW0NIXT1DKFtDSDNdKVtDSDNdKVtDQEhdNVtDQEBdKFtPSF0pKFtDQEBIXShbQ0gzXSlbQ0gyXVtDQEhdNVtPSF0pW0NAQF02KFtPSF0pW0NAXShbQ0gzXSkoQyg9TylbQ0hdPVtDSF02KVtDQEhdNFtDSDJdW0NIMl1DKD1bQ0hdMylbQ0gzXQ==

>  <s_epik_cmdline>  (75) 
J2VwaWtfcHl0aG9uJywgJy1waHQnLCAnMi4wJywgJy1waCcsICc3LjAnLCAnLXRuJywgJzgnLCAnLW1hJywgJzIwMCcsICctaW1hZScsICc8aW5maWxlLm1hZT4nLCAnLW9tYWUnLCAnPG91dGZpbGUubWFlPic=

>  <r_lp_tautomer_probability>  (75) 
1

>  <r_epik_Ionization_Penalty>  (75) 
5.54659e-07

>  <r_epik_Ionization_Penalty_Charging>  (75) 
0

>  <r_epik_Ionization_Penalty_Neutral>  (75) 
5.54659e-07

>  <r_epik_State_Penalty>  (75) 
-0

>  <r_epik_Charging_Adjusted_Penalty>  (75) 
0

>  <i_epik_Tot_Q>  (75) 
0

>  <i_epik_Tot_abs_Q>  (75) 
0

>  <s_lp_Force_Field>  (75) 
OPLS3e

>  <r_lp_Energy>  (75) 
80.3473

>  <b_lp_Chiralities_Consistent>  (75) 
1

>  <s_lp_Variant>  (75) 
22:0-1

>  <s_i_glide_gridfile>  (75) 
pfpi4k_grid

>  <i_i_glide_lignum>  (75) 
32

>  <i_i_glide_rotatable_bonds>  (75) 
6

>  <r_i_docking_score>  (75) 
-1.97806

>  <r_i_glide_ligand_efficiency>  (75) 
-0.0494514

>  <r_i_glide_ligand_efficiency_sa>  (75) 
-0.169122

>  <r_i_glide_ligand_efficiency_ln>  (75) 
-0.421862

>  <r_i_glide_gscore>  (75) 
-1.97806

>  <r_i_glide_lipo>  (75) 
-0.79676

>  <r_i_glide_hbond>  (75) 
0

>  <r_i_glide_metal>  (75) 
-0

>  <r_i_glide_rewards>  (75) 
0

>  <r_i_glide_evdw>  (75) 
-25.53

>  <r_i_glide_ecoul>  (75) 
-0.751097

>  <r_i_glide_erotb>  (75) 
0.207865

>  <r_i_glide_esite>  (75) 
0

>  <r_i_glide_emodel>  (75) 
-25.9199

>  <r_i_glide_energy>  (75) 
-26.2811

>  <r_i_glide_einternal>  (75) 
2.84828

>  <r_i_glide_intrahb_reward>  (75) 
-0

>  <i_i_glide_confnum>  (75) 
4

>  <i_i_glide_posenum>  (75) 
2

>  <r_i_glide_eff_state_penalty>  (75) 
0

>  <ligand_id>  (75) 
22

>  <original_smiles>  (75) 
CC(C)=CCC12OC(c3cccc(C)c3)C(C)C13C=C(C)CCC3C1(C)C(=O)C=CC1(O)C1(O)C(C)CC(O)C21

>  <smiles>  (75) 
[H]OC1([H])C([H])([H])C([H])(C([H])([H])[H])C2(O[H])C3(O[H])C([H])=C([H])C(=O)C3(C([H])([H])[H])C3([H])C([H])([H])C([H])([H])C(C([H])([H])[H])=C([H])C34C([H])(C([H])([H])[H])C([H])(c3c([H])c([H])c([H])c(C([H])([H])[H])c3[H])OC4(C([H])([H])C([H])=C(C([H])([H])[H])C([H])([H])[H])C12[H]

$$$$
22:0:1
     RDKit          3D

 86 91  0  0  1  0  0  0  0  0999 V2000
    5.1957   -2.3972   -0.2336 C   0  0  0  0  0  0  0  0  0  0  0  0
    5.5710   -2.0626    1.2061 C   0  0  0  0  0  0  0  0  0  0  0  0
    6.7610   -1.1343    1.2924 C   0  0  0  0  0  0  0  0  0  0  0  0
    4.9615   -2.5251    2.3174 C   0  0  0  0  0  0  0  0  0  0  0  0
    3.7993   -3.5034    2.4485 C   0  0  0  0  0  0  0  0  0  0  0  0
    4.0794   -4.9356    3.1232 C   0  0  2  0  0  0  0  0  0  0  0  0
    3.2008   -5.8679    2.4825 O   0  0  0  0  0  0  0  0  0  0  0  0
    1.8737   -5.8006    2.9867 C   0  0  1  0  0  0  0  0  0  0  0  0
    1.1735   -7.1624    3.0621 C   0  0  0  0  0  0  0  0  0  0  0  0
    1.8944   -8.3778    3.0561 C   0  0  0  0  0  0  0  0  0  0  0  0
    1.2204   -9.6089    3.1461 C   0  0  0  0  0  0  0  0  0  0  0  0
   -0.1740   -9.6360    3.2281 C   0  0  0  0  0  0  0  0  0  0  0  0
   -0.8981   -8.4307    3.2165 C   0  0  0  0  0  0  0  0  0  0  0  0
   -2.3964   -8.4489    3.3136 C   0  0  0  0  0  0  0  0  0  0  0  0
   -0.2212   -7.2108    3.1434 C   0  0  0  0  0  0  0  0  0  0  0  0
    2.0277   -5.0162    4.2926 C   0  0  1  0  0  0  0  0  0  0  0  0
    0.8592   -5.1407    5.3010 C   0  0  0  0  0  0  0  0  0  0  0  0
    3.5706   -5.0677    4.6359 C   0  0  2  0  0  0  0  0  0  0  0  0
    3.9064   -3.8544    5.4936 C   0  0  0  0  0  0  0  0  0  0  0  0
    3.7667   -3.8186    6.8333 C   0  0  0  0  0  0  0  0  0  0  0  0
    4.0882   -2.5765    7.6410 C   0  0  0  0  0  0  0  0  0  0  0  0
    3.2735   -5.0189    7.6339 C   0  0  0  0  0  0  0  0  0  0  0  0
    3.2214   -6.3509    6.8441 C   0  0  0  0  0  0  0  0  0  0  0  0
    3.9991   -6.3668    5.4771 C   0  0  2  0  0  0  0  0  0  0  0  0
    5.5282   -6.8027    5.7798 C   0  0  1  0  0  0  0  0  0  0  0  0
    6.0886   -6.1972    7.1164 C   0  0  0  0  0  0  0  0  0  0  0  0
    5.6115   -8.3245    6.0212 C   0  0  0  0  0  0  0  0  0  0  0  0
    4.7135   -9.0153    6.5032 O   0  0  0  0  0  0  0  0  0  0  0  0
    6.9138   -8.8302    5.6272 C   0  0  0  0  0  0  0  0  0  0  0  0
    7.5207   -7.8764    4.9223 C   0  0  0  0  0  0  0  0  0  0  0  0
    6.6430   -6.6619    4.6770 C   0  0  2  0  0  0  0  0  0  0  0  0
    7.4405   -5.5092    4.9329 O   0  0  0  0  0  0  0  0  0  0  0  0
    6.2089   -6.6830    3.1740 C   0  0  2  0  0  0  0  0  0  0  0  0
    5.3495   -7.7761    2.9309 O   0  0  0  0  0  0  0  0  0  0  0  0
    7.4529   -6.8204    2.2043 C   0  0  1  0  0  0  0  0  0  0  0  0
    7.6915   -8.2175    1.6014 C   0  0  0  0  0  0  0  0  0  0  0  0
    7.2686   -5.8091    1.0907 C   0  0  0  0  0  0  0  0  0  0  0  0
    5.8249   -5.3616    1.1787 C   0  0  1  0  0  0  0  0  0  0  0  0
    5.0496   -6.2788    0.4231 O   0  0  0  0  0  0  0  0  0  0  0  0
    5.5320   -5.3828    2.7108 C   0  0  1  0  0  0  0  0  0  0  0  0
    4.9848   -1.5110   -0.8252 H   0  0  0  0  0  0  0  0  0  0  0  0
    4.3368   -3.0587   -0.3134 H   0  0  0  0  0  0  0  0  0  0  0  0
    6.0497   -2.8937   -0.6973 H   0  0  0  0  0  0  0  0  0  0  0  0
    6.5844   -0.2223    0.7157 H   0  0  0  0  0  0  0  0  0  0  0  0
    7.6405   -1.6290    0.8758 H   0  0  0  0  0  0  0  0  0  0  0  0
    6.9880   -0.8535    2.3254 H   0  0  0  0  0  0  0  0  0  0  0  0
    5.3414   -2.1658    3.2598 H   0  0  0  0  0  0  0  0  0  0  0  0
    3.0709   -2.8932    2.9870 H   0  0  0  0  0  0  0  0  0  0  0  0
    3.3383   -3.6667    1.4793 H   0  0  0  0  0  0  0  0  0  0  0  0
    1.2938   -5.1917    2.2862 H   0  0  0  0  0  0  0  0  0  0  0  0
    2.9656   -8.3774    2.9917 H   0  0  0  0  0  0  0  0  0  0  0  0
    1.7756  -10.5455    3.1504 H   0  0  0  0  0  0  0  0  0  0  0  0
   -0.6836  -10.5881    3.3081 H   0  0  0  0  0  0  0  0  0  0  0  0
   -2.8379   -7.4562    3.3673 H   0  0  0  0  0  0  0  0  0  0  0  0
   -2.6381   -8.9076    4.2570 H   0  0  0  0  0  0  0  0  0  0  0  0
   -2.8179   -9.0009    2.4708 H   0  0  0  0  0  0  0  0  0  0  0  0
   -0.7997   -6.2963    3.1787 H   0  0  0  0  0  0  0  0  0  0  0  0
    1.8367   -3.9866    4.0060 H   0  0  0  0  0  0  0  0  0  0  0  0
    0.5845   -6.1628    5.5696 H   0  0  0  0  0  0  0  0  0  0  0  0
   -0.0436   -4.7161    4.8551 H   0  0  0  0  0  0  0  0  0  0  0  0
    1.0350   -4.5572    6.2014 H   0  0  0  0  0  0  0  0  0  0  0  0
    4.2810   -2.9767    4.9906 H   0  0  0  0  0  0  0  0  0  0  0  0
    4.8934   -2.7838    8.3458 H   0  0  0  0  0  0  0  0  0  0  0  0
    3.2133   -2.2507    8.2031 H   0  0  0  0  0  0  0  0  0  0  0  0
    4.4048   -1.7578    6.9956 H   0  0  0  0  0  0  0  0  0  0  0  0
    3.9351   -5.1369    8.4892 H   0  0  0  0  0  0  0  0  0  0  0  0
    2.3005   -4.7913    8.0556 H   0  0  0  0  0  0  0  0  0  0  0  0
    3.5445   -7.1404    7.5162 H   0  0  0  0  0  0  0  0  0  0  0  0
    2.1956   -6.6707    6.7116 H   0  0  0  0  0  0  0  0  0  0  0  0
    3.5802   -7.2024    4.9175 H   0  0  0  0  0  0  0  0  0  0  0  0
    6.0813   -5.1042    7.1206 H   0  0  0  0  0  0  0  0  0  0  0  0
    7.1259   -6.4947    7.2763 H   0  0  0  0  0  0  0  0  0  0  0  0
    5.5724   -6.5538    8.0049 H   0  0  0  0  0  0  0  0  0  0  0  0
    7.3356   -9.7903    5.9041 H   0  0  0  0  0  0  0  0  0  0  0  0
    8.5179   -7.9478    4.5143 H   0  0  0  0  0  0  0  0  0  0  0  0
    8.1202   -5.4511    4.2700 H   0  0  0  0  0  0  0  0  0  0  0  0
    5.0662   -7.6855    2.0214 H   0  0  0  0  0  0  0  0  0  0  0  0
    8.3785   -6.5439    2.7217 H   0  0  0  0  0  0  0  0  0  0  0  0
    6.8676   -8.5258    0.9470 H   0  0  0  0  0  0  0  0  0  0  0  0
    7.8154   -8.9738    2.3831 H   0  0  0  0  0  0  0  0  0  0  0  0
    8.5943   -8.1990    0.9880 H   0  0  0  0  0  0  0  0  0  0  0  0
    7.8785   -4.9481    1.3072 H   0  0  0  0  0  0  0  0  0  0  0  0
    7.5599   -6.1590    0.0967 H   0  0  0  0  0  0  0  0  0  0  0  0
    5.7429   -4.3835    0.7199 H   0  0  0  0  0  0  0  0  0  0  0  0
    5.1554   -6.0425   -0.4983 H   0  0  0  0  0  0  0  0  0  0  0  0
    6.1663   -4.6055    3.1080 H   0  0  0  0  0  0  0  0  0  0  0  0
  1  2  1  0
  1 41  1  0
  1 42  1  0
  1 43  1  0
  2  3  1  0
  2  4  2  3
  3 44  1  0
  3 45  1  0
  3 46  1  0
  4  5  1  0
  4 47  1  0
  6  5  1  6
  5 48  1  0
  5 49  1  0
  6 18  1  0
  6 40  1  0
  6  7  1  0
  7  8  1  0
  8  9  1  0
  8 16  1  0
  8 50  1  6
  9 15  1  0
  9 10  2  0
 10 11  1  0
 10 51  1  0
 11 12  2  0
 11 52  1  0
 12 13  1  0
 12 53  1  0
 13 14  1  0
 13 15  2  0
 14 54  1  0
 14 55  1  0
 14 56  1  0
 15 57  1  0
 16 17  1  0
 16 18  1  0
 16 58  1  6
 17 59  1  0
 17 60  1  0
 17 61  1  0
 18 24  1  0
 18 19  1  1
 19 20  2  0
 19 62  1  0
 20 21  1  0
 20 22  1  0
 21 63  1  0
 21 64  1  0
 21 65  1  0
 22 23  1  0
 22 66  1  0
 22 67  1  0
 23 24  1  0
 23 68  1  0
 23 69  1  0
 24 25  1  0
 24 70  1  6
 25 31  1  0
 25 26  1  1
 25 27  1  0
 26 71  1  0
 26 72  1  0
 26 73  1  0
 27 28  2  0
 27 29  1  0
 29 30  2  0
 29 74  1  0
 30 31  1  0
 30 75  1  0
 31 32  1  1
 31 33  1  0
 32 76  1  0
 33 40  1  0
 33 34  1  1
 33 35  1  0
 34 77  1  0
 35 36  1  0
 35 37  1  0
 35 78  1  1
 36 79  1  0
 36 80  1  0
 36 81  1  0
 37 38  1  0
 37 82  1  0
 37 83  1  0
 38 39  1  0
 38 40  1  0
 38 84  1  6
 39 85  1  0
 40 86  1  1
M  END
>  <i_m_ct_stereo_status>  (76) 
1

>  <s_m_source_file>  (76) 
/var/tmp/pbs.5076255.sched01/tmpokz5906q/0mijyat0o.sdf

>  <i_m_source_file_index>  (76) 
32

>  <i_lp_mmshare_version>  (76) 
48012

>  <i_f3d_flags>  (76) 
0

>  <s_epik_input>  (76) 
W0NIM11jKFtjSF0xKVtjSF1bY0hdW2NIXWMxW0NAQEhdKFtDQEhdMltDSDNdKU9bQ0BdKFtDQF0yMzQpKFtDSDJdW0NIXT1DKFtDSDNdKVtDSDNdKVtDQEhdNVtDQEBdKFtPSF0pKFtDQEBIXShbQ0gzXSlbQ0gyXVtDQEhdNVtPSF0pW0NAQF02KFtPSF0pW0NAXShbQ0gzXSkoQyg9TylbQ0hdPVtDSF02KVtDQEhdNFtDSDJdW0NIMl1DKD1bQ0hdMylbQ0gzXQ==

>  <s_epik_cmdline>  (76) 
J2VwaWtfcHl0aG9uJywgJy1waHQnLCAnMi4wJywgJy1waCcsICc3LjAnLCAnLXRuJywgJzgnLCAnLW1hJywgJzIwMCcsICctaW1hZScsICc8aW5maWxlLm1hZT4nLCAnLW9tYWUnLCAnPG91dGZpbGUubWFlPic=

>  <r_lp_tautomer_probability>  (76) 
1

>  <r_epik_Ionization_Penalty>  (76) 
5.54659e-07

>  <r_epik_Ionization_Penalty_Charging>  (76) 
0

>  <r_epik_Ionization_Penalty_Neutral>  (76) 
5.54659e-07

>  <r_epik_State_Penalty>  (76) 
-0

>  <r_epik_Charging_Adjusted_Penalty>  (76) 
0

>  <i_epik_Tot_Q>  (76) 
0

>  <i_epik_Tot_abs_Q>  (76) 
0

>  <s_lp_Force_Field>  (76) 
OPLS3e

>  <r_lp_Energy>  (76) 
80.3473

>  <b_lp_Chiralities_Consistent>  (76) 
1

>  <s_lp_Variant>  (76) 
22:0-1

>  <s_i_glide_gridfile>  (76) 
pfpi4k_grid

>  <i_i_glide_lignum>  (76) 
32

>  <i_i_glide_rotatable_bonds>  (76) 
6

>  <r_i_docking_score>  (76) 
-1.67066

>  <r_i_glide_ligand_efficiency>  (76) 
-0.0417665

>  <r_i_glide_ligand_efficiency_sa>  (76) 
-0.142839

>  <r_i_glide_ligand_efficiency_ln>  (76) 
-0.356302

>  <r_i_glide_gscore>  (76) 
-1.67066

>  <r_i_glide_lipo>  (76) 
-0.365077

>  <r_i_glide_hbond>  (76) 
0

>  <r_i_glide_metal>  (76) 
-0

>  <r_i_glide_rewards>  (76) 
-0.5

>  <r_i_glide_evdw>  (76) 
-21.5021

>  <r_i_glide_ecoul>  (76) 
0.411061

>  <r_i_glide_erotb>  (76) 
0.207865

>  <r_i_glide_esite>  (76) 
0

>  <r_i_glide_emodel>  (76) 
-25.1312

>  <r_i_glide_energy>  (76) 
-21.0911

>  <r_i_glide_einternal>  (76) 
2.77117

>  <r_i_glide_intrahb_reward>  (76) 
-0.5

>  <i_i_glide_confnum>  (76) 
2

>  <i_i_glide_posenum>  (76) 
20

>  <r_i_glide_eff_state_penalty>  (76) 
0

>  <ligand_id>  (76) 
22

>  <original_smiles>  (76) 
CC(C)=CCC12OC(c3cccc(C)c3)C(C)C13C=C(C)CCC3C1(C)C(=O)C=CC1(O)C1(O)C(C)CC(O)C21

>  <smiles>  (76) 
[H]OC1([H])C([H])([H])C([H])(C([H])([H])[H])C2(O[H])C3(O[H])C([H])=C([H])C(=O)C3(C([H])([H])[H])C3([H])C([H])([H])C([H])([H])C(C([H])([H])[H])=C([H])C34C([H])(C([H])([H])[H])C([H])(c3c([H])c([H])c([H])c(C([H])([H])[H])c3[H])OC4(C([H])([H])C([H])=C(C([H])([H])[H])C([H])([H])[H])C12[H]

$$$$
22:0:2
     RDKit          3D

 86 91  0  0  1  0  0  0  0  0999 V2000
    4.6560   -0.5844    1.8222 C   0  0  0  0  0  0  0  0  0  0  0  0
    5.0369   -1.0764    3.2024 C   0  0  0  0  0  0  0  0  0  0  0  0
    5.8904   -0.0904    4.0008 C   0  0  0  0  0  0  0  0  0  0  0  0
    4.7082   -2.2562    3.7363 C   0  0  0  0  0  0  0  0  0  0  0  0
    3.7922   -3.3789    3.2000 C   0  0  0  0  0  0  0  0  0  0  0  0
    4.2102   -4.8811    3.5188 C   0  0  2  0  0  0  0  0  0  0  0  0
    3.4134   -5.7270    2.6761 O   0  0  0  0  0  0  0  0  0  0  0  0
    2.1091   -5.9308    3.1923 C   0  0  1  0  0  0  0  0  0  0  0  0
    1.5467   -7.3405    2.9364 C   0  0  0  0  0  0  0  0  0  0  0  0
    2.3804   -8.4705    2.8059 C   0  0  0  0  0  0  0  0  0  0  0  0
    1.8396   -9.7581    2.6291 C   0  0  0  0  0  0  0  0  0  0  0  0
    0.4428   -9.9227    2.5593 C   0  0  0  0  0  0  0  0  0  0  0  0
   -0.4013   -8.8064    2.6652 C   0  0  0  0  0  0  0  0  0  0  0  0
   -1.8991   -8.9935    2.5544 C   0  0  0  0  0  0  0  0  0  0  0  0
    0.1457   -7.5266    2.8558 C   0  0  0  0  0  0  0  0  0  0  0  0
    2.2318   -5.4894    4.6524 C   0  0  1  0  0  0  0  0  0  0  0  0
    1.1170   -5.9742    5.6003 C   0  0  0  0  0  0  0  0  0  0  0  0
    3.7789   -5.4420    4.9666 C   0  0  2  0  0  0  0  0  0  0  0  0
    3.9691   -4.4575    6.1158 C   0  0  0  0  0  0  0  0  0  0  0  0
    3.9154   -4.7705    7.4284 C   0  0  0  0  0  0  0  0  0  0  0  0
    4.1532   -3.7126    8.4884 C   0  0  0  0  0  0  0  0  0  0  0  0
    3.6086   -6.1683    7.9167 C   0  0  0  0  0  0  0  0  0  0  0  0
    3.6526   -7.2629    6.8128 C   0  0  0  0  0  0  0  0  0  0  0  0
    4.3704   -6.8453    5.4681 C   0  0  2  0  0  0  0  0  0  0  0  0
    5.9436   -7.1659    5.6176 C   0  0  1  0  0  0  0  0  0  0  0  0
    6.5012   -6.8416    7.0478 C   0  0  0  0  0  0  0  0  0  0  0  0
    6.2030   -8.6875    5.4806 C   0  0  0  0  0  0  0  0  0  0  0  0
    5.3936   -9.5629    5.7856 O   0  0  0  0  0  0  0  0  0  0  0  0
    7.5314   -8.9351    4.9549 C   0  0  0  0  0  0  0  0  0  0  0  0
    7.9896   -7.7974    4.4766 C   0  0  0  0  0  0  0  0  0  0  0  0
    6.9965   -6.6405    4.5551 C   0  0  2  0  0  0  0  0  0  0  0  0
    7.6944   -5.5233    5.0786 O   0  0  0  0  0  0  0  0  0  0  0  0
    6.5050   -6.3262    3.1045 C   0  0  2  0  0  0  0  0  0  0  0  0
    5.7542   -7.4099    2.5811 O   0  0  0  0  0  0  0  0  0  0  0  0
    7.7180   -6.1029    2.1156 C   0  0  1  0  0  0  0  0  0  0  0  0
    8.0969   -7.2892    1.2022 C   0  0  0  0  0  0  0  0  0  0  0  0
    7.4059   -4.8509    1.2890 C   0  0  0  0  0  0  0  0  0  0  0  0
    5.9305   -4.5669    1.5180 C   0  0  1  0  0  0  0  0  0  0  0  0
    5.2247   -5.3054    0.5361 O   0  0  0  0  0  0  0  0  0  0  0  0
    5.6802   -5.0177    2.9887 C   0  0  1  0  0  0  0  0  0  0  0  0
    4.1597    0.3800    1.8837 H   0  0  0  0  0  0  0  0  0  0  0  0
    3.9945   -1.2677    1.3018 H   0  0  0  0  0  0  0  0  0  0  0  0
    5.5573   -0.4632    1.2215 H   0  0  0  0  0  0  0  0  0  0  0  0
    5.3668    0.8596    4.1283 H   0  0  0  0  0  0  0  0  0  0  0  0
    6.8491    0.0886    3.5065 H   0  0  0  0  0  0  0  0  0  0  0  0
    6.0973   -0.4728    5.0007 H   0  0  0  0  0  0  0  0  0  0  0  0
    5.1512   -2.4169    4.6956 H   0  0  0  0  0  0  0  0  0  0  0  0
    2.7995   -3.0825    3.5181 H   0  0  0  0  0  0  0  0  0  0  0  0
    3.7107   -3.3043    2.1157 H   0  0  0  0  0  0  0  0  0  0  0  0
    1.4564   -5.2252    2.6702 H   0  0  0  0  0  0  0  0  0  0  0  0
    3.4550   -8.3733    2.8417 H   0  0  0  0  0  0  0  0  0  0  0  0
    2.4887  -10.6205    2.5331 H   0  0  0  0  0  0  0  0  0  0  0  0
    0.0333  -10.9092    2.3907 H   0  0  0  0  0  0  0  0  0  0  0  0
   -2.4440   -8.0665    2.7314 H   0  0  0  0  0  0  0  0  0  0  0  0
   -2.2406   -9.7367    3.2758 H   0  0  0  0  0  0  0  0  0  0  0  0
   -2.1615   -9.3583    1.5665 H   0  0  0  0  0  0  0  0  0  0  0  0
   -0.5054   -6.6772    2.9521 H   0  0  0  0  0  0  0  0  0  0  0  0
    1.9507   -4.4456    4.6640 H   0  0  0  0  0  0  0  0  0  0  0  0
    0.9488   -7.0527    5.6177 H   0  0  0  0  0  0  0  0  0  0  0  0
    0.1645   -5.5444    5.2742 H   0  0  0  0  0  0  0  0  0  0  0  0
    1.2663   -5.6028    6.6130 H   0  0  0  0  0  0  0  0  0  0  0  0
    4.1329   -3.4266    5.9047 H   0  0  0  0  0  0  0  0  0  0  0  0
    5.0156   -3.9759    9.1021 H   0  0  0  0  0  0  0  0  0  0  0  0
    3.2711   -3.5969    9.1180 H   0  0  0  0  0  0  0  0  0  0  0  0
    4.3648   -2.7573    8.0184 H   0  0  0  0  0  0  0  0  0  0  0  0
    4.3014   -6.4277    8.7090 H   0  0  0  0  0  0  0  0  0  0  0  0
    2.6263   -6.1618    8.3792 H   0  0  0  0  0  0  0  0  0  0  0  0
    4.0787   -8.1647    7.2557 H   0  0  0  0  0  0  0  0  0  0  0  0
    2.6558   -7.6390    6.6021 H   0  0  0  0  0  0  0  0  0  0  0  0
    4.0373   -7.5754    4.7349 H   0  0  0  0  0  0  0  0  0  0  0  0
    6.3851   -5.7906    7.3193 H   0  0  0  0  0  0  0  0  0  0  0  0
    7.5717   -7.0601    7.1247 H   0  0  0  0  0  0  0  0  0  0  0  0
    6.0592   -7.4533    7.8348 H   0  0  0  0  0  0  0  0  0  0  0  0
    8.0610   -9.8889    5.0106 H   0  0  0  0  0  0  0  0  0  0  0  0
    8.9881   -7.6628    4.0705 H   0  0  0  0  0  0  0  0  0  0  0  0
    8.3789   -5.2597    4.4745 H   0  0  0  0  0  0  0  0  0  0  0  0
    6.2742   -8.1998    2.6758 H   0  0  0  0  0  0  0  0  0  0  0  0
    8.6227   -5.8619    2.6764 H   0  0  0  0  0  0  0  0  0  0  0  0
    7.2996   -7.5314    0.5099 H   0  0  0  0  0  0  0  0  0  0  0  0
    8.3327   -8.1907    1.7673 H   0  0  0  0  0  0  0  0  0  0  0  0
    8.9629   -7.0354    0.5910 H   0  0  0  0  0  0  0  0  0  0  0  0
    7.9865   -4.0165    1.6828 H   0  0  0  0  0  0  0  0  0  0  0  0
    7.6637   -4.9512    0.2333 H   0  0  0  0  0  0  0  0  0  0  0  0
    5.7330   -3.5091    1.3488 H   0  0  0  0  0  0  0  0  0  0  0  0
    5.3225   -6.2271    0.7565 H   0  0  0  0  0  0  0  0  0  0  0  0
    6.2066   -4.3017    3.5803 H   0  0  0  0  0  0  0  0  0  0  0  0
  1  2  1  0
  1 41  1  0
  1 42  1  0
  1 43  1  0
  2  3  1  0
  2  4  2  3
  3 44  1  0
  3 45  1  0
  3 46  1  0
  4  5  1  0
  4 47  1  0
  6  5  1  1
  5 48  1  0
  5 49  1  0
  6 18  1  0
  6 40  1  0
  6  7  1  0
  7  8  1  0
  8  9  1  0
  8 16  1  0
  8 50  1  6
  9 15  1  0
  9 10  2  0
 10 11  1  0
 10 51  1  0
 11 12  2  0
 11 52  1  0
 12 13  1  0
 12 53  1  0
 13 14  1  0
 13 15  2  0
 14 54  1  0
 14 55  1  0
 14 56  1  0
 15 57  1  0
 16 17  1  0
 16 18  1  0
 16 58  1  6
 17 59  1  0
 17 60  1  0
 17 61  1  0
 18 24  1  0
 18 19  1  1
 19 20  2  0
 19 62  1  0
 20 21  1  0
 20 22  1  0
 21 63  1  0
 21 64  1  0
 21 65  1  0
 22 23  1  0
 22 66  1  0
 22 67  1  0
 23 24  1  0
 23 68  1  0
 23 69  1  0
 24 25  1  0
 24 70  1  6
 25 31  1  0
 25 26  1  1
 25 27  1  0
 26 71  1  0
 26 72  1  0
 26 73  1  0
 27 28  2  0
 27 29  1  0
 29 30  2  0
 29 74  1  0
 30 31  1  0
 30 75  1  0
 31 32  1  1
 31 33  1  0
 32 76  1  0
 33 40  1  0
 33 34  1  6
 33 35  1  0
 34 77  1  0
 35 36  1  0
 35 37  1  0
 35 78  1  1
 36 79  1  0
 36 80  1  0
 36 81  1  0
 37 38  1  0
 37 82  1  0
 37 83  1  0
 38 39  1  0
 38 40  1  0
 38 84  1  1
 39 85  1  0
 40 86  1  1
M  END
>  <i_m_ct_stereo_status>  (77) 
1

>  <s_m_source_file>  (77) 
/var/tmp/pbs.5076255.sched01/tmpokz5906q/0mijyat0o.sdf

>  <i_m_source_file_index>  (77) 
32

>  <i_lp_mmshare_version>  (77) 
48012

>  <i_f3d_flags>  (77) 
0

>  <s_epik_input>  (77) 
W0NIM11jKFtjSF0xKVtjSF1bY0hdW2NIXWMxW0NAQEhdKFtDQEhdMltDSDNdKU9bQ0BdKFtDQF0yMzQpKFtDSDJdW0NIXT1DKFtDSDNdKVtDSDNdKVtDQEhdNVtDQEBdKFtPSF0pKFtDQEBIXShbQ0gzXSlbQ0gyXVtDQEhdNVtPSF0pW0NAQF02KFtPSF0pW0NAXShbQ0gzXSkoQyg9TylbQ0hdPVtDSF02KVtDQEhdNFtDSDJdW0NIMl1DKD1bQ0hdMylbQ0gzXQ==

>  <s_epik_cmdline>  (77) 
J2VwaWtfcHl0aG9uJywgJy1waHQnLCAnMi4wJywgJy1waCcsICc3LjAnLCAnLXRuJywgJzgnLCAnLW1hJywgJzIwMCcsICctaW1hZScsICc8aW5maWxlLm1hZT4nLCAnLW9tYWUnLCAnPG91dGZpbGUubWFlPic=

>  <r_lp_tautomer_probability>  (77) 
1

>  <r_epik_Ionization_Penalty>  (77) 
5.54659e-07

>  <r_epik_Ionization_Penalty_Charging>  (77) 
0

>  <r_epik_Ionization_Penalty_Neutral>  (77) 
5.54659e-07

>  <r_epik_State_Penalty>  (77) 
-0

>  <r_epik_Charging_Adjusted_Penalty>  (77) 
0

>  <i_epik_Tot_Q>  (77) 
0

>  <i_epik_Tot_abs_Q>  (77) 
0

>  <s_lp_Force_Field>  (77) 
OPLS3e

>  <r_lp_Energy>  (77) 
80.3473

>  <b_lp_Chiralities_Consistent>  (77) 
1

>  <s_lp_Variant>  (77) 
22:0-1

>  <s_i_glide_gridfile>  (77) 
pfpi4k_grid

>  <i_i_glide_lignum>  (77) 
32

>  <i_i_glide_rotatable_bonds>  (77) 
6

>  <r_i_docking_score>  (77) 
-1.64995

>  <r_i_glide_ligand_efficiency>  (77) 
-0.0412488

>  <r_i_glide_ligand_efficiency_sa>  (77) 
-0.141069

>  <r_i_glide_ligand_efficiency_ln>  (77) 
-0.351886

>  <r_i_glide_gscore>  (77) 
-1.64995

>  <r_i_glide_lipo>  (77) 
-0.883749

>  <r_i_glide_hbond>  (77) 
0

>  <r_i_glide_metal>  (77) 
-0

>  <r_i_glide_rewards>  (77) 
0

>  <r_i_glide_evdw>  (77) 
-22.7394

>  <r_i_glide_ecoul>  (77) 
1.08602

>  <r_i_glide_erotb>  (77) 
0.207865

>  <r_i_glide_esite>  (77) 
0

>  <r_i_glide_emodel>  (77) 
-22.609

>  <r_i_glide_energy>  (77) 
-21.6534

>  <r_i_glide_einternal>  (77) 
1.22804

>  <r_i_glide_intrahb_reward>  (77) 
-0

>  <i_i_glide_confnum>  (77) 
2

>  <i_i_glide_posenum>  (77) 
16

>  <r_i_glide_eff_state_penalty>  (77) 
0

>  <ligand_id>  (77) 
22

>  <original_smiles>  (77) 
CC(C)=CCC12OC(c3cccc(C)c3)C(C)C13C=C(C)CCC3C1(C)C(=O)C=CC1(O)C1(O)C(C)CC(O)C21

>  <smiles>  (77) 
[H]OC1([H])C([H])([H])C([H])(C([H])([H])[H])C2(O[H])C3(O[H])C([H])=C([H])C(=O)C3(C([H])([H])[H])C3([H])C([H])([H])C([H])([H])C(C([H])([H])[H])=C([H])C34C([H])(C([H])([H])[H])C([H])(c3c([H])c([H])c([H])c(C([H])([H])[H])c3[H])OC4(C([H])([H])C([H])=C(C([H])([H])[H])C([H])([H])[H])C12[H]

$$$$
23:0:0
     RDKit          3D

 27 29  0  0  1  0  0  0  0  0999 V2000
    3.8168   -2.1686   -4.1754 O   0  0  0  0  0  0  0  0  0  0  0  0
    4.1409   -2.3659   -2.8126 C   0  0  1  0  0  0  0  0  0  0  0  0
    4.5426   -1.0171   -2.1835 C   0  0  0  0  0  0  0  0  0  0  0  0
    4.9002   -1.2156   -0.6948 C   0  0  2  0  0  0  0  0  0  0  0  0
    6.0757   -2.2075   -0.5738 C   0  0  0  0  0  0  0  0  0  0  0  0
    5.6682   -3.5539   -1.1960 C   0  0  1  0  0  0  0  0  0  0  0  0
    4.4483   -4.1241   -0.4467 C   0  0  0  0  0  0  0  0  0  0  0  0
    3.2707   -3.1347   -0.5719 C   0  0  1  0  0  0  0  0  0  0  0  0
    3.6865   -1.7877    0.0643 C   0  0  0  0  0  0  0  0  0  0  0  0
    2.9157   -2.9292   -2.0644 C   0  0  0  0  0  0  0  0  0  0  0  0
    5.3164   -3.3619   -2.6897 C   0  0  0  0  0  0  0  0  0  0  0  0
    2.9872   -1.7111   -4.2178 H   0  0  0  0  0  0  0  0  0  0  0  0
    5.4014   -0.6021   -2.7125 H   0  0  0  0  0  0  0  0  0  0  0  0
    3.7311   -0.2955   -2.2928 H   0  0  0  0  0  0  0  0  0  0  0  0
    5.1755   -0.2577   -0.2521 H   0  0  0  0  0  0  0  0  0  0  0  0
    6.9627   -1.8359   -1.0813 H   0  0  0  0  0  0  0  0  0  0  0  0
    6.3503   -2.3410    0.4738 H   0  0  0  0  0  0  0  0  0  0  0  0
    6.4977   -4.2515   -1.0969 H   0  0  0  0  0  0  0  0  0  0  0  0
    4.1839   -5.0948   -0.8632 H   0  0  0  0  0  0  0  0  0  0  0  0
    4.6946   -4.2962    0.6012 H   0  0  0  0  0  0  0  0  0  0  0  0
    2.4033   -3.5335   -0.0445 H   0  0  0  0  0  0  0  0  0  0  0  0
    3.9313   -1.9324    1.1182 H   0  0  0  0  0  0  0  0  0  0  0  0
    2.8626   -1.0752    0.0423 H   0  0  0  0  0  0  0  0  0  0  0  0
    2.0711   -2.2522   -2.1601 H   0  0  0  0  0  0  0  0  0  0  0  0
    2.5845   -3.8556   -2.5182 H   0  0  0  0  0  0  0  0  0  0  0  0
    5.0428   -4.3187   -3.1376 H   0  0  0  0  0  0  0  0  0  0  0  0
    6.1882   -3.0055   -3.2376 H   0  0  0  0  0  0  0  0  0  0  0  0
  2  1  1  6
  1 12  1  0
  2 10  1  0
  2 11  1  0
  2  3  1  0
  3  4  1  0
  3 13  1  0
  3 14  1  0
  4  9  1  0
  4  5  1  0
  4 15  1  1
  5  6  1  0
  5 16  1  0
  5 17  1  0
  6  7  1  0
  6 11  1  0
  6 18  1  6
  7  8  1  0
  7 19  1  0
  7 20  1  0
  8  9  1  0
  8 10  1  0
  8 21  1  1
  9 22  1  0
  9 23  1  0
 10 24  1  0
 10 25  1  0
 11 26  1  0
 11 27  1  0
M  END
>  <i_m_ct_stereo_status>  (78) 
1

>  <s_m_source_file>  (78) 
/var/tmp/pbs.5076255.sched01/tmpokz5906q/0mijyat0o.sdf

>  <i_m_source_file_index>  (78) 
33

>  <i_lp_mmshare_version>  (78) 
48012

>  <i_f3d_flags>  (78) 
0

>  <s_epik_input>  (78) 
W09IXUMxMltDSDJdW0NAQEhdM1tDSDJdW0NASF0oW0NIMl0yKVtDSDJdW0NAQEhdKFtDSDJdMylbQ0gyXTE=

>  <s_epik_cmdline>  (78) 
J2VwaWtfcHl0aG9uJywgJy1waHQnLCAnMi4wJywgJy1waCcsICc3LjAnLCAnLXRuJywgJzgnLCAnLW1hJywgJzIwMCcsICctaW1hZScsICc8aW5maWxlLm1hZT4nLCAnLW9tYWUnLCAnPG91dGZpbGUubWFlPic=

>  <r_lp_tautomer_probability>  (78) 
1

>  <r_epik_Ionization_Penalty>  (78) 
5.13329e-06

>  <r_epik_Ionization_Penalty_Charging>  (78) 
0

>  <r_epik_Ionization_Penalty_Neutral>  (78) 
5.13329e-06

>  <r_epik_State_Penalty>  (78) 
-0

>  <r_epik_Charging_Adjusted_Penalty>  (78) 
0

>  <i_epik_Tot_Q>  (78) 
0

>  <i_epik_Tot_abs_Q>  (78) 
0

>  <s_lp_Force_Field>  (78) 
OPLS3e

>  <r_lp_Energy>  (78) 
-15.8074

>  <b_lp_Chiralities_Consistent>  (78) 
1

>  <s_lp_Variant>  (78) 
23:0-1

>  <s_i_glide_gridfile>  (78) 
pfpi4k_grid

>  <i_i_glide_lignum>  (78) 
33

>  <i_i_glide_rotatable_bonds>  (78) 
1

>  <r_i_docking_score>  (78) 
-4.49555

>  <r_i_glide_ligand_efficiency>  (78) 
-0.408687

>  <r_i_glide_ligand_efficiency_sa>  (78) 
-0.908911

>  <r_i_glide_ligand_efficiency_ln>  (78) 
-1.32304

>  <r_i_glide_gscore>  (78) 
-4.49555

>  <r_i_glide_lipo>  (78) 
-0.457717

>  <r_i_glide_hbond>  (78) 
-0.32

>  <r_i_glide_metal>  (78) 
-0

>  <r_i_glide_rewards>  (78) 
-2.25

>  <r_i_glide_evdw>  (78) 
-17.8748

>  <r_i_glide_ecoul>  (78) 
-3.82731

>  <r_i_glide_erotb>  (78) 
0

>  <r_i_glide_esite>  (78) 
0

>  <r_i_glide_emodel>  (78) 
-27.5331

>  <r_i_glide_energy>  (78) 
-21.7021

>  <r_i_glide_einternal>  (78) 
0.103842

>  <r_i_glide_intrahb_reward>  (78) 
-0

>  <i_i_glide_confnum>  (78) 
1

>  <i_i_glide_posenum>  (78) 
33

>  <r_i_glide_eff_state_penalty>  (78) 
0

>  <ligand_id>  (78) 
23

>  <original_smiles>  (78) 
OC12CC3CC(CC(C3)C1)C2

>  <smiles>  (78) 
[H]OC12C([H])([H])C3([H])C([H])([H])C([H])(C([H])([H])C([H])(C3([H])[H])C1([H])[H])C2([H])[H]

$$$$
23:0:1
     RDKit          3D

 27 29  0  0  1  0  0  0  0  0999 V2000
    2.5675   -4.4244   -0.3199 O   0  0  0  0  0  0  0  0  0  0  0  0
    3.6816   -3.5898   -0.5591 C   0  0  1  0  0  0  0  0  0  0  0  0
    3.6146   -3.0238   -1.9970 C   0  0  0  0  0  0  0  0  0  0  0  0
    4.8484   -2.1332   -2.2477 C   0  0  2  0  0  0  0  0  0  0  0  0
    6.1366   -2.9645   -2.0814 C   0  0  0  0  0  0  0  0  0  0  0  0
    6.2030   -3.5235   -0.6448 C   0  0  1  0  0  0  0  0  0  0  0  0
    6.1971   -2.3681    0.3789 C   0  0  0  0  0  0  0  0  0  0  0  0
    4.9062   -1.5380    0.2077 C   0  0  1  0  0  0  0  0  0  0  0  0
    4.8551   -0.9819   -1.2286 C   0  0  0  0  0  0  0  0  0  0  0  0
    3.6741   -2.4303    0.4565 C   0  0  0  0  0  0  0  0  0  0  0  0
    4.9744   -4.4239   -0.3956 C   0  0  0  0  0  0  0  0  0  0  0  0
    2.5811   -5.0950   -0.9924 H   0  0  0  0  0  0  0  0  0  0  0  0
    3.5879   -3.8309   -2.7304 H   0  0  0  0  0  0  0  0  0  0  0  0
    2.6960   -2.4470   -2.1323 H   0  0  0  0  0  0  0  0  0  0  0  0
    4.7973   -1.7210   -3.2563 H   0  0  0  0  0  0  0  0  0  0  0  0
    6.1559   -3.7737   -2.8147 H   0  0  0  0  0  0  0  0  0  0  0  0
    7.0113   -2.3490   -2.2880 H   0  0  0  0  0  0  0  0  0  0  0  0
    7.1124   -4.1091   -0.5221 H   0  0  0  0  0  0  0  0  0  0  0  0
    6.2608   -2.7640    1.3941 H   0  0  0  0  0  0  0  0  0  0  0  0
    7.0765   -1.7381    0.2413 H   0  0  0  0  0  0  0  0  0  0  0  0
    4.9064   -0.7101    0.9189 H   0  0  0  0  0  0  0  0  0  0  0  0
    5.7150   -0.3351   -1.4017 H   0  0  0  0  0  0  0  0  0  0  0  0
    3.9648   -0.3707   -1.3670 H   0  0  0  0  0  0  0  0  0  0  0  0
    2.7605   -1.8413    0.3521 H   0  0  0  0  0  0  0  0  0  0  0  0
    3.6817   -2.8121    1.4794 H   0  0  0  0  0  0  0  0  0  0  0  0
    5.0212   -4.8612    0.6049 H   0  0  0  0  0  0  0  0  0  0  0  0
    4.9772   -5.2606   -1.0974 H   0  0  0  0  0  0  0  0  0  0  0  0
  2  1  1  1
  1 12  1  0
  2 10  1  0
  2 11  1  0
  2  3  1  0
  3  4  1  0
  3 13  1  0
  3 14  1  0
  4  9  1  0
  4  5  1  0
  4 15  1  6
  5  6  1  0
  5 16  1  0
  5 17  1  0
  6  7  1  0
  6 11  1  0
  6 18  1  6
  7  8  1  0
  7 19  1  0
  7 20  1  0
  8  9  1  0
  8 10  1  0
  8 21  1  1
  9 22  1  0
  9 23  1  0
 10 24  1  0
 10 25  1  0
 11 26  1  0
 11 27  1  0
M  END
>  <i_m_ct_stereo_status>  (79) 
1

>  <s_m_source_file>  (79) 
/var/tmp/pbs.5076255.sched01/tmpokz5906q/0mijyat0o.sdf

>  <i_m_source_file_index>  (79) 
33

>  <i_lp_mmshare_version>  (79) 
48012

>  <i_f3d_flags>  (79) 
0

>  <s_epik_input>  (79) 
W09IXUMxMltDSDJdW0NAQEhdM1tDSDJdW0NASF0oW0NIMl0yKVtDSDJdW0NAQEhdKFtDSDJdMylbQ0gyXTE=

>  <s_epik_cmdline>  (79) 
J2VwaWtfcHl0aG9uJywgJy1waHQnLCAnMi4wJywgJy1waCcsICc3LjAnLCAnLXRuJywgJzgnLCAnLW1hJywgJzIwMCcsICctaW1hZScsICc8aW5maWxlLm1hZT4nLCAnLW9tYWUnLCAnPG91dGZpbGUubWFlPic=

>  <r_lp_tautomer_probability>  (79) 
1

>  <r_epik_Ionization_Penalty>  (79) 
5.13329e-06

>  <r_epik_Ionization_Penalty_Charging>  (79) 
0

>  <r_epik_Ionization_Penalty_Neutral>  (79) 
5.13329e-06

>  <r_epik_State_Penalty>  (79) 
-0

>  <r_epik_Charging_Adjusted_Penalty>  (79) 
0

>  <i_epik_Tot_Q>  (79) 
0

>  <i_epik_Tot_abs_Q>  (79) 
0

>  <s_lp_Force_Field>  (79) 
OPLS3e

>  <r_lp_Energy>  (79) 
-15.8074

>  <b_lp_Chiralities_Consistent>  (79) 
1

>  <s_lp_Variant>  (79) 
23:0-1

>  <s_i_glide_gridfile>  (79) 
pfpi4k_grid

>  <i_i_glide_lignum>  (79) 
33

>  <i_i_glide_rotatable_bonds>  (79) 
1

>  <r_i_docking_score>  (79) 
-4.16658

>  <r_i_glide_ligand_efficiency>  (79) 
-0.37878

>  <r_i_glide_ligand_efficiency_sa>  (79) 
-0.842399

>  <r_i_glide_ligand_efficiency_ln>  (79) 
-1.22622

>  <r_i_glide_gscore>  (79) 
-4.16658

>  <r_i_glide_lipo>  (79) 
-0.346602

>  <r_i_glide_hbond>  (79) 
-0.32

>  <r_i_glide_metal>  (79) 
-0

>  <r_i_glide_rewards>  (79) 
-2.25

>  <r_i_glide_evdw>  (79) 
-16.0491

>  <r_i_glide_ecoul>  (79) 
-2.98349

>  <r_i_glide_erotb>  (79) 
0

>  <r_i_glide_esite>  (79) 
0

>  <r_i_glide_emodel>  (79) 
-24.5113

>  <r_i_glide_energy>  (79) 
-19.0326

>  <r_i_glide_einternal>  (79) 
0.0213181

>  <r_i_glide_intrahb_reward>  (79) 
-0

>  <i_i_glide_confnum>  (79) 
1

>  <i_i_glide_posenum>  (79) 
12

>  <r_i_glide_eff_state_penalty>  (79) 
0

>  <ligand_id>  (79) 
23

>  <original_smiles>  (79) 
OC12CC3CC(CC(C3)C1)C2

>  <smiles>  (79) 
[H]OC12C([H])([H])C3([H])C([H])([H])C([H])(C([H])([H])C([H])(C3([H])[H])C1([H])[H])C2([H])[H]

$$$$
23:0:2
     RDKit          3D

 27 29  0  0  1  0  0  0  0  0999 V2000
    3.5725   -3.4557   -3.0246 O   0  0  0  0  0  0  0  0  0  0  0  0
    4.0541   -3.0781   -1.7480 C   0  0  1  0  0  0  0  0  0  0  0  0
    4.2832   -1.5530   -1.6960 C   0  0  0  0  0  0  0  0  0  0  0  0
    4.8198   -1.1703   -0.3002 C   0  0  2  0  0  0  0  0  0  0  0  0
    6.1507   -1.9011   -0.0329 C   0  0  0  0  0  0  0  0  0  0  0  0
    5.9195   -3.4264   -0.0914 C   0  0  1  0  0  0  0  0  0  0  0  0
    4.8871   -3.8312    0.9819 C   0  0  0  0  0  0  0  0  0  0  0  0
    3.5551   -3.0951    0.7189 C   0  0  1  0  0  0  0  0  0  0  0  0
    3.7935   -1.5706    0.7774 C   0  0  0  0  0  0  0  0  0  0  0  0
    3.0172   -3.4789   -0.6755 C   0  0  0  0  0  0  0  0  0  0  0  0
    5.3824   -3.8125   -1.4836 C   0  0  0  0  0  0  0  0  0  0  0  0
    3.3529   -4.3799   -2.9870 H   0  0  0  0  0  0  0  0  0  0  0  0
    4.9921   -1.2445   -2.4677 H   0  0  0  0  0  0  0  0  0  0  0  0
    3.3471   -1.0270   -1.9005 H   0  0  0  0  0  0  0  0  0  0  0  0
    4.9734   -0.0921   -0.2486 H   0  0  0  0  0  0  0  0  0  0  0  0
    6.8967   -1.6168   -0.7717 H   0  0  0  0  0  0  0  0  0  0  0  0
    6.5527   -1.6143    0.9398 H   0  0  0  0  0  0  0  0  0  0  0  0
    6.8606   -3.9449    0.0917 H   0  0  0  0  0  0  0  0  0  0  0  0
    4.7306   -4.9117    0.9654 H   0  0  0  0  0  0  0  0  0  0  0  0
    5.2645   -3.5902    1.9761 H   0  0  0  0  0  0  0  0  0  0  0  0
    2.8253   -3.3761    1.4801 H   0  0  0  0  0  0  0  0  0  0  0  0
    4.1568   -1.2868    1.7665 H   0  0  0  0  0  0  0  0  0  0  0  0
    2.8578   -1.0321    0.6216 H   0  0  0  0  0  0  0  0  0  0  0  0
    2.0633   -2.9852   -0.8661 H   0  0  0  0  0  0  0  0  0  0  0  0
    2.8226   -4.5543   -0.7154 H   0  0  0  0  0  0  0  0  0  0  0  0
    5.2270   -4.8921   -1.5331 H   0  0  0  0  0  0  0  0  0  0  0  0
    6.1157   -3.5697   -2.2558 H   0  0  0  0  0  0  0  0  0  0  0  0
  2  1  1  6
  1 12  1  0
  2 10  1  0
  2 11  1  0
  2  3  1  0
  3  4  1  0
  3 13  1  0
  3 14  1  0
  4  9  1  0
  4  5  1  0
  4 15  1  6
  5  6  1  0
  5 16  1  0
  5 17  1  0
  6  7  1  0
  6 11  1  0
  6 18  1  1
  7  8  1  0
  7 19  1  0
  7 20  1  0
  8  9  1  0
  8 10  1  0
  8 21  1  1
  9 22  1  0
  9 23  1  0
 10 24  1  0
 10 25  1  0
 11 26  1  0
 11 27  1  0
M  END
>  <i_m_ct_stereo_status>  (80) 
1

>  <s_m_source_file>  (80) 
/var/tmp/pbs.5076255.sched01/tmpokz5906q/0mijyat0o.sdf

>  <i_m_source_file_index>  (80) 
33

>  <i_lp_mmshare_version>  (80) 
48012

>  <i_f3d_flags>  (80) 
0

>  <s_epik_input>  (80) 
W09IXUMxMltDSDJdW0NAQEhdM1tDSDJdW0NASF0oW0NIMl0yKVtDSDJdW0NAQEhdKFtDSDJdMylbQ0gyXTE=

>  <s_epik_cmdline>  (80) 
J2VwaWtfcHl0aG9uJywgJy1waHQnLCAnMi4wJywgJy1waCcsICc3LjAnLCAnLXRuJywgJzgnLCAnLW1hJywgJzIwMCcsICctaW1hZScsICc8aW5maWxlLm1hZT4nLCAnLW9tYWUnLCAnPG91dGZpbGUubWFlPic=

>  <r_lp_tautomer_probability>  (80) 
1

>  <r_epik_Ionization_Penalty>  (80) 
5.13329e-06

>  <r_epik_Ionization_Penalty_Charging>  (80) 
0

>  <r_epik_Ionization_Penalty_Neutral>  (80) 
5.13329e-06

>  <r_epik_State_Penalty>  (80) 
-0

>  <r_epik_Charging_Adjusted_Penalty>  (80) 
0

>  <i_epik_Tot_Q>  (80) 
0

>  <i_epik_Tot_abs_Q>  (80) 
0

>  <s_lp_Force_Field>  (80) 
OPLS3e

>  <r_lp_Energy>  (80) 
-15.8074

>  <b_lp_Chiralities_Consistent>  (80) 
1

>  <s_lp_Variant>  (80) 
23:0-1

>  <s_i_glide_gridfile>  (80) 
pfpi4k_grid

>  <i_i_glide_lignum>  (80) 
33

>  <i_i_glide_rotatable_bonds>  (80) 
1

>  <r_i_docking_score>  (80) 
-4.14864

>  <r_i_glide_ligand_efficiency>  (80) 
-0.377149

>  <r_i_glide_ligand_efficiency_sa>  (80) 
-0.838771

>  <r_i_glide_ligand_efficiency_ln>  (80) 
-1.22094

>  <r_i_glide_gscore>  (80) 
-4.14864

>  <r_i_glide_lipo>  (80) 
-0.15782

>  <r_i_glide_hbond>  (80) 
-0.32

>  <r_i_glide_metal>  (80) 
-0

>  <r_i_glide_rewards>  (80) 
-2.25

>  <r_i_glide_evdw>  (80) 
-15.431

>  <r_i_glide_ecoul>  (80) 
-4.32844

>  <r_i_glide_erotb>  (80) 
0

>  <r_i_glide_esite>  (80) 
0

>  <r_i_glide_emodel>  (80) 
-25.203

>  <r_i_glide_energy>  (80) 
-19.7594

>  <r_i_glide_einternal>  (80) 
0.0388503

>  <r_i_glide_intrahb_reward>  (80) 
-0

>  <i_i_glide_confnum>  (80) 
1

>  <i_i_glide_posenum>  (80) 
25

>  <r_i_glide_eff_state_penalty>  (80) 
0

>  <ligand_id>  (80) 
23

>  <original_smiles>  (80) 
OC12CC3CC(CC(C3)C1)C2

>  <smiles>  (80) 
[H]OC12C([H])([H])C3([H])C([H])([H])C([H])(C([H])([H])C([H])(C3([H])[H])C1([H])[H])C2([H])[H]

$$$$
24:0:0
     RDKit          3D

 46 49  0  0  1  0  0  0  0  0999 V2000
    7.5306   -4.2260    0.6812 C   0  0  0  0  0  0  0  0  0  0  0  0
    7.0598   -2.6590   -0.1541 S   0  0  0  0  0  0  0  0  0  0  0  0
    7.3953   -1.5433    0.7391 O   0  0  0  0  0  0  0  0  0  0  0  0
    7.5905   -2.6494   -1.5236 O   0  0  0  0  0  0  0  0  0  0  0  0
    5.3341   -2.7653   -0.2488 N   0  0  0  0  0  0  0  0  0  0  0  0
    4.7066   -3.7587   -1.1499 C   0  0  0  0  0  0  0  0  0  0  0  0
    3.5079   -3.0871   -1.8442 C   0  0  0  0  0  0  0  0  0  0  0  0
    3.8502   -1.3246   -1.8016 S   0  0  0  0  0  0  0  0  0  0  0  0
    4.5298   -1.5360   -0.1431 C   0  0  1  0  0  0  0  0  0  0  0  0
    3.4129   -1.6350    0.9068 C   0  0  0  0  0  0  0  0  0  0  0  0
    3.0297   -2.7383    1.3119 O   0  0  0  0  0  0  0  0  0  0  0  0
    2.8723   -0.4856    1.3290 N   0  0  0  0  0  0  0  0  0  0  0  0
    1.7324   -0.4192    2.2389 C   0  0  2  0  0  0  0  0  0  0  0  0
    1.0122    0.9400    2.1036 C   0  0  1  0  0  0  0  0  0  0  0  0
   -0.2133    0.9643    3.0411 C   0  0  0  0  0  0  0  0  0  0  0  0
    0.2519    0.7840    4.5015 C   0  0  2  0  0  0  0  0  0  0  0  0
    1.2375    1.9125    4.8859 C   0  0  0  0  0  0  0  0  0  0  0  0
    2.4587    1.8820    3.9432 C   0  0  2  0  0  0  0  0  0  0  0  0
    1.9785    2.0824    2.4906 C   0  0  0  0  0  0  0  0  0  0  0  0
    3.1726    0.5150    4.0866 C   0  0  0  0  0  0  0  0  0  0  0  0
    2.1904   -0.6183    3.7006 C   0  0  1  0  0  0  0  0  0  0  0  0
    0.9629   -0.5818    4.6369 C   0  0  0  0  0  0  0  0  0  0  0  0
    8.6086   -4.2347    0.8128 H   0  0  0  0  0  0  0  0  0  0  0  0
    7.2172   -5.0741    0.0814 H   0  0  0  0  0  0  0  0  0  0  0  0
    7.0411   -4.2666    1.6495 H   0  0  0  0  0  0  0  0  0  0  0  0
    5.4218   -4.0947   -1.9053 H   0  0  0  0  0  0  0  0  0  0  0  0
    4.3964   -4.6259   -0.5666 H   0  0  0  0  0  0  0  0  0  0  0  0
    3.3180   -3.4652   -2.8510 H   0  0  0  0  0  0  0  0  0  0  0  0
    2.5930   -3.2521   -1.2699 H   0  0  0  0  0  0  0  0  0  0  0  0
    5.1633   -0.6727    0.0727 H   0  0  0  0  0  0  0  0  0  0  0  0
    3.2401    0.3851    0.9753 H   0  0  0  0  0  0  0  0  0  0  0  0
    1.0278   -1.2033    1.9617 H   0  0  0  0  0  0  0  0  0  0  0  0
    0.6690    1.0684    1.0754 H   0  0  0  0  0  0  0  0  0  0  0  0
   -0.7568    1.9020    2.9212 H   0  0  0  0  0  0  0  0  0  0  0  0
   -0.9054    0.1691    2.7642 H   0  0  0  0  0  0  0  0  0  0  0  0
   -0.6184    0.8141    5.1632 H   0  0  0  0  0  0  0  0  0  0  0  0
    0.7456    2.8836    4.8251 H   0  0  0  0  0  0  0  0  0  0  0  0
    1.5641    1.7787    5.9167 H   0  0  0  0  0  0  0  0  0  0  0  0
    3.1516    2.6849    4.2086 H   0  0  0  0  0  0  0  0  0  0  0  0
    2.8375    2.1015    1.8252 H   0  0  0  0  0  0  0  0  0  0  0  0
    1.4853    3.0492    2.3780 H   0  0  0  0  0  0  0  0  0  0  0  0
    4.0624    0.4907    3.4533 H   0  0  0  0  0  0  0  0  0  0  0  0
    3.5236    0.3679    5.1054 H   0  0  0  0  0  0  0  0  0  0  0  0
    2.6836   -1.5908    3.8040 H   0  0  0  0  0  0  0  0  0  0  0  0
    1.2833   -0.7322    5.6654 H   0  0  0  0  0  0  0  0  0  0  0  0
    0.2719   -1.3950    4.3941 H   0  0  0  0  0  0  0  0  0  0  0  0
  1  2  1  0
  1 23  1  0
  1 24  1  0
  1 25  1  0
  2  3  2  0
  2  4  2  0
  2  5  1  0
  5  9  1  0
  5  6  1  0
  6  7  1  0
  6 26  1  0
  6 27  1  0
  7  8  1  0
  7 28  1  0
  7 29  1  0
  8  9  1  0
  9 10  1  0
  9 30  1  1
 10 11  2  0
 10 12  1  0
 12 13  1  0
 12 31  1  0
 13 21  1  0
 13 14  1  0
 13 32  1  6
 14 19  1  0
 14 15  1  0
 14 33  1  6
 15 16  1  0
 15 34  1  0
 15 35  1  0
 16 22  1  0
 16 17  1  0
 16 36  1  1
 17 18  1  0
 17 37  1  0
 17 38  1  0
 18 19  1  0
 18 20  1  0
 18 39  1  1
 19 40  1  0
 19 41  1  0
 20 21  1  0
 20 42  1  0
 20 43  1  0
 21 22  1  0
 21 44  1  6
 22 45  1  0
 22 46  1  0
M  END
>  <i_m_ct_stereo_status>  (81) 
1

>  <s_m_source_file>  (81) 
/var/tmp/pbs.5076255.sched01/tmpokz5906q/0mijyat0o.sdf

>  <i_m_source_file_index>  (81) 
34

>  <i_lp_mmshare_version>  (81) 
48012

>  <i_f3d_flags>  (81) 
0

>  <s_epik_input>  (81) 
W0NIM11TKD1PKSg9TylOMVtDSDJdW0NIMl1TW0NASF0xQyg9TylbTkhdW0NASF0oW0NASF0yMylbQ0BASF00W0NIMl1bQ0BIXShbQ0gyXTMpW0NIMl1bQ0BIXShbQ0gyXTIpW0NIMl00

>  <s_epik_cmdline>  (81) 
J2VwaWtfcHl0aG9uJywgJy1waHQnLCAnMi4wJywgJy1waCcsICc3LjAnLCAnLXRuJywgJzgnLCAnLW1hJywgJzIwMCcsICctaW1hZScsICc8aW5maWxlLm1hZT4nLCAnLW9tYWUnLCAnPG91dGZpbGUubWFlPic=

>  <r_lp_tautomer_probability>  (81) 
1

>  <r_epik_Ionization_Penalty>  (81) 
7.04935e-07

>  <r_epik_Ionization_Penalty_Charging>  (81) 
0

>  <r_epik_Ionization_Penalty_Neutral>  (81) 
7.04935e-07

>  <r_epik_State_Penalty>  (81) 
-0

>  <r_epik_Charging_Adjusted_Penalty>  (81) 
0

>  <i_epik_Tot_Q>  (81) 
0

>  <i_epik_Tot_abs_Q>  (81) 
0

>  <s_epik_Chemistry_Notes>  (81) 
This compound contains an acetal/aminal-like group ( X-CH(R)-Y where X, Y are N, S, or O) that may be acid/base labile, releasing an aldehyde.

>  <s_lp_Force_Field>  (81) 
OPLS3e

>  <r_lp_Energy>  (81) 
-6.30762

>  <b_lp_Chiralities_Consistent>  (81) 
1

>  <s_lp_Variant>  (81) 
24:0-1

>  <s_i_glide_gridfile>  (81) 
pfpi4k_grid

>  <i_i_glide_lignum>  (81) 
34

>  <i_i_glide_rotatable_bonds>  (81) 
4

>  <r_i_docking_score>  (81) 
-2.74085

>  <r_i_glide_ligand_efficiency>  (81) 
-0.124584

>  <r_i_glide_ligand_efficiency_sa>  (81) 
-0.34909

>  <r_i_glide_ligand_efficiency_ln>  (81) 
-0.669964

>  <r_i_glide_gscore>  (81) 
-2.74085

>  <r_i_glide_lipo>  (81) 
-0.14835

>  <r_i_glide_hbond>  (81) 
0

>  <r_i_glide_metal>  (81) 
-0

>  <r_i_glide_rewards>  (81) 
-1.1131

>  <r_i_glide_evdw>  (81) 
-31.2462

>  <r_i_glide_ecoul>  (81) 
-1.2936

>  <r_i_glide_erotb>  (81) 
0.479997

>  <r_i_glide_esite>  (81) 
-0.203047

>  <r_i_glide_emodel>  (81) 
-36.2347

>  <r_i_glide_energy>  (81) 
-32.5398

>  <r_i_glide_einternal>  (81) 
3.34045

>  <r_i_glide_intrahb_reward>  (81) 
-0

>  <i_i_glide_confnum>  (81) 
5

>  <i_i_glide_posenum>  (81) 
34

>  <r_i_glide_eff_state_penalty>  (81) 
0

>  <ligand_id>  (81) 
24

>  <original_smiles>  (81) 
CS(=O)(=O)N1CCSC1C(=O)NC1C2CC3CC(C2)CC1C3

>  <smiles>  (81) 
[H]N(C(=O)C1([H])SC([H])([H])C([H])([H])N1S(=O)(=O)C([H])([H])[H])C1([H])C2([H])C([H])([H])C3([H])C([H])([H])C([H])(C2([H])[H])C([H])([H])C1([H])C3([H])[H]

$$$$
24:0:1
     RDKit          3D

 46 49  0  0  1  0  0  0  0  0999 V2000
    2.7317   -0.8538    4.2665 C   0  0  0  0  0  0  0  0  0  0  0  0
    0.9967   -1.2956    4.6704 S   0  0  0  0  0  0  0  0  0  0  0  0
    0.6060   -2.4324    3.8254 O   0  0  0  0  0  0  0  0  0  0  0  0
    0.8748   -1.3890    6.1335 O   0  0  0  0  0  0  0  0  0  0  0  0
    0.0913    0.0847    4.1488 N   0  0  0  0  0  0  0  0  0  0  0  0
   -0.1072    0.3349    2.7163 C   0  0  0  0  0  0  0  0  0  0  0  0
    0.3601    1.7512    2.4376 C   0  0  0  0  0  0  0  0  0  0  0  0
   -0.2577    2.6983    3.8359 S   0  0  0  0  0  0  0  0  0  0  0  0
    0.1258    1.3214    4.9535 C   0  0  1  0  0  0  0  0  0  0  0  0
   -0.7858    1.2936    6.1919 C   0  0  0  0  0  0  0  0  0  0  0  0
   -1.7239    0.4944    6.2823 O   0  0  0  0  0  0  0  0  0  0  0  0
   -0.4848    2.1680    7.1582 N   0  0  0  0  0  0  0  0  0  0  0  0
   -1.1984    2.3051    8.4197 C   0  0  2  0  0  0  0  0  0  0  0  0
   -2.2117    3.4715    8.3683 C   0  0  1  0  0  0  0  0  0  0  0  0
   -2.9942    3.5004    9.6966 C   0  0  0  0  0  0  0  0  0  0  0  0
   -2.0128    3.7384   10.8639 C   0  0  2  0  0  0  0  0  0  0  0  0
   -1.2645    5.0761   10.6689 C   0  0  0  0  0  0  0  0  0  0  0  0
   -0.4854    5.0404    9.3353 C   0  0  2  0  0  0  0  0  0  0  0  0
   -1.4741    4.8184    8.1733 C   0  0  0  0  0  0  0  0  0  0  0  0
    0.5416    3.8824    9.3757 C   0  0  0  0  0  0  0  0  0  0  0  0
   -0.2037    2.5384    9.5719 C   0  0  1  0  0  0  0  0  0  0  0  0
   -0.9826    2.5837   10.9036 C   0  0  0  0  0  0  0  0  0  0  0  0
    3.3656   -1.6978    4.5383 H   0  0  0  0  0  0  0  0  0  0  0  0
    3.0230    0.0237    4.8394 H   0  0  0  0  0  0  0  0  0  0  0  0
    2.8094   -0.6579    3.1985 H   0  0  0  0  0  0  0  0  0  0  0  0
    0.3893   -0.4061    2.0856 H   0  0  0  0  0  0  0  0  0  0  0  0
   -1.1813    0.2765    2.5316 H   0  0  0  0  0  0  0  0  0  0  0  0
    1.4508    1.7862    2.4419 H   0  0  0  0  0  0  0  0  0  0  0  0
    0.0046    2.1329    1.4780 H   0  0  0  0  0  0  0  0  0  0  0  0
    1.1562    1.4857    5.2720 H   0  0  0  0  0  0  0  0  0  0  0  0
    0.2863    2.8002    6.9941 H   0  0  0  0  0  0  0  0  0  0  0  0
   -1.7398    1.3823    8.6267 H   0  0  0  0  0  0  0  0  0  0  0  0
   -2.9152    3.3157    7.5508 H   0  0  0  0  0  0  0  0  0  0  0  0
   -3.7594    4.2758    9.6739 H   0  0  0  0  0  0  0  0  0  0  0  0
   -3.5191    2.5561    9.8444 H   0  0  0  0  0  0  0  0  0  0  0  0
   -2.5681    3.7609   11.8057 H   0  0  0  0  0  0  0  0  0  0  0  0
   -1.9681    5.9103   10.6786 H   0  0  0  0  0  0  0  0  0  0  0  0
   -0.5751    5.2340   11.4989 H   0  0  0  0  0  0  0  0  0  0  0  0
    0.0387    5.9899    9.1968 H   0  0  0  0  0  0  0  0  0  0  0  0
   -0.9455    4.8377    7.2214 H   0  0  0  0  0  0  0  0  0  0  0  0
   -2.1910    5.6384    8.1407 H   0  0  0  0  0  0  0  0  0  0  0  0
    1.1305    3.8720    8.4567 H   0  0  0  0  0  0  0  0  0  0  0  0
    1.2492    4.0325   10.1908 H   0  0  0  0  0  0  0  0  0  0  0  0
    0.5156    1.7143    9.6071 H   0  0  0  0  0  0  0  0  0  0  0  0
   -0.2984    2.7276   11.7383 H   0  0  0  0  0  0  0  0  0  0  0  0
   -1.4978    1.6354   11.0865 H   0  0  0  0  0  0  0  0  0  0  0  0
  1  2  1  0
  1 23  1  0
  1 24  1  0
  1 25  1  0
  2  3  2  0
  2  4  2  0
  2  5  1  0
  5  9  1  0
  5  6  1  0
  6  7  1  0
  6 26  1  0
  6 27  1  0
  7  8  1  0
  7 28  1  0
  7 29  1  0
  8  9  1  0
  9 10  1  0
  9 30  1  1
 10 11  2  0
 10 12  1  0
 12 13  1  0
 12 31  1  0
 13 21  1  0
 13 14  1  0
 13 32  1  1
 14 19  1  0
 14 15  1  0
 14 33  1  6
 15 16  1  0
 15 34  1  0
 15 35  1  0
 16 22  1  0
 16 17  1  0
 16 36  1  1
 17 18  1  0
 17 37  1  0
 17 38  1  0
 18 19  1  0
 18 20  1  0
 18 39  1  6
 19 40  1  0
 19 41  1  0
 20 21  1  0
 20 42  1  0
 20 43  1  0
 21 22  1  0
 21 44  1  1
 22 45  1  0
 22 46  1  0
M  END
>  <i_m_ct_stereo_status>  (82) 
1

>  <s_m_source_file>  (82) 
/var/tmp/pbs.5076255.sched01/tmpokz5906q/0mijyat0o.sdf

>  <i_m_source_file_index>  (82) 
34

>  <i_lp_mmshare_version>  (82) 
48012

>  <i_f3d_flags>  (82) 
0

>  <s_epik_input>  (82) 
W0NIM11TKD1PKSg9TylOMVtDSDJdW0NIMl1TW0NASF0xQyg9TylbTkhdW0NASF0oW0NASF0yMylbQ0BASF00W0NIMl1bQ0BIXShbQ0gyXTMpW0NIMl1bQ0BIXShbQ0gyXTIpW0NIMl00

>  <s_epik_cmdline>  (82) 
J2VwaWtfcHl0aG9uJywgJy1waHQnLCAnMi4wJywgJy1waCcsICc3LjAnLCAnLXRuJywgJzgnLCAnLW1hJywgJzIwMCcsICctaW1hZScsICc8aW5maWxlLm1hZT4nLCAnLW9tYWUnLCAnPG91dGZpbGUubWFlPic=

>  <r_lp_tautomer_probability>  (82) 
1

>  <r_epik_Ionization_Penalty>  (82) 
7.04935e-07

>  <r_epik_Ionization_Penalty_Charging>  (82) 
0

>  <r_epik_Ionization_Penalty_Neutral>  (82) 
7.04935e-07

>  <r_epik_State_Penalty>  (82) 
-0

>  <r_epik_Charging_Adjusted_Penalty>  (82) 
0

>  <i_epik_Tot_Q>  (82) 
0

>  <i_epik_Tot_abs_Q>  (82) 
0

>  <s_epik_Chemistry_Notes>  (82) 
This compound contains an acetal/aminal-like group ( X-CH(R)-Y where X, Y are N, S, or O) that may be acid/base labile, releasing an aldehyde.

>  <s_lp_Force_Field>  (82) 
OPLS3e

>  <r_lp_Energy>  (82) 
-6.30762

>  <b_lp_Chiralities_Consistent>  (82) 
1

>  <s_lp_Variant>  (82) 
24:0-1

>  <s_i_glide_gridfile>  (82) 
pfpi4k_grid

>  <i_i_glide_lignum>  (82) 
34

>  <i_i_glide_rotatable_bonds>  (82) 
4

>  <r_i_docking_score>  (82) 
-2.25337

>  <r_i_glide_ligand_efficiency>  (82) 
-0.102426

>  <r_i_glide_ligand_efficiency_sa>  (82) 
-0.287001

>  <r_i_glide_ligand_efficiency_ln>  (82) 
-0.550805

>  <r_i_glide_gscore>  (82) 
-2.25337

>  <r_i_glide_lipo>  (82) 
-0.0250896

>  <r_i_glide_hbond>  (82) 
-0.139196

>  <r_i_glide_metal>  (82) 
-0

>  <r_i_glide_rewards>  (82) 
-1.06026

>  <r_i_glide_evdw>  (82) 
-21.8633

>  <r_i_glide_ecoul>  (82) 
-2.4555

>  <r_i_glide_erotb>  (82) 
0.479997

>  <r_i_glide_esite>  (82) 
-0.0473267

>  <r_i_glide_emodel>  (82) 
-28.5336

>  <r_i_glide_energy>  (82) 
-24.3188

>  <r_i_glide_einternal>  (82) 
0.733541

>  <r_i_glide_intrahb_reward>  (82) 
-0

>  <i_i_glide_confnum>  (82) 
3

>  <i_i_glide_posenum>  (82) 
2

>  <r_i_glide_eff_state_penalty>  (82) 
0

>  <ligand_id>  (82) 
24

>  <original_smiles>  (82) 
CS(=O)(=O)N1CCSC1C(=O)NC1C2CC3CC(C2)CC1C3

>  <smiles>  (82) 
[H]N(C(=O)C1([H])SC([H])([H])C([H])([H])N1S(=O)(=O)C([H])([H])[H])C1([H])C2([H])C([H])([H])C3([H])C([H])([H])C([H])(C2([H])[H])C([H])([H])C1([H])C3([H])[H]

$$$$
24:0:2
     RDKit          3D

 46 49  0  0  1  0  0  0  0  0999 V2000
    7.1353   -1.8288    0.5685 C   0  0  0  0  0  0  0  0  0  0  0  0
    6.0584   -2.7903   -0.5600 S   0  0  0  0  0  0  0  0  0  0  0  0
    6.2208   -2.2428   -1.9133 O   0  0  0  0  0  0  0  0  0  0  0  0
    6.3003   -4.2151   -0.3019 O   0  0  0  0  0  0  0  0  0  0  0  0
    4.4621   -2.4004   -0.0134 N   0  0  0  0  0  0  0  0  0  0  0  0
    3.9126   -1.0617   -0.2545 C   0  0  0  0  0  0  0  0  0  0  0  0
    3.4462   -0.5329    1.0962 C   0  0  0  0  0  0  0  0  0  0  0  0
    2.6546   -1.9364    1.8874 S   0  0  0  0  0  0  0  0  0  0  0  0
    3.9260   -3.0386    1.2053 C   0  0  1  0  0  0  0  0  0  0  0  0
    3.4143   -4.4667    0.9736 C   0  0  0  0  0  0  0  0  0  0  0  0
    2.3831   -4.6751    0.3334 O   0  0  0  0  0  0  0  0  0  0  0  0
    4.1649   -5.4439    1.4989 N   0  0  0  0  0  0  0  0  0  0  0  0
    3.9110   -6.8702    1.3641 C   0  0  2  0  0  0  0  0  0  0  0  0
    2.7007   -7.3221    2.2219 C   0  0  1  0  0  0  0  0  0  0  0  0
    2.4317   -8.8174    1.9583 C   0  0  0  0  0  0  0  0  0  0  0  0
    3.6666   -9.6375    2.3781 C   0  0  2  0  0  0  0  0  0  0  0  0
    3.9722   -9.4146    3.8768 C   0  0  0  0  0  0  0  0  0  0  0  0
    4.2385   -7.9148    4.1314 C   0  0  2  0  0  0  0  0  0  0  0  0
    2.9929   -7.1007    3.7265 C   0  0  0  0  0  0  0  0  0  0  0  0
    5.4579   -7.4661    3.2886 C   0  0  0  0  0  0  0  0  0  0  0  0
    5.1541   -7.6835    1.7837 C   0  0  1  0  0  0  0  0  0  0  0  0
    4.8844   -9.1867    1.5375 C   0  0  0  0  0  0  0  0  0  0  0  0
    8.1730   -2.0042    0.2814 H   0  0  0  0  0  0  0  0  0  0  0  0
    6.9786   -2.1775    1.5878 H   0  0  0  0  0  0  0  0  0  0  0  0
    6.8915   -0.7708    0.4953 H   0  0  0  0  0  0  0  0  0  0  0  0
    4.6352   -0.4029   -0.7414 H   0  0  0  0  0  0  0  0  0  0  0  0
    3.0541   -1.1736   -0.9209 H   0  0  0  0  0  0  0  0  0  0  0  0
    4.3128   -0.2521    1.6963 H   0  0  0  0  0  0  0  0  0  0  0  0
    2.7828    0.3275    1.0098 H   0  0  0  0  0  0  0  0  0  0  0  0
    4.7169   -3.0526    1.9544 H   0  0  0  0  0  0  0  0  0  0  0  0
    4.9902   -5.1752    2.0135 H   0  0  0  0  0  0  0  0  0  0  0  0
    3.7116   -7.0604    0.3098 H   0  0  0  0  0  0  0  0  0  0  0  0
    1.8130   -6.7609    1.9402 H   0  0  0  0  0  0  0  0  0  0  0  0
    1.5450   -9.1517    2.4980 H   0  0  0  0  0  0  0  0  0  0  0  0
    2.2228   -8.9774    0.9000 H   0  0  0  0  0  0  0  0  0  0  0  0
    3.4719  -10.6976    2.1974 H   0  0  0  0  0  0  0  0  0  0  0  0
    3.1399   -9.7620    4.4911 H   0  0  0  0  0  0  0  0  0  0  0  0
    4.8430  -10.0030    4.1662 H   0  0  0  0  0  0  0  0  0  0  0  0
    4.4507   -7.7593    5.1925 H   0  0  0  0  0  0  0  0  0  0  0  0
    3.1536   -6.0441    3.9377 H   0  0  0  0  0  0  0  0  0  0  0  0
    2.1336   -7.3999    4.3281 H   0  0  0  0  0  0  0  0  0  0  0  0
    5.6890   -6.4189    3.4918 H   0  0  0  0  0  0  0  0  0  0  0  0
    6.3441   -8.0328    3.5750 H   0  0  0  0  0  0  0  0  0  0  0  0
    6.0163   -7.3740    1.1861 H   0  0  0  0  0  0  0  0  0  0  0  0
    5.7575   -9.7790    1.8092 H   0  0  0  0  0  0  0  0  0  0  0  0
    4.6947   -9.3781    0.4778 H   0  0  0  0  0  0  0  0  0  0  0  0
  1  2  1  0
  1 23  1  0
  1 24  1  0
  1 25  1  0
  2  3  2  0
  2  4  2  0
  2  5  1  0
  5  9  1  0
  5  6  1  0
  6  7  1  0
  6 26  1  0
  6 27  1  0
  7  8  1  0
  7 28  1  0
  7 29  1  0
  8  9  1  0
  9 10  1  0
  9 30  1  1
 10 11  2  0
 10 12  1  0
 12 13  1  0
 12 31  1  0
 13 21  1  0
 13 14  1  0
 13 32  1  6
 14 19  1  0
 14 15  1  0
 14 33  1  6
 15 16  1  0
 15 34  1  0
 15 35  1  0
 16 22  1  0
 16 17  1  0
 16 36  1  1
 17 18  1  0
 17 37  1  0
 17 38  1  0
 18 19  1  0
 18 20  1  0
 18 39  1  1
 19 40  1  0
 19 41  1  0
 20 21  1  0
 20 42  1  0
 20 43  1  0
 21 22  1  0
 21 44  1  6
 22 45  1  0
 22 46  1  0
M  END
>  <i_m_ct_stereo_status>  (83) 
1

>  <s_m_source_file>  (83) 
/var/tmp/pbs.5076255.sched01/tmpokz5906q/0mijyat0o.sdf

>  <i_m_source_file_index>  (83) 
34

>  <i_lp_mmshare_version>  (83) 
48012

>  <i_f3d_flags>  (83) 
0

>  <s_epik_input>  (83) 
W0NIM11TKD1PKSg9TylOMVtDSDJdW0NIMl1TW0NASF0xQyg9TylbTkhdW0NASF0oW0NASF0yMylbQ0BASF00W0NIMl1bQ0BIXShbQ0gyXTMpW0NIMl1bQ0BIXShbQ0gyXTIpW0NIMl00

>  <s_epik_cmdline>  (83) 
J2VwaWtfcHl0aG9uJywgJy1waHQnLCAnMi4wJywgJy1waCcsICc3LjAnLCAnLXRuJywgJzgnLCAnLW1hJywgJzIwMCcsICctaW1hZScsICc8aW5maWxlLm1hZT4nLCAnLW9tYWUnLCAnPG91dGZpbGUubWFlPic=

>  <r_lp_tautomer_probability>  (83) 
1

>  <r_epik_Ionization_Penalty>  (83) 
7.04935e-07

>  <r_epik_Ionization_Penalty_Charging>  (83) 
0

>  <r_epik_Ionization_Penalty_Neutral>  (83) 
7.04935e-07

>  <r_epik_State_Penalty>  (83) 
-0

>  <r_epik_Charging_Adjusted_Penalty>  (83) 
0

>  <i_epik_Tot_Q>  (83) 
0

>  <i_epik_Tot_abs_Q>  (83) 
0

>  <s_epik_Chemistry_Notes>  (83) 
This compound contains an acetal/aminal-like group ( X-CH(R)-Y where X, Y are N, S, or O) that may be acid/base labile, releasing an aldehyde.

>  <s_lp_Force_Field>  (83) 
OPLS3e

>  <r_lp_Energy>  (83) 
-6.30762

>  <b_lp_Chiralities_Consistent>  (83) 
1

>  <s_lp_Variant>  (83) 
24:0-1

>  <s_i_glide_gridfile>  (83) 
pfpi4k_grid

>  <i_i_glide_lignum>  (83) 
34

>  <i_i_glide_rotatable_bonds>  (83) 
4

>  <r_i_docking_score>  (83) 
-2.25333

>  <r_i_glide_ligand_efficiency>  (83) 
-0.102424

>  <r_i_glide_ligand_efficiency_sa>  (83) 
-0.286997

>  <r_i_glide_ligand_efficiency_ln>  (83) 
-0.550797

>  <r_i_glide_gscore>  (83) 
-2.25333

>  <r_i_glide_lipo>  (83) 
-0.128634

>  <r_i_glide_hbond>  (83) 
0

>  <r_i_glide_metal>  (83) 
-0

>  <r_i_glide_rewards>  (83) 
-1.06026

>  <r_i_glide_evdw>  (83) 
-26.1952

>  <r_i_glide_ecoul>  (83) 
-1.17276

>  <r_i_glide_erotb>  (83) 
0.479997

>  <r_i_glide_esite>  (83) 
-0.0587601

>  <r_i_glide_emodel>  (83) 
-31.9068

>  <r_i_glide_energy>  (83) 
-27.3679

>  <r_i_glide_einternal>  (83) 
0.184365

>  <r_i_glide_intrahb_reward>  (83) 
-0

>  <i_i_glide_confnum>  (83) 
3

>  <i_i_glide_posenum>  (83) 
3

>  <r_i_glide_eff_state_penalty>  (83) 
0

>  <ligand_id>  (83) 
24

>  <original_smiles>  (83) 
CS(=O)(=O)N1CCSC1C(=O)NC1C2CC3CC(C2)CC1C3

>  <smiles>  (83) 
[H]N(C(=O)C1([H])SC([H])([H])C([H])([H])N1S(=O)(=O)C([H])([H])[H])C1([H])C2([H])C([H])([H])C3([H])C([H])([H])C([H])(C2([H])[H])C([H])([H])C1([H])C3([H])[H]

$$$$
25:0:0
     RDKit          3D

 52 58  0  0  1  0  0  0  0  0999 V2000
    4.6391   -0.8709   -0.6149 C   0  0  0  0  0  0  0  0  0  0  0  0
    4.4888   -1.6895   -1.8172 N   0  0  0  0  0  0  0  0  0  0  0  0
    4.0473   -1.2905   -3.0201 C   0  0  0  0  0  0  0  0  0  0  0  0
    4.0418   -2.2273   -3.9635 N   0  0  0  0  0  0  0  0  0  0  0  0
    4.4963   -3.3619   -3.3215 N   0  0  0  0  0  0  0  0  0  0  0  0
    4.7563   -2.9966   -2.0553 C   0  0  0  0  0  0  0  0  0  0  0  0
    5.3739   -3.8874   -1.0324 C   0  0  0  0  0  0  0  0  0  0  0  0
    6.4577   -3.5695   -0.5454 O   0  0  0  0  0  0  0  0  0  0  0  0
    4.6539   -4.9608   -0.7133 N   0  0  0  0  0  0  0  0  0  0  0  0
    4.9762   -5.9882    0.2810 C   0  0  0  0  0  0  0  0  0  0  0  0
    4.9398   -5.5487    1.7420 C   0  0  0  0  0  0  0  0  0  0  0  0
    3.5787   -5.6131    2.3818 C   0  0  0  0  0  0  0  0  0  0  0  0
    2.9339   -4.5915    2.6074 O   0  0  0  0  0  0  0  0  0  0  0  0
    3.1420   -6.8357    2.7432 N   0  0  0  0  0  0  0  0  0  0  0  0
    1.9986   -7.0984    3.6355 C   0  0  2  0  0  0  0  0  0  0  0  0
    1.9157   -8.6093    3.9758 C   0  0  1  0  0  0  0  0  0  0  0  0
    0.9724   -8.7221    5.1961 C   0  0  0  0  0  0  0  0  0  0  0  0
   -0.4104   -8.5358    4.5531 C   0  0  1  0  0  0  0  0  0  0  0  0
   -0.6014   -7.1301    3.8616 C   0  0  2  0  0  0  0  0  0  0  0  0
   -1.6773   -7.4787    2.8087 C   0  0  0  0  0  0  0  0  0  0  0  0
   -0.8951   -8.5952    2.1692 C   0  0  2  0  0  0  0  0  0  0  0  0
   -0.3267   -9.4122    3.3226 C   0  0  1  0  0  0  0  0  0  0  0  0
    1.0987   -9.2113    2.8202 C   0  0  1  0  0  0  0  0  0  0  0  0
    0.5242   -8.0589    2.0030 C   0  0  2  0  0  0  0  0  0  0  0  0
    0.6465   -6.8680    2.9287 C   0  0  2  0  0  0  0  0  0  0  0  0
    6.1224   -5.8425    2.6558 C   0  0  0  0  0  0  0  0  0  0  0  0
    5.8605   -4.4288    2.2180 C   0  0  0  0  0  0  0  0  0  0  0  0
    4.2219    0.1238   -0.7871 H   0  0  0  0  0  0  0  0  0  0  0  0
    5.6902   -0.7448   -0.3396 H   0  0  0  0  0  0  0  0  0  0  0  0
    4.0970   -1.3112    0.2220 H   0  0  0  0  0  0  0  0  0  0  0  0
    3.7381   -0.2693   -3.2149 H   0  0  0  0  0  0  0  0  0  0  0  0
    3.8507   -5.1656   -1.3076 H   0  0  0  0  0  0  0  0  0  0  0  0
    4.2961   -6.8234    0.1281 H   0  0  0  0  0  0  0  0  0  0  0  0
    5.9585   -6.4072    0.0768 H   0  0  0  0  0  0  0  0  0  0  0  0
    3.6688   -7.6430    2.4395 H   0  0  0  0  0  0  0  0  0  0  0  0
    2.0924   -6.4765    4.5278 H   0  0  0  0  0  0  0  0  0  0  0  0
    2.8846   -9.0778    4.1528 H   0  0  0  0  0  0  0  0  0  0  0  0
    1.0354   -9.7263    5.6227 H   0  0  0  0  0  0  0  0  0  0  0  0
    1.1734   -8.0101    5.9954 H   0  0  0  0  0  0  0  0  0  0  0  0
   -1.2397   -8.7997    5.2102 H   0  0  0  0  0  0  0  0  0  0  0  0
   -0.8479   -6.3174    4.5415 H   0  0  0  0  0  0  0  0  0  0  0  0
   -2.6140   -7.8206    3.2515 H   0  0  0  0  0  0  0  0  0  0  0  0
   -1.8632   -6.6576    2.1193 H   0  0  0  0  0  0  0  0  0  0  0  0
   -1.3372   -9.1447    1.3383 H   0  0  0  0  0  0  0  0  0  0  0  0
   -0.6409  -10.4528    3.4109 H   0  0  0  0  0  0  0  0  0  0  0  0
    1.5184  -10.0426    2.2517 H   0  0  0  0  0  0  0  0  0  0  0  0
    0.9160   -7.9567    0.9881 H   0  0  0  0  0  0  0  0  0  0  0  0
    0.5791   -5.9130    2.4109 H   0  0  0  0  0  0  0  0  0  0  0  0
    5.9731   -6.0743    3.7116 H   0  0  0  0  0  0  0  0  0  0  0  0
    6.9847   -6.3269    2.1997 H   0  0  0  0  0  0  0  0  0  0  0  0
    6.6434   -4.0191    1.5934 H   0  0  0  0  0  0  0  0  0  0  0  0
    5.4204   -3.7445    2.9510 H   0  0  0  0  0  0  0  0  0  0  0  0
  1  2  1  0
  1 28  1  0
  1 29  1  0
  1 30  1  0
  2  6  1  0
  2  3  1  0
  3  4  2  0
  3 31  1  0
  4  5  1  0
  5  6  2  0
  6  7  1  0
  7  8  2  0
  7  9  1  0
  9 10  1  0
  9 32  1  0
 10 11  1  0
 10 33  1  0
 10 34  1  0
 11 27  1  0
 11 12  1  0
 11 26  1  0
 12 13  2  0
 12 14  1  0
 14 15  1  0
 14 35  1  0
 15 25  1  0
 15 16  1  0
 15 36  1  1
 16 23  1  0
 16 17  1  0
 16 37  1  1
 17 18  1  0
 17 38  1  0
 17 39  1  0
 18 22  1  0
 18 19  1  0
 18 40  1  1
 19 25  1  0
 19 20  1  0
 19 41  1  1
 20 21  1  0
 20 42  1  0
 20 43  1  0
 21 24  1  0
 21 22  1  0
 21 44  1  6
 22 23  1  0
 22 45  1  1
 23 24  1  0
 23 46  1  6
 24 25  1  0
 24 47  1  6
 25 48  1  6
 26 27  1  0
 26 49  1  0
 26 50  1  0
 27 51  1  0
 27 52  1  0
M  END
>  <i_m_ct_stereo_status>  (84) 
1

>  <s_m_source_file>  (84) 
/var/tmp/pbs.5076255.sched01/tmpokz5906q/0mijyat0o.sdf

>  <i_m_source_file_index>  (84) 
35

>  <i_lp_mmshare_version>  (84) 
48012

>  <i_f3d_flags>  (84) 
0

>  <s_epik_input>  (84) 
W0NIM11uMVtjSF1ubmMxQyg9TylbTkhdW0NIMl1DMihbQ0gyXVtDSDJdMilDKD1PKVtOSF1bQ0BIXTNbQ0BASF0oW0NAQEhdNFtDQEBIXTVbQ0gyXTYpW0NAQEhdNltDQEhdKFtDSDJdNylbQ0BASF01W0NAQEhdNFtDQEBIXTM3

>  <s_epik_cmdline>  (84) 
J2VwaWtfcHl0aG9uJywgJy1waHQnLCAnMi4wJywgJy1waCcsICc3LjAnLCAnLXRuJywgJzgnLCAnLW1hJywgJzIwMCcsICctaW1hZScsICc8aW5maWxlLm1hZT4nLCAnLW9tYWUnLCAnPG91dGZpbGUubWFlPic=

>  <r_lp_tautomer_probability>  (84) 
1

>  <r_epik_Ionization_Penalty>  (84) 
3.56225e-06

>  <r_epik_Ionization_Penalty_Charging>  (84) 
0

>  <r_epik_Ionization_Penalty_Neutral>  (84) 
3.56225e-06

>  <r_epik_State_Penalty>  (84) 
-0

>  <r_epik_Charging_Adjusted_Penalty>  (84) 
0

>  <i_epik_Tot_Q>  (84) 
0

>  <i_epik_Tot_abs_Q>  (84) 
0

>  <s_lp_Force_Field>  (84) 
OPLS3e

>  <r_lp_Energy>  (84) 
76.0558

>  <b_lp_Chiralities_Consistent>  (84) 
1

>  <s_lp_Variant>  (84) 
25:0-1

>  <s_i_glide_gridfile>  (84) 
pfpi4k_grid

>  <i_i_glide_lignum>  (84) 
35

>  <i_i_glide_rotatable_bonds>  (84) 
7

>  <r_i_docking_score>  (84) 
-2.73384

>  <r_i_glide_ligand_efficiency>  (84) 
-0.101253

>  <r_i_glide_ligand_efficiency_sa>  (84) 
-0.30376

>  <r_i_glide_ligand_efficiency_ln>  (84) 
-0.636394

>  <r_i_glide_gscore>  (84) 
-2.73384

>  <r_i_glide_lipo>  (84) 
-0.21342

>  <r_i_glide_hbond>  (84) 
-0.32

>  <r_i_glide_metal>  (84) 
-0

>  <r_i_glide_rewards>  (84) 
-1.04446

>  <r_i_glide_evdw>  (84) 
-29.5969

>  <r_i_glide_ecoul>  (84) 
-4.07266

>  <r_i_glide_erotb>  (84) 
0.998485

>  <r_i_glide_esite>  (84) 
-0.0636997

>  <r_i_glide_emodel>  (84) 
-36.3487

>  <r_i_glide_energy>  (84) 
-33.6696

>  <r_i_glide_einternal>  (84) 
4.80602

>  <r_i_glide_intrahb_reward>  (84) 
-0

>  <i_i_glide_confnum>  (84) 
6

>  <i_i_glide_posenum>  (84) 
31

>  <r_i_glide_eff_state_penalty>  (84) 
0

>  <ligand_id>  (84) 
25

>  <original_smiles>  (84) 
Cn1cnnc1C(=O)NCC1(C(=O)NC2C3CC4C5CC6C4C3C6C52)CC1

>  <smiles>  (84) 
[H]c1nnc(C(=O)N([H])C([H])([H])C2(C(=O)N([H])C3([H])C4([H])C([H])([H])C5([H])C6([H])C([H])([H])C7([H])C5([H])C4([H])C7([H])C36[H])C([H])([H])C2([H])[H])n1C([H])([H])[H]

$$$$
25:0:1
     RDKit          3D

 52 58  0  0  1  0  0  0  0  0999 V2000
    0.5356  -10.4240    3.5858 C   0  0  0  0  0  0  0  0  0  0  0  0
   -0.1208   -9.2089    3.1269 N   0  0  0  0  0  0  0  0  0  0  0  0
   -1.4344   -9.0231    2.9330 C   0  0  0  0  0  0  0  0  0  0  0  0
   -1.7756   -7.8024    2.5124 N   0  0  0  0  0  0  0  0  0  0  0  0
   -0.5839   -7.1190    2.4013 N   0  0  0  0  0  0  0  0  0  0  0  0
    0.3655   -7.9889    2.7846 C   0  0  0  0  0  0  0  0  0  0  0  0
    1.8163   -7.6237    2.8397 C   0  0  0  0  0  0  0  0  0  0  0  0
    2.1969   -6.5975    2.2935 O   0  0  0  0  0  0  0  0  0  0  0  0
    2.6108   -8.4359    3.5542 N   0  0  0  0  0  0  0  0  0  0  0  0
    4.0235   -8.2327    3.8300 C   0  0  0  0  0  0  0  0  0  0  0  0
    4.9901   -8.6154    2.7145 C   0  0  0  0  0  0  0  0  0  0  0  0
    4.9330   -7.7260    1.4981 C   0  0  0  0  0  0  0  0  0  0  0  0
    4.6361   -8.1675    0.3859 O   0  0  0  0  0  0  0  0  0  0  0  0
    5.2224   -6.4287    1.7066 N   0  0  0  0  0  0  0  0  0  0  0  0
    5.3873   -5.4091    0.6633 C   0  0  2  0  0  0  0  0  0  0  0  0
    5.9395   -4.0935    1.2771 C   0  0  1  0  0  0  0  0  0  0  0  0
    6.4960   -3.2761    0.0877 C   0  0  0  0  0  0  0  0  0  0  0  0
    5.2084   -2.7184   -0.5502 C   0  0  1  0  0  0  0  0  0  0  0  0
    4.2306   -3.8468   -1.0823 C   0  0  2  0  0  0  0  0  0  0  0  0
    2.8751   -3.1031   -1.0102 C   0  0  0  0  0  0  0  0  0  0  0  0
    2.9989   -2.7467    0.4545 C   0  0  2  0  0  0  0  0  0  0  0  0
    4.4191   -2.2390    0.6521 C   0  0  1  0  0  0  0  0  0  0  0  0
    4.6921   -3.2996    1.7107 C   0  0  1  0  0  0  0  0  0  0  0  0
    3.4705   -4.0088    1.1529 C   0  0  2  0  0  0  0  0  0  0  0  0
    4.0402   -4.9165    0.0743 C   0  0  2  0  0  0  0  0  0  0  0  0
    6.3434   -9.2125    3.0465 C   0  0  0  0  0  0  0  0  0  0  0  0
    5.2678  -10.0866    2.4476 C   0  0  0  0  0  0  0  0  0  0  0  0
   -0.1836  -11.2281    3.6815 H   0  0  0  0  0  0  0  0  0  0  0  0
    0.9835  -10.2577    4.5641 H   0  0  0  0  0  0  0  0  0  0  0  0
    1.3076  -10.7214    2.8764 H   0  0  0  0  0  0  0  0  0  0  0  0
   -2.1633   -9.8017    3.1217 H   0  0  0  0  0  0  0  0  0  0  0  0
    2.1978   -9.2776    3.9459 H   0  0  0  0  0  0  0  0  0  0  0  0
    4.2022   -7.2072    4.1500 H   0  0  0  0  0  0  0  0  0  0  0  0
    4.2544   -8.8475    4.6996 H   0  0  0  0  0  0  0  0  0  0  0  0
    5.3171   -6.1194    2.6651 H   0  0  0  0  0  0  0  0  0  0  0  0
    6.0404   -5.8162   -0.1132 H   0  0  0  0  0  0  0  0  0  0  0  0
    6.6795   -4.2554    2.0643 H   0  0  0  0  0  0  0  0  0  0  0  0
    7.0954   -2.4469    0.4670 H   0  0  0  0  0  0  0  0  0  0  0  0
    7.1077   -3.8479   -0.6068 H   0  0  0  0  0  0  0  0  0  0  0  0
    5.3827   -1.9255   -1.2824 H   0  0  0  0  0  0  0  0  0  0  0  0
    4.4973   -4.2591   -2.0567 H   0  0  0  0  0  0  0  0  0  0  0  0
    2.8226   -2.2242   -1.6573 H   0  0  0  0  0  0  0  0  0  0  0  0
    2.0246   -3.7538   -1.2223 H   0  0  0  0  0  0  0  0  0  0  0  0
    2.2033   -2.1966    0.9544 H   0  0  0  0  0  0  0  0  0  0  0  0
    4.5366   -1.1996    0.9757 H   0  0  0  0  0  0  0  0  0  0  0  0
    4.5957   -2.9763    2.7468 H   0  0  0  0  0  0  0  0  0  0  0  0
    2.7907   -4.4065    1.9025 H   0  0  0  0  0  0  0  0  0  0  0  0
    3.3658   -5.7209   -0.2244 H   0  0  0  0  0  0  0  0  0  0  0  0
    7.1898   -8.9452    2.4159 H   0  0  0  0  0  0  0  0  0  0  0  0
    6.5797   -9.3494    4.1010 H   0  0  0  0  0  0  0  0  0  0  0  0
    4.7740  -10.8121    3.0916 H   0  0  0  0  0  0  0  0  0  0  0  0
    5.4141  -10.4192    1.4208 H   0  0  0  0  0  0  0  0  0  0  0  0
  1  2  1  0
  1 28  1  0
  1 29  1  0
  1 30  1  0
  2  6  1  0
  2  3  1  0
  3  4  2  0
  3 31  1  0
  4  5  1  0
  5  6  2  0
  6  7  1  0
  7  8  2  0
  7  9  1  0
  9 10  1  0
  9 32  1  0
 10 11  1  0
 10 33  1  0
 10 34  1  0
 11 27  1  0
 11 12  1  0
 11 26  1  0
 12 13  2  0
 12 14  1  0
 14 15  1  0
 14 35  1  0
 15 25  1  0
 15 16  1  0
 15 36  1  6
 16 23  1  0
 16 17  1  0
 16 37  1  1
 17 18  1  0
 17 38  1  0
 17 39  1  0
 18 22  1  0
 18 19  1  0
 18 40  1  6
 19 25  1  0
 19 20  1  0
 19 41  1  6
 20 21  1  0
 20 42  1  0
 20 43  1  0
 21 24  1  0
 21 22  1  0
 21 44  1  1
 22 23  1  0
 22 45  1  1
 23 24  1  0
 23 46  1  1
 24 25  1  0
 24 47  1  1
 25 48  1  6
 26 27  1  0
 26 49  1  0
 26 50  1  0
 27 51  1  0
 27 52  1  0
M  END
>  <i_m_ct_stereo_status>  (85) 
1

>  <s_m_source_file>  (85) 
/var/tmp/pbs.5076255.sched01/tmpokz5906q/0mijyat0o.sdf

>  <i_m_source_file_index>  (85) 
35

>  <i_lp_mmshare_version>  (85) 
48012

>  <i_f3d_flags>  (85) 
0

>  <s_epik_input>  (85) 
W0NIM11uMVtjSF1ubmMxQyg9TylbTkhdW0NIMl1DMihbQ0gyXVtDSDJdMilDKD1PKVtOSF1bQ0BIXTNbQ0BASF0oW0NAQEhdNFtDQEBIXTVbQ0gyXTYpW0NAQEhdNltDQEhdKFtDSDJdNylbQ0BASF01W0NAQEhdNFtDQEBIXTM3

>  <s_epik_cmdline>  (85) 
J2VwaWtfcHl0aG9uJywgJy1waHQnLCAnMi4wJywgJy1waCcsICc3LjAnLCAnLXRuJywgJzgnLCAnLW1hJywgJzIwMCcsICctaW1hZScsICc8aW5maWxlLm1hZT4nLCAnLW9tYWUnLCAnPG91dGZpbGUubWFlPic=

>  <r_lp_tautomer_probability>  (85) 
1

>  <r_epik_Ionization_Penalty>  (85) 
3.56225e-06

>  <r_epik_Ionization_Penalty_Charging>  (85) 
0

>  <r_epik_Ionization_Penalty_Neutral>  (85) 
3.56225e-06

>  <r_epik_State_Penalty>  (85) 
-0

>  <r_epik_Charging_Adjusted_Penalty>  (85) 
0

>  <i_epik_Tot_Q>  (85) 
0

>  <i_epik_Tot_abs_Q>  (85) 
0

>  <s_lp_Force_Field>  (85) 
OPLS3e

>  <r_lp_Energy>  (85) 
76.0558

>  <b_lp_Chiralities_Consistent>  (85) 
1

>  <s_lp_Variant>  (85) 
25:0-1

>  <s_i_glide_gridfile>  (85) 
pfpi4k_grid

>  <i_i_glide_lignum>  (85) 
35

>  <i_i_glide_rotatable_bonds>  (85) 
7

>  <r_i_docking_score>  (85) 
-2.651

>  <r_i_glide_ligand_efficiency>  (85) 
-0.098185

>  <r_i_glide_ligand_efficiency_sa>  (85) 
-0.294555

>  <r_i_glide_ligand_efficiency_ln>  (85) 
-0.617108

>  <r_i_glide_gscore>  (85) 
-2.651

>  <r_i_glide_lipo>  (85) 
-0.306885

>  <r_i_glide_hbond>  (85) 
0

>  <r_i_glide_metal>  (85) 
-0

>  <r_i_glide_rewards>  (85) 
-0.994944

>  <r_i_glide_evdw>  (85) 
-27.6411

>  <r_i_glide_ecoul>  (85) 
-4.80461

>  <r_i_glide_erotb>  (85) 
0.998485

>  <r_i_glide_esite>  (85) 
-0.244909

>  <r_i_glide_emodel>  (85) 
-37.3477

>  <r_i_glide_energy>  (85) 
-32.4457

>  <r_i_glide_einternal>  (85) 
1.74959

>  <r_i_glide_intrahb_reward>  (85) 
-0

>  <i_i_glide_confnum>  (85) 
11

>  <i_i_glide_posenum>  (85) 
13

>  <r_i_glide_eff_state_penalty>  (85) 
0

>  <ligand_id>  (85) 
25

>  <original_smiles>  (85) 
Cn1cnnc1C(=O)NCC1(C(=O)NC2C3CC4C5CC6C4C3C6C52)CC1

>  <smiles>  (85) 
[H]c1nnc(C(=O)N([H])C([H])([H])C2(C(=O)N([H])C3([H])C4([H])C([H])([H])C5([H])C6([H])C([H])([H])C7([H])C5([H])C4([H])C7([H])C36[H])C([H])([H])C2([H])[H])n1C([H])([H])[H]

$$$$
25:0:2
     RDKit          3D

 52 58  0  0  1  0  0  0  0  0999 V2000
   -0.0115    1.4252    2.2225 C   0  0  0  0  0  0  0  0  0  0  0  0
   -0.3692    0.5754    3.3439 N   0  0  0  0  0  0  0  0  0  0  0  0
   -1.3919    0.7535    4.2029 C   0  0  0  0  0  0  0  0  0  0  0  0
   -1.5242   -0.1815    5.1395 N   0  0  0  0  0  0  0  0  0  0  0  0
   -0.4901   -1.0671    4.8847 N   0  0  0  0  0  0  0  0  0  0  0  0
    0.1697   -0.5994    3.8268 C   0  0  0  0  0  0  0  0  0  0  0  0
    1.3375   -1.3356    3.2014 C   0  0  0  0  0  0  0  0  0  0  0  0
    1.6975   -2.4150    3.6702 O   0  0  0  0  0  0  0  0  0  0  0  0
    1.8816   -0.7595    2.1177 N   0  0  0  0  0  0  0  0  0  0  0  0
    2.9726   -1.2463    1.3006 C   0  0  0  0  0  0  0  0  0  0  0  0
    4.2710   -1.5980    2.0282 C   0  0  0  0  0  0  0  0  0  0  0  0
    4.2799   -2.9644    2.6703 C   0  0  0  0  0  0  0  0  0  0  0  0
    4.7099   -3.1403    3.8224 O   0  0  0  0  0  0  0  0  0  0  0  0
    3.7993   -3.9715    1.9292 N   0  0  0  0  0  0  0  0  0  0  0  0
    3.7039   -5.3731    2.3621 C   0  0  2  0  0  0  0  0  0  0  0  0
    3.2237   -6.2629    1.1830 C   0  0  1  0  0  0  0  0  0  0  0  0
    3.5737   -7.7083    1.6052 C   0  0  0  0  0  0  0  0  0  0  0  0
    2.4515   -8.0349    2.6083 C   0  0  1  0  0  0  0  0  0  0  0  0
    2.4580   -7.1006    3.8871 C   0  0  2  0  0  0  0  0  0  0  0  0
    0.9663   -7.1822    4.3031 C   0  0  0  0  0  0  0  0  0  0  0  0
    0.4343   -6.7288    2.9614 C   0  0  2  0  0  0  0  0  0  0  0  0
    1.2127   -7.5101    1.9123 C   0  0  1  0  0  0  0  0  0  0  0  0
    1.6829   -6.2193    1.2504 C   0  0  1  0  0  0  0  0  0  0  0  0
    1.2950   -5.5358    2.5548 C   0  0  2  0  0  0  0  0  0  0  0  0
    2.5594   -5.5997    3.3900 C   0  0  2  0  0  0  0  0  0  0  0  0
    5.6271   -1.1074    1.5206 C   0  0  0  0  0  0  0  0  0  0  0  0
    5.0127   -0.4937    2.7576 C   0  0  0  0  0  0  0  0  0  0  0  0
   -0.6383    2.3162    2.1780 H   0  0  0  0  0  0  0  0  0  0  0  0
   -0.1421    0.8748    1.2932 H   0  0  0  0  0  0  0  0  0  0  0  0
    1.0284    1.7509    2.2892 H   0  0  0  0  0  0  0  0  0  0  0  0
   -2.0880    1.5966    4.1200 H   0  0  0  0  0  0  0  0  0  0  0  0
    1.4703    0.1022    1.7783 H   0  0  0  0  0  0  0  0  0  0  0  0
    2.6286   -2.0573    0.6621 H   0  0  0  0  0  0  0  0  0  0  0  0
    3.2015   -0.4459    0.6029 H   0  0  0  0  0  0  0  0  0  0  0  0
    3.4724   -3.7613    0.9900 H   0  0  0  0  0  0  0  0  0  0  0  0
    4.6705   -5.6892    2.7740 H   0  0  0  0  0  0  0  0  0  0  0  0
    3.6474   -5.9794    0.2163 H   0  0  0  0  0  0  0  0  0  0  0  0
    3.4912   -8.3784    0.7495 H   0  0  0  0  0  0  0  0  0  0  0  0
    4.5748   -7.8234    2.0225 H   0  0  0  0  0  0  0  0  0  0  0  0
    2.3771   -9.0968    2.8494 H   0  0  0  0  0  0  0  0  0  0  0  0
    3.1851   -7.3835    4.6522 H   0  0  0  0  0  0  0  0  0  0  0  0
    0.6509   -8.1946    4.5701 H   0  0  0  0  0  0  0  0  0  0  0  0
    0.7180   -6.5010    5.1198 H   0  0  0  0  0  0  0  0  0  0  0  0
   -0.6398   -6.6555    2.7944 H   0  0  0  0  0  0  0  0  0  0  0  0
    0.6405   -8.1950    1.2761 H   0  0  0  0  0  0  0  0  0  0  0  0
    1.1080   -5.9215    0.3737 H   0  0  0  0  0  0  0  0  0  0  0  0
    0.7938   -4.5705    2.4755 H   0  0  0  0  0  0  0  0  0  0  0  0
    2.5436   -4.8957    4.2243 H   0  0  0  0  0  0  0  0  0  0  0  0
    6.4946   -1.7667    1.6427 H   0  0  0  0  0  0  0  0  0  0  0  0
    5.6410   -0.5159    0.6000 H   0  0  0  0  0  0  0  0  0  0  0  0
    4.6002    0.5081    2.6797 H   0  0  0  0  0  0  0  0  0  0  0  0
    5.4781   -0.7115    3.7183 H   0  0  0  0  0  0  0  0  0  0  0  0
  1  2  1  0
  1 28  1  0
  1 29  1  0
  1 30  1  0
  2  6  1  0
  2  3  1  0
  3  4  2  0
  3 31  1  0
  4  5  1  0
  5  6  2  0
  6  7  1  0
  7  8  2  0
  7  9  1  0
  9 10  1  0
  9 32  1  0
 10 11  1  0
 10 33  1  0
 10 34  1  0
 11 27  1  0
 11 12  1  0
 11 26  1  0
 12 13  2  0
 12 14  1  0
 14 15  1  0
 14 35  1  0
 15 25  1  0
 15 16  1  0
 15 36  1  1
 16 23  1  0
 16 17  1  0
 16 37  1  6
 17 18  1  0
 17 38  1  0
 17 39  1  0
 18 22  1  0
 18 19  1  0
 18 40  1  1
 19 25  1  0
 19 20  1  0
 19 41  1  1
 20 21  1  0
 20 42  1  0
 20 43  1  0
 21 24  1  0
 21 22  1  0
 21 44  1  1
 22 23  1  0
 22 45  1  6
 23 24  1  0
 23 46  1  6
 24 25  1  0
 24 47  1  6
 25 48  1  1
 26 27  1  0
 26 49  1  0
 26 50  1  0
 27 51  1  0
 27 52  1  0
M  END
>  <i_m_ct_stereo_status>  (86) 
1

>  <s_m_source_file>  (86) 
/var/tmp/pbs.5076255.sched01/tmpokz5906q/0mijyat0o.sdf

>  <i_m_source_file_index>  (86) 
35

>  <i_lp_mmshare_version>  (86) 
48012

>  <i_f3d_flags>  (86) 
0

>  <s_epik_input>  (86) 
W0NIM11uMVtjSF1ubmMxQyg9TylbTkhdW0NIMl1DMihbQ0gyXVtDSDJdMilDKD1PKVtOSF1bQ0BIXTNbQ0BASF0oW0NAQEhdNFtDQEBIXTVbQ0gyXTYpW0NAQEhdNltDQEhdKFtDSDJdNylbQ0BASF01W0NAQEhdNFtDQEBIXTM3

>  <s_epik_cmdline>  (86) 
J2VwaWtfcHl0aG9uJywgJy1waHQnLCAnMi4wJywgJy1waCcsICc3LjAnLCAnLXRuJywgJzgnLCAnLW1hJywgJzIwMCcsICctaW1hZScsICc8aW5maWxlLm1hZT4nLCAnLW9tYWUnLCAnPG91dGZpbGUubWFlPic=

>  <r_lp_tautomer_probability>  (86) 
1

>  <r_epik_Ionization_Penalty>  (86) 
3.56225e-06

>  <r_epik_Ionization_Penalty_Charging>  (86) 
0

>  <r_epik_Ionization_Penalty_Neutral>  (86) 
3.56225e-06

>  <r_epik_State_Penalty>  (86) 
-0

>  <r_epik_Charging_Adjusted_Penalty>  (86) 
0

>  <i_epik_Tot_Q>  (86) 
0

>  <i_epik_Tot_abs_Q>  (86) 
0

>  <s_lp_Force_Field>  (86) 
OPLS3e

>  <r_lp_Energy>  (86) 
76.0558

>  <b_lp_Chiralities_Consistent>  (86) 
1

>  <s_lp_Variant>  (86) 
25:0-1

>  <s_i_glide_gridfile>  (86) 
pfpi4k_grid

>  <i_i_glide_lignum>  (86) 
35

>  <i_i_glide_rotatable_bonds>  (86) 
7

>  <r_i_docking_score>  (86) 
-2.37003

>  <r_i_glide_ligand_efficiency>  (86) 
-0.0877788

>  <r_i_glide_ligand_efficiency_sa>  (86) 
-0.263337

>  <r_i_glide_ligand_efficiency_ln>  (86) 
-0.551704

>  <r_i_glide_gscore>  (86) 
-2.37003

>  <r_i_glide_lipo>  (86) 
-0.326871

>  <r_i_glide_hbond>  (86) 
0

>  <r_i_glide_metal>  (86) 
-0

>  <r_i_glide_rewards>  (86) 
-0.917557

>  <r_i_glide_evdw>  (86) 
-24.1487

>  <r_i_glide_ecoul>  (86) 
-4.71399

>  <r_i_glide_erotb>  (86) 
0.998485

>  <r_i_glide_esite>  (86) 
-0.209553

>  <r_i_glide_emodel>  (86) 
-33.1078

>  <r_i_glide_energy>  (86) 
-28.8627

>  <r_i_glide_einternal>  (86) 
2.04549

>  <r_i_glide_intrahb_reward>  (86) 
-0

>  <i_i_glide_confnum>  (86) 
11

>  <i_i_glide_posenum>  (86) 
2

>  <r_i_glide_eff_state_penalty>  (86) 
0

>  <ligand_id>  (86) 
25

>  <original_smiles>  (86) 
Cn1cnnc1C(=O)NCC1(C(=O)NC2C3CC4C5CC6C4C3C6C52)CC1

>  <smiles>  (86) 
[H]c1nnc(C(=O)N([H])C([H])([H])C2(C(=O)N([H])C3([H])C4([H])C([H])([H])C5([H])C6([H])C([H])([H])C7([H])C5([H])C4([H])C7([H])C36[H])C([H])([H])C2([H])[H])n1C([H])([H])[H]

$$$$
26:0:0
     RDKit          3D

 49 54  0  0  1  0  0  0  0  0999 V2000
   -2.5995    3.2747    6.1175 C   0  0  0  0  0  0  0  0  0  0  0  0
   -1.3294    3.1681    5.7269 C   0  0  0  0  0  0  0  0  0  0  0  0
   -0.1432    3.2484    6.7448 C   0  0  2  0  0  0  0  0  0  0  0  0
    0.7199    4.2892    5.9962 C   0  0  0  0  0  0  0  0  0  0  0  0
    0.0795    5.6823    5.7865 C   0  0  0  0  0  0  0  0  0  0  0  0
    2.0561    4.5946    6.7472 C   0  0  0  0  0  0  0  0  0  0  0  0
    0.7617    3.4062    4.6830 C   0  0  1  0  0  0  0  0  0  0  0  0
    1.4972    2.1926    5.3302 C   0  0  2  0  0  0  0  0  0  0  0  0
    1.6245    0.8628    4.6219 C   0  0  0  0  0  0  0  0  0  0  0  0
    0.6249    0.0115    5.4168 C   0  0  1  0  0  0  0  0  0  0  0  0
   -0.4823   -0.5524    4.4717 C   0  0  0  0  0  0  0  0  0  0  0  0
   -1.3623    0.5710    4.0808 O   0  0  0  0  0  0  0  0  0  0  0  0
   -0.8989    1.7053    3.4324 C   0  0  0  0  0  0  0  0  0  0  0  0
   -0.5234    1.6409    2.2566 O   0  0  0  0  0  0  0  0  0  0  0  0
   -0.7534    3.0813    4.2698 C   0  0  1  0  0  0  0  0  0  0  0  0
   -1.2079    4.1826    3.4551 O   0  0  0  0  0  0  0  0  0  0  0  0
   -2.4753    4.1738    2.9349 C   0  0  0  0  0  0  0  0  0  0  0  0
   -3.4665    3.2428    2.8170 C   0  0  0  0  0  0  0  0  0  0  0  0
   -4.5646    3.8634    2.1854 C   0  0  0  0  0  0  0  0  0  0  0  0
   -4.1843    5.1694    1.9970 C   0  0  0  0  0  0  0  0  0  0  0  0
   -4.8706    6.3187    1.4066 C   0  0  0  0  0  0  0  0  0  0  0  0
   -2.9081    5.3591    2.4504 O   0  0  0  0  0  0  0  0  0  0  0  0
    1.3883   -0.3042    6.7632 C   0  0  0  0  0  0  0  0  0  0  0  0
    1.5226    1.0560    7.4194 O   0  0  0  0  0  0  0  0  0  0  0  0
    0.6821    1.9080    6.6190 C   0  0  1  0  0  0  0  0  0  0  0  0
   -0.2077    0.8020    6.3459 C   0  0  0  0  0  0  0  0  0  0  0  0
   -1.2744    0.4958    6.9078 O   0  0  0  0  0  0  0  0  0  0  0  0
   -3.4126    3.2571    5.4067 H   0  0  0  0  0  0  0  0  0  0  0  0
   -2.8500    3.3791    7.1701 H   0  0  0  0  0  0  0  0  0  0  0  0
   -0.4786    3.5238    7.7473 H   0  0  0  0  0  0  0  0  0  0  0  0
    0.7133    6.2805    5.1302 H   0  0  0  0  0  0  0  0  0  0  0  0
   -0.0076    6.2203    6.7302 H   0  0  0  0  0  0  0  0  0  0  0  0
   -0.9098    5.6554    5.3466 H   0  0  0  0  0  0  0  0  0  0  0  0
    2.8109    4.9979    6.0721 H   0  0  0  0  0  0  0  0  0  0  0  0
    2.4969    3.7486    7.2779 H   0  0  0  0  0  0  0  0  0  0  0  0
    1.9020    5.3427    7.5240 H   0  0  0  0  0  0  0  0  0  0  0  0
    1.3112    3.8485    3.8492 H   0  0  0  0  0  0  0  0  0  0  0  0
    2.5206    2.4615    5.5817 H   0  0  0  0  0  0  0  0  0  0  0  0
    1.5050    0.9154    3.5405 H   0  0  0  0  0  0  0  0  0  0  0  0
    2.6267    0.4498    4.7498 H   0  0  0  0  0  0  0  0  0  0  0  0
   -0.0491   -1.0187    3.5820 H   0  0  0  0  0  0  0  0  0  0  0  0
   -1.0966   -1.2963    4.9757 H   0  0  0  0  0  0  0  0  0  0  0  0
   -3.4056    2.2297    3.1618 H   0  0  0  0  0  0  0  0  0  0  0  0
   -5.5298    3.4476    1.9316 H   0  0  0  0  0  0  0  0  0  0  0  0
   -5.8659    6.0376    1.0385 H   0  0  0  0  0  0  0  0  0  0  0  0
   -4.2766    6.6819    0.5668 H   0  0  0  0  0  0  0  0  0  0  0  0
   -4.9796    7.1210    2.1418 H   0  0  0  0  0  0  0  0  0  0  0  0
    0.8634   -1.0411    7.3858 H   0  0  0  0  0  0  0  0  0  0  0  0
    2.3717   -0.7366    6.5686 H   0  0  0  0  0  0  0  0  0  0  0  0
  1  2  2  0
  1 28  1  0
  1 29  1  0
  2 15  1  0
  2  3  1  0
  3 25  1  0
  3  4  1  0
  3 30  1  1
  4  5  1  0
  4  6  1  0
  4  7  1  0
  5 31  1  0
  5 32  1  0
  5 33  1  0
  6 34  1  0
  6 35  1  0
  6 36  1  0
  7 15  1  0
  7  8  1  0
  7 37  1  6
  8 25  1  0
  8  9  1  0
  8 38  1  1
  9 10  1  0
  9 39  1  0
  9 40  1  0
 10 26  1  0
 10 11  1  6
 10 23  1  0
 11 12  1  0
 11 41  1  0
 11 42  1  0
 12 13  1  0
 13 14  2  0
 13 15  1  0
 15 16  1  6
 16 17  1  0
 17 22  1  0
 17 18  2  0
 18 19  1  0
 18 43  1  0
 19 20  2  0
 19 44  1  0
 20 21  1  0
 20 22  1  0
 21 45  1  0
 21 46  1  0
 21 47  1  0
 23 24  1  0
 23 48  1  0
 23 49  1  0
 25 24  1  1
 25 26  1  0
 26 27  2  0
M  END
>  <i_m_ct_stereo_status>  (87) 
1

>  <s_m_source_file>  (87) 
/var/tmp/pbs.5076255.sched01/tmpokz5906q/0mijyat0o.sdf

>  <i_m_source_file_index>  (87) 
36

>  <i_lp_mmshare_version>  (87) 
48012

>  <i_f3d_flags>  (87) 
0

>  <s_epik_input>  (87) 
W0NAXTEyM1tDSDJdW0NAQEhdNFtDQEBdKEMzPU8pKE9bQ0gyXTIpW0NAQEhdNUMoPVtDSDJdKVtDQEBdKFtDQEhdNEM1KFtDSDNdKVtDSDNdKShDKD1PKU9bQ0gyXTEpT2M2W2NIXVtjSF1jKG82KVtDSDNd

>  <s_epik_cmdline>  (87) 
J2VwaWtfcHl0aG9uJywgJy1waHQnLCAnMi4wJywgJy1waCcsICc3LjAnLCAnLXRuJywgJzgnLCAnLW1hJywgJzIwMCcsICctaW1hZScsICc8aW5maWxlLm1hZT4nLCAnLW9tYWUnLCAnPG91dGZpbGUubWFlPic=

>  <r_lp_tautomer_probability>  (87) 
1

>  <r_epik_Ionization_Penalty>  (87) 
2.86797e-14

>  <r_epik_Ionization_Penalty_Charging>  (87) 
0

>  <r_epik_Ionization_Penalty_Neutral>  (87) 
2.86797e-14

>  <r_epik_State_Penalty>  (87) 
-0

>  <r_epik_Charging_Adjusted_Penalty>  (87) 
0

>  <i_epik_Tot_Q>  (87) 
0

>  <i_epik_Tot_abs_Q>  (87) 
0

>  <s_epik_Chemistry_Notes>  (87) 
This compound has an ester and may undergo hydrolysis at high or low pH.

>  <s_lp_Force_Field>  (87) 
OPLS3e

>  <r_lp_Energy>  (87) 
165.217

>  <b_lp_Chiralities_Consistent>  (87) 
1

>  <s_lp_Variant>  (87) 
26:0-1

>  <s_i_glide_gridfile>  (87) 
pfpi4k_grid

>  <i_i_glide_lignum>  (87) 
36

>  <i_i_glide_rotatable_bonds>  (87) 
2

>  <r_i_docking_score>  (87) 
-3.1601

>  <r_i_glide_ligand_efficiency>  (87) 
-0.117041

>  <r_i_glide_ligand_efficiency_sa>  (87) 
-0.351122

>  <r_i_glide_ligand_efficiency_ln>  (87) 
-0.735618

>  <r_i_glide_gscore>  (87) 
-3.1601

>  <r_i_glide_lipo>  (87) 
-0.526373

>  <r_i_glide_hbond>  (87) 
-0.296035

>  <r_i_glide_metal>  (87) 
-0

>  <r_i_glide_rewards>  (87) 
-0.883665

>  <r_i_glide_evdw>  (87) 
-19.5549

>  <r_i_glide_ecoul>  (87) 
-4.70517

>  <r_i_glide_erotb>  (87) 
0.281233

>  <r_i_glide_esite>  (87) 
-0.0517371

>  <r_i_glide_emodel>  (87) 
-28.2969

>  <r_i_glide_energy>  (87) 
-24.2601

>  <r_i_glide_einternal>  (87) 
3.28468

>  <r_i_glide_intrahb_reward>  (87) 
-0

>  <i_i_glide_confnum>  (87) 
5

>  <i_i_glide_posenum>  (87) 
8

>  <r_i_glide_eff_state_penalty>  (87) 
0

>  <ligand_id>  (87) 
26

>  <original_smiles>  (87) 
C=C1C2C(C)(C)C3C4CC5(COC(=O)C13Oc1ccc(C)o1)COC42C5=O

>  <smiles>  (87) 
[H]C([H])=C1C2(Oc3oc(C([H])([H])[H])c([H])c3[H])C(=O)OC([H])([H])C34C(=O)C5(OC3([H])[H])C1([H])C(C([H])([H])[H])(C([H])([H])[H])C2([H])C5([H])C4([H])[H]

$$$$
26:0:1
     RDKit          3D

 49 54  0  0  1  0  0  0  0  0999 V2000
    3.0709   -6.4393    5.2150 C   0  0  0  0  0  0  0  0  0  0  0  0
    2.8772   -7.3039    4.2108 C   0  0  0  0  0  0  0  0  0  0  0  0
    3.5403   -8.7270    4.1793 C   0  0  2  0  0  0  0  0  0  0  0  0
    4.1136   -8.6776    2.7424 C   0  0  0  0  0  0  0  0  0  0  0  0
    5.1305   -7.5375    2.4462 C   0  0  0  0  0  0  0  0  0  0  0  0
    4.8743   -9.9807    2.3583 C   0  0  0  0  0  0  0  0  0  0  0  0
    2.6865   -8.4327    2.1180 C   0  0  1  0  0  0  0  0  0  0  0  0
    2.0335   -9.7628    2.5870 C   0  0  2  0  0  0  0  0  0  0  0  0
    0.5494   -9.9875    2.5158 C   0  0  0  0  0  0  0  0  0  0  0  0
    0.1594   -9.8986    4.0005 C   0  0  1  0  0  0  0  0  0  0  0  0
   -0.8858   -8.7483    4.2014 C   0  0  0  0  0  0  0  0  0  0  0  0
   -0.2403   -7.4227    4.0011 O   0  0  0  0  0  0  0  0  0  0  0  0
    0.4742   -7.0526    2.8593 C   0  0  0  0  0  0  0  0  0  0  0  0
   -0.1333   -6.6770    1.8495 O   0  0  0  0  0  0  0  0  0  0  0  0
    2.0927   -7.1211    2.8629 C   0  0  1  0  0  0  0  0  0  0  0  0
    2.5365   -5.9504    2.1383 O   0  0  0  0  0  0  0  0  0  0  0  0
    2.1943   -4.6881    2.5823 C   0  0  0  0  0  0  0  0  0  0  0  0
    1.3791   -4.1948    3.5647 C   0  0  0  0  0  0  0  0  0  0  0  0
    1.4878   -2.7784    3.5175 C   0  0  0  0  0  0  0  0  0  0  0  0
    2.3011   -2.5169    2.4502 C   0  0  0  0  0  0  0  0  0  0  0  0
    2.7682   -1.2525    1.8374 C   0  0  0  0  0  0  0  0  0  0  0  0
    2.7499   -3.6745    1.8738 O   0  0  0  0  0  0  0  0  0  0  0  0
    0.6461  -11.2619    4.6263 C   0  0  0  0  0  0  0  0  0  0  0  0
    2.1463  -11.1850    4.4967 O   0  0  0  0  0  0  0  0  0  0  0  0
    2.3901   -9.8257    4.0945 C   0  0  1  0  0  0  0  0  0  0  0  0
    1.2390   -9.3851    4.8658 C   0  0  0  0  0  0  0  0  0  0  0  0
    1.1964   -8.8558    5.9836 O   0  0  0  0  0  0  0  0  0  0  0  0
    2.6544   -5.4515    5.2111 H   0  0  0  0  0  0  0  0  0  0  0  0
    3.6850   -6.7564    6.0741 H   0  0  0  0  0  0  0  0  0  0  0  0
    4.2652   -8.8713    4.9768 H   0  0  0  0  0  0  0  0  0  0  0  0
    5.3532   -7.5037    1.3792 H   0  0  0  0  0  0  0  0  0  0  0  0
    6.0737   -7.7155    2.9640 H   0  0  0  0  0  0  0  0  0  0  0  0
    4.8097   -6.5405    2.7374 H   0  0  0  0  0  0  0  0  0  0  0  0
    4.9247  -10.1165    1.2776 H   0  0  0  0  0  0  0  0  0  0  0  0
    4.4635  -10.8959    2.7859 H   0  0  0  0  0  0  0  0  0  0  0  0
    5.9017   -9.9562    2.7184 H   0  0  0  0  0  0  0  0  0  0  0  0
    2.6860   -8.3390    1.0371 H   0  0  0  0  0  0  0  0  0  0  0  0
    2.4761  -10.6060    2.0719 H   0  0  0  0  0  0  0  0  0  0  0  0
    0.0253   -9.3202    1.8438 H   0  0  0  0  0  0  0  0  0  0  0  0
    0.3165  -10.9834    2.1477 H   0  0  0  0  0  0  0  0  0  0  0  0
   -1.7206   -8.8555    3.5012 H   0  0  0  0  0  0  0  0  0  0  0  0
   -1.3062   -8.7694    5.2113 H   0  0  0  0  0  0  0  0  0  0  0  0
    0.7606   -4.7666    4.2534 H   0  0  0  0  0  0  0  0  0  0  0  0
    1.0177   -2.0584    4.1517 H   0  0  0  0  0  0  0  0  0  0  0  0
    2.3278   -0.3846    2.3359 H   0  0  0  0  0  0  0  0  0  0  0  0
    2.4755   -1.2326    0.7871 H   0  0  0  0  0  0  0  0  0  0  0  0
    3.8579   -1.1856    1.8951 H   0  0  0  0  0  0  0  0  0  0  0  0
    0.2880  -11.4192    5.6535 H   0  0  0  0  0  0  0  0  0  0  0  0
    0.2611  -12.1085    4.0592 H   0  0  0  0  0  0  0  0  0  0  0  0
  1  2  2  0
  1 28  1  0
  1 29  1  0
  2 15  1  0
  2  3  1  0
  3 25  1  0
  3  4  1  0
  3 30  1  1
  4  5  1  0
  4  6  1  0
  4  7  1  0
  5 31  1  0
  5 32  1  0
  5 33  1  0
  6 34  1  0
  6 35  1  0
  6 36  1  0
  7 15  1  0
  7  8  1  0
  7 37  1  6
  8 25  1  0
  8  9  1  0
  8 38  1  6
  9 10  1  0
  9 39  1  0
  9 40  1  0
 10 26  1  0
 10 11  1  6
 10 23  1  0
 11 12  1  0
 11 41  1  0
 11 42  1  0
 12 13  1  0
 13 14  2  0
 13 15  1  0
 15 16  1  6
 16 17  1  0
 17 22  1  0
 17 18  2  0
 18 19  1  0
 18 43  1  0
 19 20  2  0
 19 44  1  0
 20 21  1  0
 20 22  1  0
 21 45  1  0
 21 46  1  0
 21 47  1  0
 23 24  1  0
 23 48  1  0
 23 49  1  0
 25 24  1  1
 25 26  1  0
 26 27  2  0
M  END
>  <i_m_ct_stereo_status>  (88) 
1

>  <s_m_source_file>  (88) 
/var/tmp/pbs.5076255.sched01/tmpokz5906q/0mijyat0o.sdf

>  <i_m_source_file_index>  (88) 
36

>  <i_lp_mmshare_version>  (88) 
48012

>  <i_f3d_flags>  (88) 
0

>  <s_epik_input>  (88) 
W0NAXTEyM1tDSDJdW0NAQEhdNFtDQEBdKEMzPU8pKE9bQ0gyXTIpW0NAQEhdNUMoPVtDSDJdKVtDQEBdKFtDQEhdNEM1KFtDSDNdKVtDSDNdKShDKD1PKU9bQ0gyXTEpT2M2W2NIXVtjSF1jKG82KVtDSDNd

>  <s_epik_cmdline>  (88) 
J2VwaWtfcHl0aG9uJywgJy1waHQnLCAnMi4wJywgJy1waCcsICc3LjAnLCAnLXRuJywgJzgnLCAnLW1hJywgJzIwMCcsICctaW1hZScsICc8aW5maWxlLm1hZT4nLCAnLW9tYWUnLCAnPG91dGZpbGUubWFlPic=

>  <r_lp_tautomer_probability>  (88) 
1

>  <r_epik_Ionization_Penalty>  (88) 
2.86797e-14

>  <r_epik_Ionization_Penalty_Charging>  (88) 
0

>  <r_epik_Ionization_Penalty_Neutral>  (88) 
2.86797e-14

>  <r_epik_State_Penalty>  (88) 
-0

>  <r_epik_Charging_Adjusted_Penalty>  (88) 
0

>  <i_epik_Tot_Q>  (88) 
0

>  <i_epik_Tot_abs_Q>  (88) 
0

>  <s_epik_Chemistry_Notes>  (88) 
This compound has an ester and may undergo hydrolysis at high or low pH.

>  <s_lp_Force_Field>  (88) 
OPLS3e

>  <r_lp_Energy>  (88) 
165.217

>  <b_lp_Chiralities_Consistent>  (88) 
1

>  <s_lp_Variant>  (88) 
26:0-1

>  <s_i_glide_gridfile>  (88) 
pfpi4k_grid

>  <i_i_glide_lignum>  (88) 
36

>  <i_i_glide_rotatable_bonds>  (88) 
2

>  <r_i_docking_score>  (88) 
-2.70369

>  <r_i_glide_ligand_efficiency>  (88) 
-0.100137

>  <r_i_glide_ligand_efficiency_sa>  (88) 
-0.30041

>  <r_i_glide_ligand_efficiency_ln>  (88) 
-0.629374

>  <r_i_glide_gscore>  (88) 
-2.70369

>  <r_i_glide_lipo>  (88) 
-0.220638

>  <r_i_glide_hbond>  (88) 
-0.189856

>  <r_i_glide_metal>  (88) 
-0

>  <r_i_glide_rewards>  (88) 
-0.883665

>  <r_i_glide_evdw>  (88) 
-23.1818

>  <r_i_glide_ecoul>  (88) 
-3.01124

>  <r_i_glide_erotb>  (88) 
0.281233

>  <r_i_glide_esite>  (88) 
-0.0799853

>  <r_i_glide_emodel>  (88) 
-29.4576

>  <r_i_glide_energy>  (88) 
-26.1931

>  <r_i_glide_einternal>  (88) 
3.05007

>  <r_i_glide_intrahb_reward>  (88) 
-0

>  <i_i_glide_confnum>  (88) 
5

>  <i_i_glide_posenum>  (88) 
1

>  <r_i_glide_eff_state_penalty>  (88) 
0

>  <ligand_id>  (88) 
26

>  <original_smiles>  (88) 
C=C1C2C(C)(C)C3C4CC5(COC(=O)C13Oc1ccc(C)o1)COC42C5=O

>  <smiles>  (88) 
[H]C([H])=C1C2(Oc3oc(C([H])([H])[H])c([H])c3[H])C(=O)OC([H])([H])C34C(=O)C5(OC3([H])[H])C1([H])C(C([H])([H])[H])(C([H])([H])[H])C2([H])C5([H])C4([H])[H]

$$$$
26:0:2
     RDKit          3D

 49 54  0  0  1  0  0  0  0  0999 V2000
    3.8418   -6.0764    4.1486 C   0  0  0  0  0  0  0  0  0  0  0  0
    3.4874   -4.9973    3.4392 C   0  0  0  0  0  0  0  0  0  0  0  0
    4.0664   -3.5808    3.7591 C   0  0  2  0  0  0  0  0  0  0  0  0
    2.7282   -2.8072    3.8430 C   0  0  0  0  0  0  0  0  0  0  0  0
    1.7085   -3.2953    4.9137 C   0  0  0  0  0  0  0  0  0  0  0  0
    2.9293   -1.2908    4.1656 C   0  0  0  0  0  0  0  0  0  0  0  0
    2.3367   -3.2129    2.3711 C   0  0  1  0  0  0  0  0  0  0  0  0
    3.5309   -2.5195    1.6496 C   0  0  2  0  0  0  0  0  0  0  0  0
    3.8422   -2.7930    0.2035 C   0  0  0  0  0  0  0  0  0  0  0  0
    5.1143   -3.6521    0.3380 C   0  0  1  0  0  0  0  0  0  0  0  0
    4.8849   -5.0460   -0.3312 C   0  0  0  0  0  0  0  0  0  0  0  0
    3.9329   -5.8463    0.4764 O   0  0  0  0  0  0  0  0  0  0  0  0
    2.6592   -5.4295    0.8535 C   0  0  0  0  0  0  0  0  0  0  0  0
    1.7022   -5.5324    0.0695 O   0  0  0  0  0  0  0  0  0  0  0  0
    2.4052   -4.8359    2.3285 C   0  0  1  0  0  0  0  0  0  0  0  0
    1.1238   -5.3727    2.7504 O   0  0  0  0  0  0  0  0  0  0  0  0
    0.8896   -6.7416    2.7067 C   0  0  0  0  0  0  0  0  0  0  0  0
    1.6497   -7.8494    2.5311 C   0  0  0  0  0  0  0  0  0  0  0  0
    0.7583   -8.9591    2.6975 C   0  0  0  0  0  0  0  0  0  0  0  0
   -0.4665   -8.4221    2.8281 C   0  0  0  0  0  0  0  0  0  0  0  0
   -1.8286   -9.0304    2.9038 C   0  0  0  0  0  0  0  0  0  0  0  0
   -0.4286   -7.0554    2.8727 O   0  0  0  0  0  0  0  0  0  0  0  0
    6.2535   -2.6247    0.7009 C   0  0  0  0  0  0  0  0  0  0  0  0
    5.8473   -2.1268    2.0682 O   0  0  0  0  0  0  0  0  0  0  0  0
    4.7595   -3.0033    2.4476 C   0  0  1  0  0  0  0  0  0  0  0  0
    5.3740   -4.0835    1.7138 C   0  0  0  0  0  0  0  0  0  0  0  0
    6.0808   -5.0237    2.1435 O   0  0  0  0  0  0  0  0  0  0  0  0
    3.3701   -7.0384    4.0041 H   0  0  0  0  0  0  0  0  0  0  0  0
    4.6186   -5.9972    4.9004 H   0  0  0  0  0  0  0  0  0  0  0  0
    4.6808   -3.5573    4.6520 H   0  0  0  0  0  0  0  0  0  0  0  0
    0.7493   -2.7910    4.7898 H   0  0  0  0  0  0  0  0  0  0  0  0
    2.0578   -3.0668    5.9215 H   0  0  0  0  0  0  0  0  0  0  0  0
    1.5006   -4.3627    4.9114 H   0  0  0  0  0  0  0  0  0  0  0  0
    2.0802   -0.6922    3.8354 H   0  0  0  0  0  0  0  0  0  0  0  0
    3.8341   -0.8576    3.7450 H   0  0  0  0  0  0  0  0  0  0  0  0
    3.0284   -1.1344    5.2398 H   0  0  0  0  0  0  0  0  0  0  0  0
    1.3931   -2.7810    2.0540 H   0  0  0  0  0  0  0  0  0  0  0  0
    3.4356   -1.4345    1.7133 H   0  0  0  0  0  0  0  0  0  0  0  0
    3.0198   -3.2208   -0.3571 H   0  0  0  0  0  0  0  0  0  0  0  0
    4.0751   -1.8696   -0.3222 H   0  0  0  0  0  0  0  0  0  0  0  0
    4.5070   -4.9239   -1.3461 H   0  0  0  0  0  0  0  0  0  0  0  0
    5.8229   -5.6060   -0.3980 H   0  0  0  0  0  0  0  0  0  0  0  0
    2.7017   -7.9426    2.3119 H   0  0  0  0  0  0  0  0  0  0  0  0
    1.0232  -10.0084    2.6855 H   0  0  0  0  0  0  0  0  0  0  0  0
   -1.7415  -10.1158    2.8361 H   0  0  0  0  0  0  0  0  0  0  0  0
   -2.4385   -8.6788    2.0726 H   0  0  0  0  0  0  0  0  0  0  0  0
   -2.3007   -8.7674    3.8478 H   0  0  0  0  0  0  0  0  0  0  0  0
    7.2687   -3.0469    0.6775 H   0  0  0  0  0  0  0  0  0  0  0  0
    6.2754   -1.7862    0.0108 H   0  0  0  0  0  0  0  0  0  0  0  0
  1  2  2  0
  1 28  1  0
  1 29  1  0
  2 15  1  0
  2  3  1  0
  3 25  1  0
  3  4  1  0
  3 30  1  1
  4  5  1  0
  4  6  1  0
  4  7  1  0
  5 31  1  0
  5 32  1  0
  5 33  1  0
  6 34  1  0
  6 35  1  0
  6 36  1  0
  7 15  1  0
  7  8  1  0
  7 37  1  6
  8 25  1  0
  8  9  1  0
  8 38  1  6
  9 10  1  0
  9 39  1  0
  9 40  1  0
 10 26  1  0
 10 11  1  6
 10 23  1  0
 11 12  1  0
 11 41  1  0
 11 42  1  0
 12 13  1  0
 13 14  2  0
 13 15  1  0
 15 16  1  1
 16 17  1  0
 17 22  1  0
 17 18  2  0
 18 19  1  0
 18 43  1  0
 19 20  2  0
 19 44  1  0
 20 21  1  0
 20 22  1  0
 21 45  1  0
 21 46  1  0
 21 47  1  0
 23 24  1  0
 23 48  1  0
 23 49  1  0
 25 24  1  1
 25 26  1  0
 26 27  2  0
M  END
>  <i_m_ct_stereo_status>  (89) 
1

>  <s_m_source_file>  (89) 
/var/tmp/pbs.5076255.sched01/tmpokz5906q/0mijyat0o.sdf

>  <i_m_source_file_index>  (89) 
36

>  <i_lp_mmshare_version>  (89) 
48012

>  <i_f3d_flags>  (89) 
0

>  <s_epik_input>  (89) 
W0NAXTEyM1tDSDJdW0NAQEhdNFtDQEBdKEMzPU8pKE9bQ0gyXTIpW0NAQEhdNUMoPVtDSDJdKVtDQEBdKFtDQEhdNEM1KFtDSDNdKVtDSDNdKShDKD1PKU9bQ0gyXTEpT2M2W2NIXVtjSF1jKG82KVtDSDNd

>  <s_epik_cmdline>  (89) 
J2VwaWtfcHl0aG9uJywgJy1waHQnLCAnMi4wJywgJy1waCcsICc3LjAnLCAnLXRuJywgJzgnLCAnLW1hJywgJzIwMCcsICctaW1hZScsICc8aW5maWxlLm1hZT4nLCAnLW9tYWUnLCAnPG91dGZpbGUubWFlPic=

>  <r_lp_tautomer_probability>  (89) 
1

>  <r_epik_Ionization_Penalty>  (89) 
2.86797e-14

>  <r_epik_Ionization_Penalty_Charging>  (89) 
0

>  <r_epik_Ionization_Penalty_Neutral>  (89) 
2.86797e-14

>  <r_epik_State_Penalty>  (89) 
-0

>  <r_epik_Charging_Adjusted_Penalty>  (89) 
0

>  <i_epik_Tot_Q>  (89) 
0

>  <i_epik_Tot_abs_Q>  (89) 
0

>  <s_epik_Chemistry_Notes>  (89) 
This compound has an ester and may undergo hydrolysis at high or low pH.

>  <s_lp_Force_Field>  (89) 
OPLS3e

>  <r_lp_Energy>  (89) 
165.217

>  <b_lp_Chiralities_Consistent>  (89) 
1

>  <s_lp_Variant>  (89) 
26:0-1

>  <s_i_glide_gridfile>  (89) 
pfpi4k_grid

>  <i_i_glide_lignum>  (89) 
36

>  <i_i_glide_rotatable_bonds>  (89) 
2

>  <r_i_docking_score>  (89) 
-2.65936

>  <r_i_glide_ligand_efficiency>  (89) 
-0.098495

>  <r_i_glide_ligand_efficiency_sa>  (89) 
-0.295485

>  <r_i_glide_ligand_efficiency_ln>  (89) 
-0.619056

>  <r_i_glide_gscore>  (89) 
-2.65936

>  <r_i_glide_lipo>  (89) 
-0.162541

>  <r_i_glide_hbond>  (89) 
-0.196866

>  <r_i_glide_metal>  (89) 
-0

>  <r_i_glide_rewards>  (89) 
-0.939523

>  <r_i_glide_evdw>  (89) 
-22.5567

>  <r_i_glide_ecoul>  (89) 
-3.21447

>  <r_i_glide_erotb>  (89) 
0.281233

>  <r_i_glide_esite>  (89) 
-0.0316653

>  <r_i_glide_emodel>  (89) 
-28.6559

>  <r_i_glide_energy>  (89) 
-25.7711

>  <r_i_glide_einternal>  (89) 
3.33562

>  <r_i_glide_intrahb_reward>  (89) 
-0

>  <i_i_glide_confnum>  (89) 
5

>  <i_i_glide_posenum>  (89) 
7

>  <r_i_glide_eff_state_penalty>  (89) 
0

>  <ligand_id>  (89) 
26

>  <original_smiles>  (89) 
C=C1C2C(C)(C)C3C4CC5(COC(=O)C13Oc1ccc(C)o1)COC42C5=O

>  <smiles>  (89) 
[H]C([H])=C1C2(Oc3oc(C([H])([H])[H])c([H])c3[H])C(=O)OC([H])([H])C34C(=O)C5(OC3([H])[H])C1([H])C(C([H])([H])[H])(C([H])([H])[H])C2([H])C5([H])C4([H])[H]

$$$$
27:0:0
     RDKit          3D

 53 59  0  0  1  0  0  0  0  0999 V2000
    4.0356   -8.0261    5.9067 C   0  0  0  0  0  0  0  0  0  0  0  0
    3.1553   -7.7778    4.6652 C   0  0  0  0  0  0  0  0  0  0  0  0
    2.8275   -6.2590    4.6674 C   0  0  0  0  0  0  0  0  0  0  0  0
    3.8841   -8.3877    3.3922 C   0  0  2  0  0  0  0  0  0  0  0  0
    3.8296   -7.4542    2.1737 C   0  0  0  0  0  0  0  0  0  0  0  0
    2.4339   -7.0729    1.8071 N   0  0  0  0  0  0  0  0  0  0  0  0
    2.1932   -6.0308    0.9678 C   0  0  0  0  0  0  0  0  0  0  0  0
    1.1283   -5.8863    0.3662 O   0  0  0  0  0  0  0  0  0  0  0  0
    3.1893   -5.1309    0.8754 N   0  0  0  0  0  0  0  0  0  0  0  0
    3.1643   -3.9034    0.0783 C   0  0  0  0  0  0  0  0  0  0  0  0
    4.5280   -3.5044   -0.4661 C   0  0  0  0  0  0  0  0  0  0  0  0
    4.7572   -3.4628   -1.8563 C   0  0  0  0  0  0  0  0  0  0  0  0
    6.0128   -3.0562   -2.3254 C   0  0  0  0  0  0  0  0  0  0  0  0
    7.0017   -2.6891   -1.3967 C   0  0  0  0  0  0  0  0  0  0  0  0
    6.6761   -2.7485   -0.0283 C   0  0  0  0  0  0  0  0  0  0  0  0
    5.4772   -3.1553    0.4338 N   0  0  0  0  0  0  0  0  0  0  0  0
    1.4064   -8.1177    2.0724 C   0  0  2  0  0  0  0  0  0  0  0  0
   -0.0460   -7.7167    2.4270 C   0  0  2  0  0  0  0  0  0  0  0  0
   -0.3973   -7.4480    3.9178 C   0  0  1  0  0  0  0  0  0  0  0  0
   -1.7376   -8.0978    3.5710 C   0  0  0  0  0  0  0  0  0  0  0  0
   -0.7569   -9.0133    2.8334 C   0  0  2  0  0  0  0  0  0  0  0  0
    0.3505   -9.6177    3.7158 C   0  0  2  0  0  0  0  0  0  0  0  0
    0.4107   -8.4558    4.7394 C   0  0  1  0  0  0  0  0  0  0  0  0
    1.9127   -8.6599    4.6735 C   0  0  1  0  0  0  0  0  0  0  0  0
    1.7212   -9.1084    3.2233 C   0  0  2  0  0  0  0  0  0  0  0  0
    3.0904   -9.6850    3.0125 C   0  0  0  0  0  0  0  0  0  0  0  0
    4.9335   -7.4080    5.8538 H   0  0  0  0  0  0  0  0  0  0  0  0
    4.3553   -9.0663    5.9704 H   0  0  0  0  0  0  0  0  0  0  0  0
    3.5137   -7.7702    6.8296 H   0  0  0  0  0  0  0  0  0  0  0  0
    2.0186   -5.9844    3.9926 H   0  0  0  0  0  0  0  0  0  0  0  0
    3.6992   -5.6591    4.4065 H   0  0  0  0  0  0  0  0  0  0  0  0
    2.5032   -5.9321    5.6541 H   0  0  0  0  0  0  0  0  0  0  0  0
    4.9222   -8.6393    3.6118 H   0  0  0  0  0  0  0  0  0  0  0  0
    4.4752   -6.5981    2.3898 H   0  0  0  0  0  0  0  0  0  0  0  0
    4.2848   -7.9699    1.3196 H   0  0  0  0  0  0  0  0  0  0  0  0
    4.0423   -5.3069    1.3827 H   0  0  0  0  0  0  0  0  0  0  0  0
    2.4717   -4.0089   -0.7586 H   0  0  0  0  0  0  0  0  0  0  0  0
    2.7827   -3.0954    0.7063 H   0  0  0  0  0  0  0  0  0  0  0  0
    3.9783   -3.7607   -2.5417 H   0  0  0  0  0  0  0  0  0  0  0  0
    6.2189   -3.0523   -3.3855 H   0  0  0  0  0  0  0  0  0  0  0  0
    7.9888   -2.4064   -1.7263 H   0  0  0  0  0  0  0  0  0  0  0  0
    7.4096   -2.4742    0.7179 H   0  0  0  0  0  0  0  0  0  0  0  0
    1.4134   -8.6913    1.1389 H   0  0  0  0  0  0  0  0  0  0  0  0
   -0.6042   -7.1232    1.6954 H   0  0  0  0  0  0  0  0  0  0  0  0
   -0.4374   -6.4068    4.2456 H   0  0  0  0  0  0  0  0  0  0  0  0
   -2.2296   -8.6039    4.3973 H   0  0  0  0  0  0  0  0  0  0  0  0
   -2.4234   -7.5179    2.9472 H   0  0  0  0  0  0  0  0  0  0  0  0
   -1.1319   -9.6025    2.0032 H   0  0  0  0  0  0  0  0  0  0  0  0
    0.2723  -10.6192    4.1397 H   0  0  0  0  0  0  0  0  0  0  0  0
   -0.0348   -8.7232    5.7049 H   0  0  0  0  0  0  0  0  0  0  0  0
    2.0706   -9.5277    5.3246 H   0  0  0  0  0  0  0  0  0  0  0  0
    3.2720  -10.0498    2.0005 H   0  0  0  0  0  0  0  0  0  0  0  0
    3.3006  -10.5064    3.7073 H   0  0  0  0  0  0  0  0  0  0  0  0
  1  2  1  0
  1 27  1  0
  1 28  1  0
  1 29  1  0
  2 24  1  0
  2  3  1  0
  2  4  1  0
  3 30  1  0
  3 31  1  0
  3 32  1  0
  4 26  1  0
  4  5  1  0
  4 33  1  1
  5  6  1  0
  5 34  1  0
  5 35  1  0
  6  7  1  0
  6 17  1  0
  7  8  2  0
  7  9  1  0
  9 10  1  0
  9 36  1  0
 10 11  1  0
 10 37  1  0
 10 38  1  0
 11 16  1  0
 11 12  2  0
 12 13  1  0
 12 39  1  0
 13 14  2  0
 13 40  1  0
 14 15  1  0
 14 41  1  0
 15 16  2  0
 15 42  1  0
 17 25  1  0
 17 18  1  0
 17 43  1  6
 18 21  1  0
 18 19  1  0
 18 44  1  6
 19 23  1  0
 19 20  1  0
 19 45  1  1
 20 21  1  0
 20 46  1  0
 20 47  1  0
 21 22  1  0
 21 48  1  6
 22 25  1  0
 22 23  1  0
 22 49  1  1
 23 24  1  0
 23 50  1  1
 24 25  1  0
 24 51  1  1
 25 26  1  6
 26 52  1  0
 26 53  1  0
M  END
>  <i_m_ct_stereo_status>  (90) 
1

>  <s_m_source_file>  (90) 
/var/tmp/pbs.5076255.sched01/tmpokz5906q/0mijyat0o.sdf

>  <i_m_source_file_index>  (90) 
37

>  <i_lp_mmshare_version>  (90) 
48012

>  <i_f3d_flags>  (90) 
2

>  <s_epik_input>  (90) 
QzEyM1tDQEhdNFtDQEBIXTVbQ0BASF02W0NASF0oW0NAQEhdMVtDQEhdNVtDSDJdNilbQ0BASF0yQyhbQ0gzXSkoW0NIM10pW0NAQEhdKFtDSDJdMylbQ0gyXU40Qyg9TylbTkhdW0NIMl1jN1tjSF1bY0hdW2NIXVtjSF1uNw==

>  <s_epik_cmdline>  (90) 
J2VwaWtfcHl0aG9uJywgJy1waHQnLCAnMi4wJywgJy1waCcsICc3LjAnLCAnLXRuJywgJzgnLCAnLW1hJywgJzIwMCcsICctaW1hZScsICc8aW5maWxlLm1hZT4nLCAnLW9tYWUnLCAnPG91dGZpbGUubWFlPic=

>  <r_epik_Ionization_Penalty>  (90) 
0.0120568

>  <r_epik_Ionization_Penalty_Charging>  (90) 
0

>  <r_epik_Ionization_Penalty_Neutral>  (90) 
0.0120568

>  <r_epik_State_Penalty>  (90) 
0.00925814

>  <r_epik_Charging_Adjusted_Penalty>  (90) 
0.00925814

>  <i_epik_Tot_Q>  (90) 
0

>  <i_epik_Tot_abs_Q>  (90) 
0

>  <s_lp_Force_Field>  (90) 
OPLS3e

>  <r_lp_Energy>  (90) 
149.39

>  <b_lp_Chiralities_Consistent>  (90) 
0

>  <s_lp_Variant>  (90) 
27:0-1

>  <s_i_glide_gridfile>  (90) 
pfpi4k_grid

>  <i_i_glide_lignum>  (90) 
37

>  <i_i_glide_rotatable_bonds>  (90) 
4

>  <r_i_docking_score>  (90) 
-3.26744

>  <r_i_glide_ligand_efficiency>  (90) 
-0.125671

>  <r_i_glide_ligand_efficiency_sa>  (90) 
-0.372299

>  <r_i_glide_ligand_efficiency_ln>  (90) 
-0.767347

>  <r_i_glide_gscore>  (90) 
-3.26744

>  <r_i_glide_lipo>  (90) 
-0.301651

>  <r_i_glide_hbond>  (90) 
-0.169597

>  <r_i_glide_metal>  (90) 
-0

>  <r_i_glide_rewards>  (90) 
-1.02635

>  <r_i_glide_evdw>  (90) 
-26.2355

>  <r_i_glide_ecoul>  (90) 
-5.83571

>  <r_i_glide_erotb>  (90) 
0.467927

>  <r_i_glide_esite>  (90) 
-0.0506381

>  <r_i_glide_emodel>  (90) 
-37.6399

>  <r_i_glide_energy>  (90) 
-32.0712

>  <r_i_glide_einternal>  (90) 
1.87192

>  <r_i_glide_intrahb_reward>  (90) 
-0

>  <i_i_glide_confnum>  (90) 
3

>  <i_i_glide_posenum>  (90) 
36

>  <r_i_glide_eff_state_penalty>  (90) 
0

>  <ligand_id>  (90) 
27

>  <original_smiles>  (90) 
CC1(C)C2CN(C(=O)NCc3ccccn3)C3C4C5CC4C4C5C1C43C2

>  <smiles>  (90) 
[H]c1nc(C([H])([H])N([H])C(=O)N2C([H])([H])C3([H])C([H])([H])C45C2([H])C2([H])C6([H])C([H])([H])C2([H])C4([H])C6([H])C5([H])C3(C([H])([H])[H])C([H])([H])[H])c([H])c([H])c1[H]

$$$$
27:0:1
     RDKit          3D

 53 59  0  0  1  0  0  0  0  0999 V2000
    4.0615   -8.0741    5.8893 C   0  0  0  0  0  0  0  0  0  0  0  0
    3.1648   -7.8163    4.6601 C   0  0  0  0  0  0  0  0  0  0  0  0
    2.8610   -6.2910    4.6639 C   0  0  0  0  0  0  0  0  0  0  0  0
    3.8774   -8.4369    3.3789 C   0  0  2  0  0  0  0  0  0  0  0  0
    3.8202   -7.5025    2.1535 C   0  0  0  0  0  0  0  0  0  0  0  0
    2.4353   -7.1001    1.7987 N   0  0  0  0  0  0  0  0  0  0  0  0
    2.1936   -6.0492    0.9721 C   0  0  0  0  0  0  0  0  0  0  0  0
    1.1143   -5.8618    0.3983 O   0  0  0  0  0  0  0  0  0  0  0  0
    3.2108   -5.1772    0.8507 N   0  0  0  0  0  0  0  0  0  0  0  0
    3.1934   -3.9625    0.0426 C   0  0  0  0  0  0  0  0  0  0  0  0
    4.5715   -3.5511   -0.4647 C   0  0  0  0  0  0  0  0  0  0  0  0
    5.6307   -3.2707    0.4232 C   0  0  0  0  0  0  0  0  0  0  0  0
    6.8791   -2.8801   -0.1144 C   0  0  0  0  0  0  0  0  0  0  0  0
    7.0123   -2.7871   -1.5139 C   0  0  0  0  0  0  0  0  0  0  0  0
    5.8951   -3.0787   -2.3111 C   0  0  0  0  0  0  0  0  0  0  0  0
    4.7002   -3.4511   -1.8038 N   0  0  0  0  0  0  0  0  0  0  0  0
    1.3950   -8.1307    2.0857 C   0  0  2  0  0  0  0  0  0  0  0  0
   -0.0536   -7.7092    2.4464 C   0  0  2  0  0  0  0  0  0  0  0  0
   -0.3868   -7.4450    3.9456 C   0  0  1  0  0  0  0  0  0  0  0  0
   -1.7367   -8.0797    3.6118 C   0  0  0  0  0  0  0  0  0  0  0  0
   -0.7743   -9.0063    2.8581 C   0  0  2  0  0  0  0  0  0  0  0  0
    0.3284   -9.6190    3.7340 C   0  0  2  0  0  0  0  0  0  0  0  0
    0.4169   -8.4594    4.7535 C   0  0  1  0  0  0  0  0  0  0  0  0
    1.9149   -8.6847    4.6793 C   0  0  1  0  0  0  0  0  0  0  0  0
    1.7094   -9.1324    3.2364 C   0  0  2  0  0  0  0  0  0  0  0  0
    3.0650   -9.7246    3.0113 C   0  0  0  0  0  0  0  0  0  0  0  0
    4.9702   -7.4692    5.8346 H   0  0  0  0  0  0  0  0  0  0  0  0
    4.3693   -9.1194    5.9522 H   0  0  0  0  0  0  0  0  0  0  0  0
    3.5522   -7.8159    6.8192 H   0  0  0  0  0  0  0  0  0  0  0  0
    2.0490   -6.0068    3.9995 H   0  0  0  0  0  0  0  0  0  0  0  0
    3.7372   -5.6992    4.3941 H   0  0  0  0  0  0  0  0  0  0  0  0
    2.5506   -5.9608    5.6545 H   0  0  0  0  0  0  0  0  0  0  0  0
    4.9185   -8.6981    3.5839 H   0  0  0  0  0  0  0  0  0  0  0  0
    4.4745   -6.6582    2.3711 H   0  0  0  0  0  0  0  0  0  0  0  0
    4.2648   -8.0203    1.3012 H   0  0  0  0  0  0  0  0  0  0  0  0
    4.0657   -5.3837    1.3463 H   0  0  0  0  0  0  0  0  0  0  0  0
    2.5137   -4.0781   -0.8026 H   0  0  0  0  0  0  0  0  0  0  0  0
    2.7983   -3.1528    0.6538 H   0  0  0  0  0  0  0  0  0  0  0  0
    5.4979   -3.3421    1.4921 H   0  0  0  0  0  0  0  0  0  0  0  0
    7.7153   -2.6649    0.5315 H   0  0  0  0  0  0  0  0  0  0  0  0
    7.9611   -2.5374   -1.9732 H   0  0  0  0  0  0  0  0  0  0  0  0
    5.9603   -3.0430   -3.3888 H   0  0  0  0  0  0  0  0  0  0  0  0
    1.3666   -8.7070    1.1559 H   0  0  0  0  0  0  0  0  0  0  0  0
   -0.6042   -7.1051    1.7177 H   0  0  0  0  0  0  0  0  0  0  0  0
   -0.4029   -6.4061    4.2800 H   0  0  0  0  0  0  0  0  0  0  0  0
   -2.2196   -8.5859    4.4487 H   0  0  0  0  0  0  0  0  0  0  0  0
   -2.4304   -7.4929    3.0067 H   0  0  0  0  0  0  0  0  0  0  0  0
   -1.1690   -9.5914    2.0254 H   0  0  0  0  0  0  0  0  0  0  0  0
    0.2332  -10.6281    4.1341 H   0  0  0  0  0  0  0  0  0  0  0  0
   -0.0278   -8.7182    5.7188 H   0  0  0  0  0  0  0  0  0  0  0  0
    2.0838   -9.5475    5.3320 H   0  0  0  0  0  0  0  0  0  0  0  0
    3.2326  -10.0921    1.9993 H   0  0  0  0  0  0  0  0  0  0  0  0
    3.2748  -10.5441    3.7021 H   0  0  0  0  0  0  0  0  0  0  0  0
  1  2  1  0
  1 27  1  0
  1 28  1  0
  1 29  1  0
  2 24  1  0
  2  3  1  0
  2  4  1  0
  3 30  1  0
  3 31  1  0
  3 32  1  0
  4 26  1  0
  4  5  1  0
  4 33  1  1
  5  6  1  0
  5 34  1  0
  5 35  1  0
  6  7  1  0
  6 17  1  0
  7  8  2  0
  7  9  1  0
  9 10  1  0
  9 36  1  0
 10 11  1  0
 10 37  1  0
 10 38  1  0
 11 16  1  0
 11 12  2  0
 12 13  1  0
 12 39  1  0
 13 14  2  0
 13 40  1  0
 14 15  1  0
 14 41  1  0
 15 16  2  0
 15 42  1  0
 17 25  1  0
 17 18  1  0
 17 43  1  6
 18 21  1  0
 18 19  1  0
 18 44  1  6
 19 23  1  0
 19 20  1  0
 19 45  1  1
 20 21  1  0
 20 46  1  0
 20 47  1  0
 21 22  1  0
 21 48  1  6
 22 25  1  0
 22 23  1  0
 22 49  1  1
 23 24  1  0
 23 50  1  1
 24 25  1  0
 24 51  1  1
 25 26  1  6
 26 52  1  0
 26 53  1  0
M  END
>  <i_m_ct_stereo_status>  (91) 
1

>  <s_m_source_file>  (91) 
/var/tmp/pbs.5076255.sched01/tmpokz5906q/0mijyat0o.sdf

>  <i_m_source_file_index>  (91) 
37

>  <i_lp_mmshare_version>  (91) 
48012

>  <i_f3d_flags>  (91) 
2

>  <s_epik_input>  (91) 
QzEyM1tDQEhdNFtDQEBIXTVbQ0BASF02W0NASF0oW0NAQEhdMVtDQEhdNVtDSDJdNilbQ0BASF0yQyhbQ0gzXSkoW0NIM10pW0NAQEhdKFtDSDJdMylbQ0gyXU40Qyg9TylbTkhdW0NIMl1jN1tjSF1bY0hdW2NIXVtjSF1uNw==

>  <s_epik_cmdline>  (91) 
J2VwaWtfcHl0aG9uJywgJy1waHQnLCAnMi4wJywgJy1waCcsICc3LjAnLCAnLXRuJywgJzgnLCAnLW1hJywgJzIwMCcsICctaW1hZScsICc8aW5maWxlLm1hZT4nLCAnLW9tYWUnLCAnPG91dGZpbGUubWFlPic=

>  <r_epik_Ionization_Penalty>  (91) 
0.0120568

>  <r_epik_Ionization_Penalty_Charging>  (91) 
0

>  <r_epik_Ionization_Penalty_Neutral>  (91) 
0.0120568

>  <r_epik_State_Penalty>  (91) 
0.00925814

>  <r_epik_Charging_Adjusted_Penalty>  (91) 
0.00925814

>  <i_epik_Tot_Q>  (91) 
0

>  <i_epik_Tot_abs_Q>  (91) 
0

>  <s_lp_Force_Field>  (91) 
OPLS3e

>  <r_lp_Energy>  (91) 
149.39

>  <b_lp_Chiralities_Consistent>  (91) 
0

>  <s_lp_Variant>  (91) 
27:0-1

>  <s_i_glide_gridfile>  (91) 
pfpi4k_grid

>  <i_i_glide_lignum>  (91) 
37

>  <i_i_glide_rotatable_bonds>  (91) 
4

>  <r_i_docking_score>  (91) 
-3.17503

>  <r_i_glide_ligand_efficiency>  (91) 
-0.122117

>  <r_i_glide_ligand_efficiency_sa>  (91) 
-0.36177

>  <r_i_glide_ligand_efficiency_ln>  (91) 
-0.745646

>  <r_i_glide_gscore>  (91) 
-3.17503

>  <r_i_glide_lipo>  (91) 
-0.343879

>  <r_i_glide_hbond>  (91) 
-0.16

>  <r_i_glide_metal>  (91) 
-0

>  <r_i_glide_rewards>  (91) 
-1.02635

>  <r_i_glide_evdw>  (91) 
-26.148

>  <r_i_glide_ecoul>  (91) 
-5.03317

>  <r_i_glide_erotb>  (91) 
0.467927

>  <r_i_glide_esite>  (91) 
-0.0503612

>  <r_i_glide_emodel>  (91) 
-36.6088

>  <r_i_glide_energy>  (91) 
-31.1812

>  <r_i_glide_einternal>  (91) 
1.75983

>  <r_i_glide_intrahb_reward>  (91) 
-0

>  <i_i_glide_confnum>  (91) 
3

>  <i_i_glide_posenum>  (91) 
1

>  <r_i_glide_eff_state_penalty>  (91) 
0

>  <ligand_id>  (91) 
27

>  <original_smiles>  (91) 
CC1(C)C2CN(C(=O)NCc3ccccn3)C3C4C5CC4C4C5C1C43C2

>  <smiles>  (91) 
[H]c1nc(C([H])([H])N([H])C(=O)N2C([H])([H])C3([H])C([H])([H])C45C2([H])C2([H])C6([H])C([H])([H])C2([H])C4([H])C6([H])C5([H])C3(C([H])([H])[H])C([H])([H])[H])c([H])c([H])c1[H]

$$$$
27:0:2
     RDKit          3D

 53 59  0  0  1  0  0  0  0  0999 V2000
    4.0013   -8.6212    5.3589 C   0  0  0  0  0  0  0  0  0  0  0  0
    3.1364   -8.0955    4.1947 C   0  0  0  0  0  0  0  0  0  0  0  0
    2.9826   -6.5662    4.4346 C   0  0  0  0  0  0  0  0  0  0  0  0
    3.7891   -8.5796    2.8272 C   0  0  2  0  0  0  0  0  0  0  0  0
    3.8214   -7.4653    1.7615 C   0  0  0  0  0  0  0  0  0  0  0  0
    2.4825   -6.8837    1.5095 N   0  0  0  0  0  0  0  0  0  0  0  0
    2.3691   -5.7387    0.8047 C   0  0  0  0  0  0  0  0  0  0  0  0
    1.4139   -5.4905    0.0720 O   0  0  0  0  0  0  0  0  0  0  0  0
    3.3180   -4.8263    1.0648 N   0  0  0  0  0  0  0  0  0  0  0  0
    3.3333   -3.4474    0.5762 C   0  0  0  0  0  0  0  0  0  0  0  0
    3.6609   -3.3122   -0.9022 C   0  0  0  0  0  0  0  0  0  0  0  0
    2.6320   -3.0971   -1.8385 C   0  0  0  0  0  0  0  0  0  0  0  0
    2.9590   -2.9738   -3.1988 C   0  0  0  0  0  0  0  0  0  0  0  0
    4.3144   -3.0560   -3.5665 C   0  0  0  0  0  0  0  0  0  0  0  0
    5.2741   -3.2631   -2.5585 C   0  0  0  0  0  0  0  0  0  0  0  0
    4.9673   -3.3876   -1.2502 N   0  0  0  0  0  0  0  0  0  0  0  0
    1.3484   -7.8443    1.6262 C   0  0  2  0  0  0  0  0  0  0  0  0
   -0.0487   -7.3446    2.0635 C   0  0  2  0  0  0  0  0  0  0  0  0
   -0.3568   -7.2774    3.5870 C   0  0  1  0  0  0  0  0  0  0  0  0
   -1.7601   -7.7378    3.1902 C   0  0  0  0  0  0  0  0  0  0  0  0
   -0.8942   -8.6145    2.2876 C   0  0  2  0  0  0  0  0  0  0  0  0
    0.1419   -9.4574    3.0441 C   0  0  2  0  0  0  0  0  0  0  0  0
    0.3422   -8.4756    4.2248 C   0  0  1  0  0  0  0  0  0  0  0  0
    1.8091   -8.8329    4.0945 C   0  0  1  0  0  0  0  0  0  0  0  0
    1.5622   -9.0350    2.6043 C   0  0  2  0  0  0  0  0  0  0  0  0
    2.8553   -9.7117    2.2768 C   0  0  0  0  0  0  0  0  0  0  0  0
    4.9644   -8.1046    5.3826 H   0  0  0  0  0  0  0  0  0  0  0  0
    4.2063   -9.6881    5.2603 H   0  0  0  0  0  0  0  0  0  0  0  0
    3.5186   -8.4571    6.3230 H   0  0  0  0  0  0  0  0  0  0  0  0
    2.2014   -6.1049    3.8361 H   0  0  0  0  0  0  0  0  0  0  0  0
    3.9125   -6.0282    4.2419 H   0  0  0  0  0  0  0  0  0  0  0  0
    2.7056   -6.3609    5.4674 H   0  0  0  0  0  0  0  0  0  0  0  0
    4.7997   -8.9685    2.9735 H   0  0  0  0  0  0  0  0  0  0  0  0
    4.5638   -6.7285    2.0718 H   0  0  0  0  0  0  0  0  0  0  0  0
    4.1962   -7.8876    0.8271 H   0  0  0  0  0  0  0  0  0  0  0  0
    4.0558   -5.0949    1.6917 H   0  0  0  0  0  0  0  0  0  0  0  0
    2.3701   -2.9768    0.7765 H   0  0  0  0  0  0  0  0  0  0  0  0
    4.0700   -2.8843    1.1523 H   0  0  0  0  0  0  0  0  0  0  0  0
    1.6019   -3.0567   -1.5211 H   0  0  0  0  0  0  0  0  0  0  0  0
    2.1846   -2.8295   -3.9373 H   0  0  0  0  0  0  0  0  0  0  0  0
    4.6082   -2.9804   -4.5977 H   0  0  0  0  0  0  0  0  0  0  0  0
    6.3224   -3.3259   -2.8167 H   0  0  0  0  0  0  0  0  0  0  0  0
    1.2549   -8.2469    0.6149 H   0  0  0  0  0  0  0  0  0  0  0  0
   -0.5299   -6.5828    1.4402 H   0  0  0  0  0  0  0  0  0  0  0  0
   -0.2771   -6.3063    4.0761 H   0  0  0  0  0  0  0  0  0  0  0  0
   -2.2922   -8.3088    3.9526 H   0  0  0  0  0  0  0  0  0  0  0  0
   -2.4054   -7.0478    2.6541 H   0  0  0  0  0  0  0  0  0  0  0  0
   -1.3693   -9.0219    1.3944 H   0  0  0  0  0  0  0  0  0  0  0  0
   -0.0537  -10.4990    3.2923 H   0  0  0  0  0  0  0  0  0  0  0  0
   -0.1261   -8.8331    5.1454 H   0  0  0  0  0  0  0  0  0  0  0  0
    1.8870   -9.7944    4.6095 H   0  0  0  0  0  0  0  0  0  0  0  0
    2.9888   -9.9368    1.2193 H   0  0  0  0  0  0  0  0  0  0  0  0
    2.9811  -10.6413    2.8323 H   0  0  0  0  0  0  0  0  0  0  0  0
  1  2  1  0
  1 27  1  0
  1 28  1  0
  1 29  1  0
  2 24  1  0
  2  3  1  0
  2  4  1  0
  3 30  1  0
  3 31  1  0
  3 32  1  0
  4 26  1  0
  4  5  1  0
  4 33  1  1
  5  6  1  0
  5 34  1  0
  5 35  1  0
  6  7  1  0
  6 17  1  0
  7  8  2  0
  7  9  1  0
  9 10  1  0
  9 36  1  0
 10 11  1  0
 10 37  1  0
 10 38  1  0
 11 16  1  0
 11 12  2  0
 12 13  1  0
 12 39  1  0
 13 14  2  0
 13 40  1  0
 14 15  1  0
 14 41  1  0
 15 16  2  0
 15 42  1  0
 17 25  1  0
 17 18  1  0
 17 43  1  6
 18 21  1  0
 18 19  1  0
 18 44  1  6
 19 23  1  0
 19 20  1  0
 19 45  1  1
 20 21  1  0
 20 46  1  0
 20 47  1  0
 21 22  1  0
 21 48  1  6
 22 25  1  0
 22 23  1  0
 22 49  1  1
 23 24  1  0
 23 50  1  1
 24 25  1  0
 24 51  1  1
 25 26  1  6
 26 52  1  0
 26 53  1  0
M  END
>  <i_m_ct_stereo_status>  (92) 
1

>  <s_m_source_file>  (92) 
/var/tmp/pbs.5076255.sched01/tmpokz5906q/0mijyat0o.sdf

>  <i_m_source_file_index>  (92) 
37

>  <i_lp_mmshare_version>  (92) 
48012

>  <i_f3d_flags>  (92) 
2

>  <s_epik_input>  (92) 
QzEyM1tDQEhdNFtDQEBIXTVbQ0BASF02W0NASF0oW0NAQEhdMVtDQEhdNVtDSDJdNilbQ0BASF0yQyhbQ0gzXSkoW0NIM10pW0NAQEhdKFtDSDJdMylbQ0gyXU40Qyg9TylbTkhdW0NIMl1jN1tjSF1bY0hdW2NIXVtjSF1uNw==

>  <s_epik_cmdline>  (92) 
J2VwaWtfcHl0aG9uJywgJy1waHQnLCAnMi4wJywgJy1waCcsICc3LjAnLCAnLXRuJywgJzgnLCAnLW1hJywgJzIwMCcsICctaW1hZScsICc8aW5maWxlLm1hZT4nLCAnLW9tYWUnLCAnPG91dGZpbGUubWFlPic=

>  <r_epik_Ionization_Penalty>  (92) 
0.0120568

>  <r_epik_Ionization_Penalty_Charging>  (92) 
0

>  <r_epik_Ionization_Penalty_Neutral>  (92) 
0.0120568

>  <r_epik_State_Penalty>  (92) 
0.00925814

>  <r_epik_Charging_Adjusted_Penalty>  (92) 
0.00925814

>  <i_epik_Tot_Q>  (92) 
0

>  <i_epik_Tot_abs_Q>  (92) 
0

>  <s_lp_Force_Field>  (92) 
OPLS3e

>  <r_lp_Energy>  (92) 
149.39

>  <b_lp_Chiralities_Consistent>  (92) 
0

>  <s_lp_Variant>  (92) 
27:0-1

>  <s_i_glide_gridfile>  (92) 
pfpi4k_grid

>  <i_i_glide_lignum>  (92) 
37

>  <i_i_glide_rotatable_bonds>  (92) 
4

>  <r_i_docking_score>  (92) 
-3.1246

>  <r_i_glide_ligand_efficiency>  (92) 
-0.120177

>  <r_i_glide_ligand_efficiency_sa>  (92) 
-0.356024

>  <r_i_glide_ligand_efficiency_ln>  (92) 
-0.733802

>  <r_i_glide_gscore>  (92) 
-3.1246

>  <r_i_glide_lipo>  (92) 
-0.64593

>  <r_i_glide_hbond>  (92) 
-0.117785

>  <r_i_glide_metal>  (92) 
-0

>  <r_i_glide_rewards>  (92) 
-1.02635

>  <r_i_glide_evdw>  (92) 
-28.0005

>  <r_i_glide_ecoul>  (92) 
-2.37191

>  <r_i_glide_erotb>  (92) 
0.467927

>  <r_i_glide_esite>  (92) 
-0.0466542

>  <r_i_glide_emodel>  (92) 
-36.0738

>  <r_i_glide_energy>  (92) 
-30.3724

>  <r_i_glide_einternal>  (92) 
0.949268

>  <r_i_glide_intrahb_reward>  (92) 
-0

>  <i_i_glide_confnum>  (92) 
3

>  <i_i_glide_posenum>  (92) 
10

>  <r_i_glide_eff_state_penalty>  (92) 
0

>  <ligand_id>  (92) 
27

>  <original_smiles>  (92) 
CC1(C)C2CN(C(=O)NCc3ccccn3)C3C4C5CC4C4C5C1C43C2

>  <smiles>  (92) 
[H]c1nc(C([H])([H])N([H])C(=O)N2C([H])([H])C3([H])C([H])([H])C45C2([H])C2([H])C6([H])C([H])([H])C2([H])C4([H])C6([H])C5([H])C3(C([H])([H])[H])C([H])([H])[H])c([H])c([H])c1[H]

$$$$
27:1:0
     RDKit          3D

 54 60  0  0  1  0  0  0  0  0999 V2000
    5.3415   -8.6094    4.6053 C   0  0  0  0  0  0  0  0  0  0  0  0
    4.2017   -8.1029    3.7033 C   0  0  0  0  0  0  0  0  0  0  0  0
    4.0403   -6.5894    4.0177 C   0  0  0  0  0  0  0  0  0  0  0  0
    4.5205   -8.5323    2.2081 C   0  0  2  0  0  0  0  0  0  0  0  0
    4.2421   -7.4032    1.1967 C   0  0  0  0  0  0  0  0  0  0  0  0
    2.8495   -6.8949    1.2914 N   0  0  0  0  0  0  0  0  0  0  0  0
    2.5217   -5.7175    0.7114 C   0  0  0  0  0  0  0  0  0  0  0  0
    1.4157   -5.4725    0.2421 O   0  0  0  0  0  0  0  0  0  0  0  0
    3.4709   -4.7666    0.7855 N   0  0  0  0  0  0  0  0  0  0  0  0
    3.2261   -3.3264    0.6735 C   0  0  0  0  0  0  0  0  0  0  0  0
    3.2918   -2.7607   -0.7398 C   0  0  0  0  0  0  0  0  0  0  0  0
    3.9041   -1.5291   -1.0312 C   0  0  0  0  0  0  0  0  0  0  0  0
    3.9047   -1.0537   -2.3613 C   0  0  0  0  0  0  0  0  0  0  0  0
    3.2921   -1.8268   -3.3703 C   0  0  0  0  0  0  0  0  0  0  0  0
    2.6921   -3.0457   -3.0251 C   0  0  0  0  0  0  0  0  0  0  0  0
    2.7089   -3.4543   -1.7413 N   0  0  0  0  0  0  0  0  0  0  0  0
    1.8208   -7.9109    1.6489 C   0  0  2  0  0  0  0  0  0  0  0  0
    0.5554   -7.4858    2.4247 C   0  0  2  0  0  0  0  0  0  0  0  0
    0.6181   -7.4618    3.9798 C   0  0  1  0  0  0  0  0  0  0  0  0
   -0.8239   -7.9664    3.9101 C   0  0  0  0  0  0  0  0  0  0  0  0
   -0.1524   -8.7997    2.8142 C   0  0  2  0  0  0  0  0  0  0  0  0
    1.0729   -9.5980    3.2701 C   0  0  2  0  0  0  0  0  0  0  0  0
    1.5074   -8.6292    4.3963 C   0  0  1  0  0  0  0  0  0  0  0  0
    2.9159   -8.9015    3.9068 C   0  0  1  0  0  0  0  0  0  0  0  0
    2.3232   -9.0935    2.5145 C   0  0  2  0  0  0  0  0  0  0  0  0
    3.5290   -9.6931    1.8659 C   0  0  0  0  0  0  0  0  0  0  0  0
    6.2538   -8.0420    4.4151 H   0  0  0  0  0  0  0  0  0  0  0  0
    5.5658   -9.6607    4.4200 H   0  0  0  0  0  0  0  0  0  0  0  0
    5.0976   -8.4945    5.6629 H   0  0  0  0  0  0  0  0  0  0  0  0
    3.1104   -6.1607    3.6514 H   0  0  0  0  0  0  0  0  0  0  0  0
    4.8641   -6.0017    3.6129 H   0  0  0  0  0  0  0  0  0  0  0  0
    4.0267   -6.4165    5.0937 H   0  0  0  0  0  0  0  0  0  0  0  0
    5.5527   -8.8706    2.0912 H   0  0  0  0  0  0  0  0  0  0  0  0
    5.0049   -6.6343    1.3327 H   0  0  0  0  0  0  0  0  0  0  0  0
    4.3895   -7.7867    0.1889 H   0  0  0  0  0  0  0  0  0  0  0  0
    4.3961   -5.0528    1.0884 H   0  0  0  0  0  0  0  0  0  0  0  0
    2.2568   -3.0693    1.1095 H   0  0  0  0  0  0  0  0  0  0  0  0
    3.9697   -2.8226    1.2880 H   0  0  0  0  0  0  0  0  0  0  0  0
    4.3350   -0.9248   -0.2430 H   0  0  0  0  0  0  0  0  0  0  0  0
    4.3387   -0.0998   -2.6040 H   0  0  0  0  0  0  0  0  0  0  0  0
    3.2703   -1.4759   -4.3904 H   0  0  0  0  0  0  0  0  0  0  0  0
    2.2148   -3.7154   -3.7244 H   0  0  0  0  0  0  0  0  0  0  0  0
    1.4808   -8.3093    0.6958 H   0  0  0  0  0  0  0  0  0  0  0  0
   -0.0937   -6.7430    1.9618 H   0  0  0  0  0  0  0  0  0  0  0  0
    0.7658   -6.4903    4.4492 H   0  0  0  0  0  0  0  0  0  0  0  0
   -1.1302   -8.5798    4.7576 H   0  0  0  0  0  0  0  0  0  0  0  0
   -1.5917   -7.2571    3.5933 H   0  0  0  0  0  0  0  0  0  0  0  0
   -0.7874   -9.2165    2.0359 H   0  0  0  0  0  0  0  0  0  0  0  0
    1.0014  -10.6563    3.5309 H   0  0  0  0  0  0  0  0  0  0  0  0
    1.2973   -9.0218    5.3936 H   0  0  0  0  0  0  0  0  0  0  0  0
    3.1501   -9.8714    4.3590 H   0  0  0  0  0  0  0  0  0  0  0  0
    3.4084   -9.8666    0.7952 H   0  0  0  0  0  0  0  0  0  0  0  0
    3.8290  -10.6295    2.3411 H   0  0  0  0  0  0  0  0  0  0  0  0
    2.2739   -4.3551   -1.5164 H   0  0  0  0  0  0  0  0  0  0  0  0
  1  2  1  0
  1 27  1  0
  1 28  1  0
  1 29  1  0
  2 24  1  0
  2  3  1  0
  2  4  1  0
  3 30  1  0
  3 31  1  0
  3 32  1  0
  4 26  1  0
  4  5  1  0
  4 33  1  1
  5  6  1  0
  5 34  1  0
  5 35  1  0
  6  7  1  0
  6 17  1  0
  7  8  2  0
  7  9  1  0
  9 10  1  0
  9 36  1  0
 10 11  1  0
 10 37  1  0
 10 38  1  0
 11 16  1  0
 11 12  2  0
 12 13  1  0
 12 39  1  0
 13 14  2  0
 13 40  1  0
 14 15  1  0
 14 41  1  0
 15 16  2  0
 15 42  1  0
 16 54  1  0
 17 25  1  0
 17 18  1  0
 17 43  1  6
 18 21  1  0
 18 19  1  0
 18 44  1  6
 19 23  1  0
 19 20  1  0
 19 45  1  6
 20 21  1  0
 20 46  1  0
 20 47  1  0
 21 22  1  0
 21 48  1  6
 22 25  1  0
 22 23  1  0
 22 49  1  1
 23 24  1  0
 23 50  1  1
 24 25  1  0
 24 51  1  1
 25 26  1  6
 26 52  1  0
 26 53  1  0
M  CHG  1  16   1
M  END
>  <i_m_ct_stereo_status>  (93) 
1

>  <s_m_source_file>  (93) 
/var/tmp/pbs.5076255.sched01/tmpokz5906q/0mijyat0o.sdf

>  <i_m_source_file_index>  (93) 
38

>  <i_lp_mmshare_version>  (93) 
48012

>  <i_f3d_flags>  (93) 
2

>  <s_epik_input>  (93) 
QzEyM1tDQEhdNFtDQEBIXTVbQ0BASF02W0NASF0oW0NAQEhdMVtDQEhdNVtDSDJdNilbQ0BASF0yQyhbQ0gzXSkoW0NIM10pW0NAQEhdKFtDSDJdMylbQ0gyXU40Qyg9TylbTkhdW0NIMl1jN1tjSF1bY0hdW2NIXVtjSF1uNw==

>  <s_epik_cmdline>  (93) 
J2VwaWtfcHl0aG9uJywgJy1waHQnLCAnMi4wJywgJy1waCcsICc3LjAnLCAnLXRuJywgJzgnLCAnLW1hJywgJzIwMCcsICctaW1hZScsICc8aW5maWxlLm1hZT4nLCAnLW9tYWUnLCAnPG91dGZpbGUubWFlPic=

>  <r_epik_Ionization_Penalty>  (93) 
2.31684

>  <r_epik_Ionization_Penalty_Charging>  (93) 
2.31679

>  <r_epik_Ionization_Penalty_Neutral>  (93) 
5.1319e-05

>  <r_epik_State_Penalty>  (93) 
2.46867

>  <r_epik_Charging_Adjusted_Penalty>  (93) 
4.78546

>  <i_epik_Tot_Q>  (93) 
1

>  <i_epik_Tot_abs_Q>  (93) 
1

>  <s_lp_Force_Field>  (93) 
OPLS3e

>  <r_lp_Energy>  (93) 
153.261

>  <b_lp_Chiralities_Consistent>  (93) 
0

>  <s_lp_Variant>  (93) 
27:0-2

>  <s_i_glide_gridfile>  (93) 
pfpi4k_grid

>  <i_i_glide_lignum>  (93) 
38

>  <i_i_glide_rotatable_bonds>  (93) 
4

>  <r_i_docking_score>  (93) 
-3.87776

>  <r_i_glide_ligand_efficiency>  (93) 
-0.149145

>  <r_i_glide_ligand_efficiency_sa>  (93) 
-0.441841

>  <r_i_glide_ligand_efficiency_ln>  (93) 
-0.91068

>  <r_i_glide_gscore>  (93) 
-3.87776

>  <r_i_glide_lipo>  (93) 
-0.343954

>  <r_i_glide_hbond>  (93) 
-0.12082

>  <r_i_glide_metal>  (93) 
-0

>  <r_i_glide_rewards>  (93) 
-1.55106

>  <r_i_glide_evdw>  (93) 
-25.021

>  <r_i_glide_ecoul>  (93) 
-6.92084

>  <r_i_glide_erotb>  (93) 
0.465538

>  <r_i_glide_esite>  (93) 
-0.0382925

>  <r_i_glide_emodel>  (93) 
-44.8078

>  <r_i_glide_energy>  (93) 
-31.9418

>  <r_i_glide_einternal>  (93) 
2.50096

>  <r_i_glide_intrahb_reward>  (93) 
-0.5

>  <i_i_glide_confnum>  (93) 
5

>  <i_i_glide_posenum>  (93) 
27

>  <r_i_glide_eff_state_penalty>  (93) 
0

>  <ligand_id>  (93) 
27

>  <original_smiles>  (93) 
CC1(C)C2CN(C(=O)NCc3ccccn3)C3C4C5CC4C4C5C1C43C2

>  <smiles>  (93) 
[H]c1c([H])c([H])[n+]([H])c(C([H])([H])N([H])C(=O)N2C([H])([H])C3([H])C([H])([H])C45C2([H])C2([H])C6([H])C([H])([H])C2([H])C4([H])C6([H])C5([H])C3(C([H])([H])[H])C([H])([H])[H])c1[H]

$$$$
27:1:1
     RDKit          3D

 54 60  0  0  1  0  0  0  0  0999 V2000
    3.9308   -8.8388    5.3851 C   0  0  0  0  0  0  0  0  0  0  0  0
    3.0908   -8.2563    4.2324 C   0  0  0  0  0  0  0  0  0  0  0  0
    2.9547   -6.7350    4.5259 C   0  0  0  0  0  0  0  0  0  0  0  0
    3.7499   -8.7002    2.8559 C   0  0  2  0  0  0  0  0  0  0  0  0
    3.8073   -7.5481    1.8286 C   0  0  0  0  0  0  0  0  0  0  0  0
    2.4740   -6.9409    1.5886 N   0  0  0  0  0  0  0  0  0  0  0  0
    2.3665   -5.7567    0.9435 C   0  0  0  0  0  0  0  0  0  0  0  0
    1.4396   -5.4687    0.1879 O   0  0  0  0  0  0  0  0  0  0  0  0
    3.2776   -4.8413    1.3302 N   0  0  0  0  0  0  0  0  0  0  0  0
    3.2210   -3.4162    1.0182 C   0  0  0  0  0  0  0  0  0  0  0  0
    3.7637   -3.0610   -0.3568 C   0  0  0  0  0  0  0  0  0  0  0  0
    5.0126   -3.5268   -0.8336 C   0  0  0  0  0  0  0  0  0  0  0  0
    5.4363   -3.1595   -2.1291 C   0  0  0  0  0  0  0  0  0  0  0  0
    4.6088   -2.3412   -2.9162 C   0  0  0  0  0  0  0  0  0  0  0  0
    3.3845   -1.8949   -2.3915 C   0  0  0  0  0  0  0  0  0  0  0  0
    3.0122   -2.2631   -1.1526 N   0  0  0  0  0  0  0  0  0  0  0  0
    1.3343   -7.8872    1.6489 C   0  0  2  0  0  0  0  0  0  0  0  0
   -0.0612   -7.3898    2.0855 C   0  0  2  0  0  0  0  0  0  0  0  0
   -0.3894   -7.3710    3.6040 C   0  0  1  0  0  0  0  0  0  0  0  0
   -1.7914   -7.7934    3.1705 C   0  0  0  0  0  0  0  0  0  0  0  0
   -0.9238   -8.6532    2.2541 C   0  0  2  0  0  0  0  0  0  0  0  0
    0.0893   -9.5337    2.9929 C   0  0  2  0  0  0  0  0  0  0  0  0
    0.2851   -8.5977    4.2116 C   0  0  1  0  0  0  0  0  0  0  0  0
    1.7505   -8.9674    4.0875 C   0  0  1  0  0  0  0  0  0  0  0  0
    1.5194   -9.1152    2.5880 C   0  0  2  0  0  0  0  0  0  0  0  0
    2.8088   -9.8002    2.2556 C   0  0  0  0  0  0  0  0  0  0  0  0
    4.8976   -8.3358    5.4453 H   0  0  0  0  0  0  0  0  0  0  0  0
    4.1258   -9.9028    5.2459 H   0  0  0  0  0  0  0  0  0  0  0  0
    3.4354   -8.7110    6.3486 H   0  0  0  0  0  0  0  0  0  0  0  0
    2.1785   -6.2434    3.9454 H   0  0  0  0  0  0  0  0  0  0  0  0
    3.8906   -6.2033    4.3536 H   0  0  0  0  0  0  0  0  0  0  0  0
    2.6809   -6.5631    5.5661 H   0  0  0  0  0  0  0  0  0  0  0  0
    4.7540   -9.1073    2.9989 H   0  0  0  0  0  0  0  0  0  0  0  0
    4.5578   -6.8301    2.1617 H   0  0  0  0  0  0  0  0  0  0  0  0
    4.1793   -7.9439    0.8855 H   0  0  0  0  0  0  0  0  0  0  0  0
    3.9781   -5.1435    1.9891 H   0  0  0  0  0  0  0  0  0  0  0  0
    2.1951   -3.0597    1.1275 H   0  0  0  0  0  0  0  0  0  0  0  0
    3.8006   -2.8727    1.7648 H   0  0  0  0  0  0  0  0  0  0  0  0
    5.6395   -4.1578   -0.2144 H   0  0  0  0  0  0  0  0  0  0  0  0
    6.3880   -3.4936   -2.5247 H   0  0  0  0  0  0  0  0  0  0  0  0
    4.8877   -2.0500   -3.9186 H   0  0  0  0  0  0  0  0  0  0  0  0
    2.6767   -1.2693   -2.9153 H   0  0  0  0  0  0  0  0  0  0  0  0
    1.2570   -8.2363    0.6192 H   0  0  0  0  0  0  0  0  0  0  0  0
   -0.5240   -6.6057    1.4819 H   0  0  0  0  0  0  0  0  0  0  0  0
   -0.3055   -6.4181    4.1223 H   0  0  0  0  0  0  0  0  0  0  0  0
   -2.3392   -8.3831    3.9050 H   0  0  0  0  0  0  0  0  0  0  0  0
   -2.4193   -7.0569    2.6686 H   0  0  0  0  0  0  0  0  0  0  0  0
   -1.3845   -9.0216    1.3396 H   0  0  0  0  0  0  0  0  0  0  0  0
   -0.1206  -10.5842    3.2034 H   0  0  0  0  0  0  0  0  0  0  0  0
   -0.2024   -8.9792    5.1126 H   0  0  0  0  0  0  0  0  0  0  0  0
    1.8000   -9.9489    4.5716 H   0  0  0  0  0  0  0  0  0  0  0  0
    2.9531   -9.9969    1.1921 H   0  0  0  0  0  0  0  0  0  0  0  0
    2.9146  -10.7479    2.7851 H   0  0  0  0  0  0  0  0  0  0  0  0
    2.1052   -1.8820   -0.8141 H   0  0  0  0  0  0  0  0  0  0  0  0
  1  2  1  0
  1 27  1  0
  1 28  1  0
  1 29  1  0
  2 24  1  0
  2  3  1  0
  2  4  1  0
  3 30  1  0
  3 31  1  0
  3 32  1  0
  4 26  1  0
  4  5  1  0
  4 33  1  1
  5  6  1  0
  5 34  1  0
  5 35  1  0
  6  7  1  0
  6 17  1  0
  7  8  2  0
  7  9  1  0
  9 10  1  0
  9 36  1  0
 10 11  1  0
 10 37  1  0
 10 38  1  0
 11 16  1  0
 11 12  2  0
 12 13  1  0
 12 39  1  0
 13 14  2  0
 13 40  1  0
 14 15  1  0
 14 41  1  0
 15 16  2  0
 15 42  1  0
 16 54  1  0
 17 25  1  0
 17 18  1  0
 17 43  1  6
 18 21  1  0
 18 19  1  0
 18 44  1  6
 19 23  1  0
 19 20  1  0
 19 45  1  1
 20 21  1  0
 20 46  1  0
 20 47  1  0
 21 22  1  0
 21 48  1  6
 22 25  1  0
 22 23  1  0
 22 49  1  1
 23 24  1  0
 23 50  1  1
 24 25  1  0
 24 51  1  1
 25 26  1  6
 26 52  1  0
 26 53  1  0
M  CHG  1  16   1
M  END
>  <i_m_ct_stereo_status>  (94) 
1

>  <s_m_source_file>  (94) 
/var/tmp/pbs.5076255.sched01/tmpokz5906q/0mijyat0o.sdf

>  <i_m_source_file_index>  (94) 
38

>  <i_lp_mmshare_version>  (94) 
48012

>  <i_f3d_flags>  (94) 
2

>  <s_epik_input>  (94) 
QzEyM1tDQEhdNFtDQEBIXTVbQ0BASF02W0NASF0oW0NAQEhdMVtDQEhdNVtDSDJdNilbQ0BASF0yQyhbQ0gzXSkoW0NIM10pW0NAQEhdKFtDSDJdMylbQ0gyXU40Qyg9TylbTkhdW0NIMl1jN1tjSF1bY0hdW2NIXVtjSF1uNw==

>  <s_epik_cmdline>  (94) 
J2VwaWtfcHl0aG9uJywgJy1waHQnLCAnMi4wJywgJy1waCcsICc3LjAnLCAnLXRuJywgJzgnLCAnLW1hJywgJzIwMCcsICctaW1hZScsICc8aW5maWxlLm1hZT4nLCAnLW9tYWUnLCAnPG91dGZpbGUubWFlPic=

>  <r_epik_Ionization_Penalty>  (94) 
2.31684

>  <r_epik_Ionization_Penalty_Charging>  (94) 
2.31679

>  <r_epik_Ionization_Penalty_Neutral>  (94) 
5.1319e-05

>  <r_epik_State_Penalty>  (94) 
2.46867

>  <r_epik_Charging_Adjusted_Penalty>  (94) 
4.78546

>  <i_epik_Tot_Q>  (94) 
1

>  <i_epik_Tot_abs_Q>  (94) 
1

>  <s_lp_Force_Field>  (94) 
OPLS3e

>  <r_lp_Energy>  (94) 
153.261

>  <b_lp_Chiralities_Consistent>  (94) 
0

>  <s_lp_Variant>  (94) 
27:0-2

>  <s_i_glide_gridfile>  (94) 
pfpi4k_grid

>  <i_i_glide_lignum>  (94) 
38

>  <i_i_glide_rotatable_bonds>  (94) 
4

>  <r_i_docking_score>  (94) 
-3.76875

>  <r_i_glide_ligand_efficiency>  (94) 
-0.144952

>  <r_i_glide_ligand_efficiency_sa>  (94) 
-0.42942

>  <r_i_glide_ligand_efficiency_ln>  (94) 
-0.88508

>  <r_i_glide_gscore>  (94) 
-3.76875

>  <r_i_glide_lipo>  (94) 
-0.377478

>  <r_i_glide_hbond>  (94) 
-0.318172

>  <r_i_glide_metal>  (94) 
-0

>  <r_i_glide_rewards>  (94) 
-1.01947

>  <r_i_glide_evdw>  (94) 
-25.2785

>  <r_i_glide_ecoul>  (94) 
-7.55199

>  <r_i_glide_erotb>  (94) 
0.465538

>  <r_i_glide_esite>  (94) 
-0.122445

>  <r_i_glide_emodel>  (94) 
-40.5448

>  <r_i_glide_energy>  (94) 
-32.8305

>  <r_i_glide_einternal>  (94) 
2.2779

>  <r_i_glide_intrahb_reward>  (94) 
-0

>  <i_i_glide_confnum>  (94) 
5

>  <i_i_glide_posenum>  (94) 
16

>  <r_i_glide_eff_state_penalty>  (94) 
0

>  <ligand_id>  (94) 
27

>  <original_smiles>  (94) 
CC1(C)C2CN(C(=O)NCc3ccccn3)C3C4C5CC4C4C5C1C43C2

>  <smiles>  (94) 
[H]c1c([H])c([H])[n+]([H])c(C([H])([H])N([H])C(=O)N2C([H])([H])C3([H])C([H])([H])C45C2([H])C2([H])C6([H])C([H])([H])C2([H])C4([H])C6([H])C5([H])C3(C([H])([H])[H])C([H])([H])[H])c1[H]

$$$$
27:1:2
     RDKit          3D

 54 60  0  0  1  0  0  0  0  0999 V2000
    3.6362   -8.0694    6.1938 C   0  0  0  0  0  0  0  0  0  0  0  0
    2.8385   -7.8292    4.8956 C   0  0  0  0  0  0  0  0  0  0  0  0
    2.4363   -6.3270    4.9106 C   0  0  0  0  0  0  0  0  0  0  0  0
    3.7001   -8.3635    3.6695 C   0  0  2  0  0  0  0  0  0  0  0  0
    3.6889   -7.3998    2.4665 C   0  0  0  0  0  0  0  0  0  0  0  0
    2.3119   -7.0751    2.0012 N   0  0  0  0  0  0  0  0  0  0  0  0
    2.0732   -6.0118    1.1914 C   0  0  0  0  0  0  0  0  0  0  0  0
    1.0401   -5.8704    0.5251 O   0  0  0  0  0  0  0  0  0  0  0  0
    3.0244   -5.0617    1.1967 N   0  0  0  0  0  0  0  0  0  0  0  0
    2.9848   -3.8157    0.4343 C   0  0  0  0  0  0  0  0  0  0  0  0
    4.2897   -3.4978   -0.2770 C   0  0  0  0  0  0  0  0  0  0  0  0
    5.4051   -2.9461    0.3881 C   0  0  0  0  0  0  0  0  0  0  0  0
    6.5772   -2.6536   -0.3433 C   0  0  0  0  0  0  0  0  0  0  0  0
    6.6006   -2.9122   -1.7294 C   0  0  0  0  0  0  0  0  0  0  0  0
    5.4587   -3.4578   -2.3459 C   0  0  0  0  0  0  0  0  0  0  0  0
    4.3623   -3.7355   -1.6068 N   0  0  0  0  0  0  0  0  0  0  0  0
    1.3299   -8.1866    2.1602 C   0  0  2  0  0  0  0  0  0  0  0  0
   -0.1689   -7.8721    2.3972 C   0  0  2  0  0  0  0  0  0  0  0  0
   -0.6507   -7.6669    3.8646 C   0  0  1  0  0  0  0  0  0  0  0  0
   -1.9177   -8.3760    3.3929 C   0  0  0  0  0  0  0  0  0  0  0  0
   -0.8342   -9.2220    2.7165 C   0  0  2  0  0  0  0  0  0  0  0  0
    0.2242   -9.7837    3.6762 C   0  0  2  0  0  0  0  0  0  0  0  0
    0.1412   -8.6483    4.7233 C   0  0  1  0  0  0  0  0  0  0  0  0
    1.6515   -8.7749    4.7795 C   0  0  1  0  0  0  0  0  0  0  0  0
    1.6058   -9.1940    3.3147 C   0  0  2  0  0  0  0  0  0  0  0  0
    3.0126   -9.6900    3.2001 C   0  0  0  0  0  0  0  0  0  0  0  0
    4.5006   -7.4025    6.2394 H   0  0  0  0  0  0  0  0  0  0  0  0
    4.0102   -9.0932    6.2538 H   0  0  0  0  0  0  0  0  0  0  0  0
    3.0285   -7.8800    7.0804 H   0  0  0  0  0  0  0  0  0  0  0  0
    1.6606   -6.0772    4.1913 H   0  0  0  0  0  0  0  0  0  0  0  0
    3.2906   -5.6747    4.7245 H   0  0  0  0  0  0  0  0  0  0  0  0
    2.0304   -6.0450    5.8814 H   0  0  0  0  0  0  0  0  0  0  0  0
    4.7332   -8.5629    3.9611 H   0  0  0  0  0  0  0  0  0  0  0  0
    4.2695   -6.5236    2.7568 H   0  0  0  0  0  0  0  0  0  0  0  0
    4.2309   -7.8665    1.6423 H   0  0  0  0  0  0  0  0  0  0  0  0
    3.8246   -5.2127    1.7952 H   0  0  0  0  0  0  0  0  0  0  0  0
    2.1915   -3.8253   -0.3135 H   0  0  0  0  0  0  0  0  0  0  0  0
    2.7467   -2.9971    1.1133 H   0  0  0  0  0  0  0  0  0  0  0  0
    5.3712   -2.7369    1.4478 H   0  0  0  0  0  0  0  0  0  0  0  0
    7.4459   -2.2382    0.1456 H   0  0  0  0  0  0  0  0  0  0  0  0
    7.4923   -2.7170   -2.3073 H   0  0  0  0  0  0  0  0  0  0  0  0
    5.3914   -3.6975   -3.3988 H   0  0  0  0  0  0  0  0  0  0  0  0
    1.4273   -8.7410    1.2195 H   0  0  0  0  0  0  0  0  0  0  0  0
   -0.6954   -7.2896    1.6333 H   0  0  0  0  0  0  0  0  0  0  0  0
   -0.7732   -6.6412    4.2150 H   0  0  0  0  0  0  0  0  0  0  0  0
   -2.4563   -8.9313    4.1621 H   0  0  0  0  0  0  0  0  0  0  0  0
   -2.5759   -7.8129    2.7309 H   0  0  0  0  0  0  0  0  0  0  0  0
   -1.1174   -9.8098    1.8433 H   0  0  0  0  0  0  0  0  0  0  0  0
    0.1660  -10.8049    4.0516 H   0  0  0  0  0  0  0  0  0  0  0  0
   -0.3709   -8.9633    5.6377 H   0  0  0  0  0  0  0  0  0  0  0  0
    1.8125   -9.6446    5.4253 H   0  0  0  0  0  0  0  0  0  0  0  0
    3.2927  -10.0177    2.1988 H   0  0  0  0  0  0  0  0  0  0  0  0
    3.2118  -10.5130    3.8885 H   0  0  0  0  0  0  0  0  0  0  0  0
    3.5516   -4.1554   -2.0701 H   0  0  0  0  0  0  0  0  0  0  0  0
  1  2  1  0
  1 27  1  0
  1 28  1  0
  1 29  1  0
  2 24  1  0
  2  3  1  0
  2  4  1  0
  3 30  1  0
  3 31  1  0
  3 32  1  0
  4 26  1  0
  4  5  1  0
  4 33  1  1
  5  6  1  0
  5 34  1  0
  5 35  1  0
  6  7  1  0
  6 17  1  0
  7  8  2  0
  7  9  1  0
  9 10  1  0
  9 36  1  0
 10 11  1  0
 10 37  1  0
 10 38  1  0
 11 16  1  0
 11 12  2  0
 12 13  1  0
 12 39  1  0
 13 14  2  0
 13 40  1  0
 14 15  1  0
 14 41  1  0
 15 16  2  0
 15 42  1  0
 16 54  1  0
 17 25  1  0
 17 18  1  0
 17 43  1  6
 18 21  1  0
 18 19  1  0
 18 44  1  6
 19 23  1  0
 19 20  1  0
 19 45  1  1
 20 21  1  0
 20 46  1  0
 20 47  1  0
 21 22  1  0
 21 48  1  6
 22 25  1  0
 22 23  1  0
 22 49  1  1
 23 24  1  0
 23 50  1  1
 24 25  1  0
 24 51  1  1
 25 26  1  6
 26 52  1  0
 26 53  1  0
M  CHG  1  16   1
M  END
>  <i_m_ct_stereo_status>  (95) 
1

>  <s_m_source_file>  (95) 
/var/tmp/pbs.5076255.sched01/tmpokz5906q/0mijyat0o.sdf

>  <i_m_source_file_index>  (95) 
38

>  <i_lp_mmshare_version>  (95) 
48012

>  <i_f3d_flags>  (95) 
2

>  <s_epik_input>  (95) 
QzEyM1tDQEhdNFtDQEBIXTVbQ0BASF02W0NASF0oW0NAQEhdMVtDQEhdNVtDSDJdNilbQ0BASF0yQyhbQ0gzXSkoW0NIM10pW0NAQEhdKFtDSDJdMylbQ0gyXU40Qyg9TylbTkhdW0NIMl1jN1tjSF1bY0hdW2NIXVtjSF1uNw==

>  <s_epik_cmdline>  (95) 
J2VwaWtfcHl0aG9uJywgJy1waHQnLCAnMi4wJywgJy1waCcsICc3LjAnLCAnLXRuJywgJzgnLCAnLW1hJywgJzIwMCcsICctaW1hZScsICc8aW5maWxlLm1hZT4nLCAnLW9tYWUnLCAnPG91dGZpbGUubWFlPic=

>  <r_epik_Ionization_Penalty>  (95) 
2.31684

>  <r_epik_Ionization_Penalty_Charging>  (95) 
2.31679

>  <r_epik_Ionization_Penalty_Neutral>  (95) 
5.1319e-05

>  <r_epik_State_Penalty>  (95) 
2.46867

>  <r_epik_Charging_Adjusted_Penalty>  (95) 
4.78546

>  <i_epik_Tot_Q>  (95) 
1

>  <i_epik_Tot_abs_Q>  (95) 
1

>  <s_lp_Force_Field>  (95) 
OPLS3e

>  <r_lp_Energy>  (95) 
153.261

>  <b_lp_Chiralities_Consistent>  (95) 
0

>  <s_lp_Variant>  (95) 
27:0-2

>  <s_i_glide_gridfile>  (95) 
pfpi4k_grid

>  <i_i_glide_lignum>  (95) 
38

>  <i_i_glide_rotatable_bonds>  (95) 
4

>  <r_i_docking_score>  (95) 
-3.61345

>  <r_i_glide_ligand_efficiency>  (95) 
-0.138979

>  <r_i_glide_ligand_efficiency_sa>  (95) 
-0.411724

>  <r_i_glide_ligand_efficiency_ln>  (95) 
-0.848606

>  <r_i_glide_gscore>  (95) 
-3.61345

>  <r_i_glide_lipo>  (95) 
-0.303261

>  <r_i_glide_hbond>  (95) 
-0.16

>  <r_i_glide_metal>  (95) 
-0

>  <r_i_glide_rewards>  (95) 
-1.01947

>  <r_i_glide_evdw>  (95) 
-24.5605

>  <r_i_glide_ecoul>  (95) 
-8.57529

>  <r_i_glide_erotb>  (95) 
0.465538

>  <r_i_glide_esite>  (95) 
-0.0819343

>  <r_i_glide_emodel>  (95) 
-40.907

>  <r_i_glide_energy>  (95) 
-33.1358

>  <r_i_glide_einternal>  (95) 
1.54184

>  <r_i_glide_intrahb_reward>  (95) 
-0

>  <i_i_glide_confnum>  (95) 
3

>  <i_i_glide_posenum>  (95) 
29

>  <r_i_glide_eff_state_penalty>  (95) 
0

>  <ligand_id>  (95) 
27

>  <original_smiles>  (95) 
CC1(C)C2CN(C(=O)NCc3ccccn3)C3C4C5CC4C4C5C1C43C2

>  <smiles>  (95) 
[H]c1c([H])c([H])[n+]([H])c(C([H])([H])N([H])C(=O)N2C([H])([H])C3([H])C([H])([H])C45C2([H])C2([H])C6([H])C([H])([H])C2([H])C4([H])C6([H])C5([H])C3(C([H])([H])[H])C([H])([H])[H])c1[H]

$$$$
28:0:0
     RDKit          3D

 34 37  0  0  1  0  0  0  0  0999 V2000
    0.2945   -6.3030    1.2126 O   0  0  0  0  0  0  0  0  0  0  0  0
    1.3016   -6.9510    1.5340 C   0  0  0  0  0  0  0  0  0  0  0  0
    1.1389   -8.1217    2.2176 N   0  0  0  0  0  0  0  0  0  0  0  0
   -0.1790   -8.6116    2.6745 C   0  0  0  0  0  0  0  0  0  0  0  0
   -0.0018  -10.1411    2.8737 C   0  0  0  0  0  0  0  0  0  0  0  0
    1.4576  -10.3280    3.1778 C   0  0  0  0  0  0  0  0  0  0  0  0
    2.0801   -9.2134    2.3902 C   0  0  0  0  0  0  0  0  0  0  0  0
    2.5751   -6.5348    1.2507 N   0  0  0  0  0  0  0  0  0  0  0  0
    3.8311   -7.1829    1.6449 C   0  0  0  0  0  0  0  0  0  0  0  0
    4.9917   -6.3926    1.1128 C   0  0  0  0  0  0  0  0  0  0  0  0
    4.2886   -5.3409    0.4757 N   0  0  0  0  0  0  0  0  0  0  0  0
    2.9727   -5.3716    0.5232 C   0  0  0  0  0  0  0  0  0  0  0  0
    2.3057   -4.3575   -0.0606 N   0  0  0  0  0  0  0  0  0  0  0  0
    3.3942   -3.6111   -0.5502 C   0  0  0  0  0  0  0  0  0  0  0  0
    3.5022   -2.3945   -1.2736 C   0  0  0  0  0  0  0  0  0  0  0  0
    4.8041   -1.9258   -1.5888 C   0  0  0  0  0  0  0  0  0  0  0  0
    5.9467   -2.6621   -1.1942 C   0  0  0  0  0  0  0  0  0  0  0  0
    5.9050   -3.8176   -0.5057 N   0  0  0  0  0  0  0  0  0  0  0  0
    4.6338   -4.2220   -0.2249 C   0  0  0  0  0  0  0  0  0  0  0  0
   -0.4475   -8.1334    3.6220 H   0  0  0  0  0  0  0  0  0  0  0  0
   -0.9761   -8.4216    1.9541 H   0  0  0  0  0  0  0  0  0  0  0  0
   -0.6109  -10.5426    3.6911 H   0  0  0  0  0  0  0  0  0  0  0  0
   -0.2547  -10.6692    1.9500 H   0  0  0  0  0  0  0  0  0  0  0  0
    1.6493  -10.1655    4.2420 H   0  0  0  0  0  0  0  0  0  0  0  0
    1.8502  -11.3061    2.9011 H   0  0  0  0  0  0  0  0  0  0  0  0
    2.3631   -9.6136    1.4037 H   0  0  0  0  0  0  0  0  0  0  0  0
    2.9619   -8.9900    2.9948 H   0  0  0  0  0  0  0  0  0  0  0  0
    3.9432   -7.2252    2.7320 H   0  0  0  0  0  0  0  0  0  0  0  0
    3.9571   -8.1712    1.2008 H   0  0  0  0  0  0  0  0  0  0  0  0
    5.6426   -6.0049    1.8891 H   0  0  0  0  0  0  0  0  0  0  0  0
    5.5648   -6.9485    0.3817 H   0  0  0  0  0  0  0  0  0  0  0  0
    2.6065   -1.8510   -1.5522 H   0  0  0  0  0  0  0  0  0  0  0  0
    4.9102   -0.9933   -2.1312 H   0  0  0  0  0  0  0  0  0  0  0  0
    6.9327   -2.3127   -1.4325 H   0  0  0  0  0  0  0  0  0  0  0  0
  1  2  2  0
  2  3  1  0
  2  8  1  0
  3  7  1  0
  3  4  1  0
  4  5  1  0
  4 20  1  0
  4 21  1  0
  5  6  1  0
  5 22  1  0
  5 23  1  0
  6  7  1  0
  6 24  1  0
  6 25  1  0
  7 26  1  0
  7 27  1  0
  8 12  1  0
  8  9  1  0
  9 10  1  0
  9 28  1  0
  9 29  1  0
 10 11  1  0
 10 30  1  0
 10 31  1  0
 11 19  1  0
 11 12  1  0
 12 13  2  0
 13 14  1  0
 14 19  2  0
 14 15  1  0
 15 16  2  0
 15 32  1  0
 16 17  1  0
 16 33  1  0
 17 18  2  0
 17 34  1  0
 18 19  1  0
M  END
>  <i_m_ct_stereo_status>  (96) 
1

>  <s_m_source_file>  (96) 
/var/tmp/pbs.5076255.sched01/tmpokz5906q/0mijyat0o.sdf

>  <i_m_source_file_index>  (96) 
39

>  <i_lp_mmshare_version>  (96) 
48012

>  <i_f3d_flags>  (96) 
0

>  <s_epik_input>  (96) 
W0NIMl0xW0NIMl1bQ0gyXVtDSDJdTjFDKD1PKU4oW0NIMl1bQ0gyXTIpYyhuMjMpbmM0YzNuW2NIXVtjSF1bY0hdNA==

>  <s_epik_cmdline>  (96) 
J2VwaWtfcHl0aG9uJywgJy1waHQnLCAnMi4wJywgJy1waCcsICc3LjAnLCAnLXRuJywgJzgnLCAnLW1hJywgJzIwMCcsICctaW1hZScsICc8aW5maWxlLm1hZT4nLCAnLW9tYWUnLCAnPG91dGZpbGUubWFlPic=

>  <r_lp_tautomer_probability>  (96) 
1

>  <r_epik_Ionization_Penalty>  (96) 
0.000984522

>  <r_epik_Ionization_Penalty_Charging>  (96) 
0.000945966

>  <r_epik_Ionization_Penalty_Neutral>  (96) 
3.85552e-05

>  <r_epik_State_Penalty>  (96) 
0.000614342

>  <r_epik_Charging_Adjusted_Penalty>  (96) 
0.00156031

>  <i_epik_Tot_Q>  (96) 
0

>  <i_epik_Tot_abs_Q>  (96) 
0

>  <s_lp_Force_Field>  (96) 
OPLS3e

>  <r_lp_Energy>  (96) 
33.3476

>  <b_lp_Chiralities_Consistent>  (96) 
1

>  <s_lp_Variant>  (96) 
28:0-1

>  <s_i_glide_gridfile>  (96) 
pfpi4k_grid

>  <i_i_glide_lignum>  (96) 
39

>  <i_i_glide_rotatable_bonds>  (96) 
2

>  <r_i_docking_score>  (96) 
-4.00328

>  <r_i_glide_ligand_efficiency>  (96) 
-0.210699

>  <r_i_glide_ligand_efficiency_sa>  (96) 
-0.562229

>  <r_i_glide_ligand_efficiency_ln>  (96) 
-1.01492

>  <r_i_glide_gscore>  (96) 
-4.00328

>  <r_i_glide_lipo>  (96) 
-0.353115

>  <r_i_glide_hbond>  (96) 
-0.175187

>  <r_i_glide_metal>  (96) 
-0

>  <r_i_glide_rewards>  (96) 
-1.74395

>  <r_i_glide_evdw>  (96) 
-25.4462

>  <r_i_glide_ecoul>  (96) 
-5.80825

>  <r_i_glide_erotb>  (96) 
0.533027

>  <r_i_glide_esite>  (96) 
-0.120507

>  <r_i_glide_emodel>  (96) 
-32.9198

>  <r_i_glide_energy>  (96) 
-31.2545

>  <r_i_glide_einternal>  (96) 
9.69243

>  <r_i_glide_intrahb_reward>  (96) 
-0

>  <i_i_glide_confnum>  (96) 
4

>  <i_i_glide_posenum>  (96) 
12

>  <r_i_glide_eff_state_penalty>  (96) 
0

>  <ligand_id>  (96) 
28

>  <original_smiles>  (96) 
O=C(N1CCCC1)N1CCn2c1nc1cccnc12

>  <smiles>  (96) 
[H]c1nc2c(nc3n2C([H])([H])C([H])([H])N3C(=O)N2C([H])([H])C([H])([H])C([H])([H])C2([H])[H])c([H])c1[H]

$$$$
28:0:1
     RDKit          3D

 34 37  0  0  1  0  0  0  0  0999 V2000
    1.4231   -5.4928    0.1143 O   0  0  0  0  0  0  0  0  0  0  0  0
    2.5961   -5.5059    0.4924 C   0  0  0  0  0  0  0  0  0  0  0  0
    3.3783   -4.3780    0.4296 N   0  0  0  0  0  0  0  0  0  0  0  0
    4.7830   -4.2143    0.7961 C   0  0  0  0  0  0  0  0  0  0  0  0
    5.1747   -2.7715    0.6189 C   0  0  0  0  0  0  0  0  0  0  0  0
    4.1734   -2.2740   -0.4149 C   0  0  0  0  0  0  0  0  0  0  0  0
    2.9173   -3.1118   -0.1457 C   0  0  0  0  0  0  0  0  0  0  0  0
    3.1686   -6.6000    1.0566 N   0  0  0  0  0  0  0  0  0  0  0  0
    4.5397   -7.1093    0.7482 C   0  0  0  0  0  0  0  0  0  0  0  0
    4.6540   -8.4692    1.4400 C   0  0  0  0  0  0  0  0  0  0  0  0
    3.3465   -8.6017    1.9943 N   0  0  0  0  0  0  0  0  0  0  0  0
    2.5021   -7.6238    1.7919 C   0  0  0  0  0  0  0  0  0  0  0  0
    1.2741   -7.7360    2.2912 N   0  0  0  0  0  0  0  0  0  0  0  0
    1.3861   -8.9952    2.9502 C   0  0  0  0  0  0  0  0  0  0  0  0
    0.5293   -9.7761    3.6964 C   0  0  0  0  0  0  0  0  0  0  0  0
    1.0107  -11.0041    4.2377 C   0  0  0  0  0  0  0  0  0  0  0  0
    2.3560  -11.3840    4.0039 C   0  0  0  0  0  0  0  0  0  0  0  0
    3.2400  -10.6645    3.2853 N   0  0  0  0  0  0  0  0  0  0  0  0
    2.7290   -9.5284    2.7784 C   0  0  0  0  0  0  0  0  0  0  0  0
    4.9938   -4.5415    1.8229 H   0  0  0  0  0  0  0  0  0  0  0  0
    5.3890   -4.8231    0.1134 H   0  0  0  0  0  0  0  0  0  0  0  0
    5.0725   -2.2236    1.5661 H   0  0  0  0  0  0  0  0  0  0  0  0
    6.2088   -2.6756    0.2831 H   0  0  0  0  0  0  0  0  0  0  0  0
    4.0012   -1.1972   -0.3502 H   0  0  0  0  0  0  0  0  0  0  0  0
    4.5436   -2.5103   -1.4165 H   0  0  0  0  0  0  0  0  0  0  0  0
    2.3525   -3.2675   -1.0676 H   0  0  0  0  0  0  0  0  0  0  0  0
    2.2714   -2.6032    0.5729 H   0  0  0  0  0  0  0  0  0  0  0  0
    4.6906   -7.2042   -0.3317 H   0  0  0  0  0  0  0  0  0  0  0  0
    5.3395   -6.5059    1.1464 H   0  0  0  0  0  0  0  0  0  0  0  0
    4.8802   -9.3091    0.7801 H   0  0  0  0  0  0  0  0  0  0  0  0
    5.3801   -8.4125    2.2465 H   0  0  0  0  0  0  0  0  0  0  0  0
   -0.5050   -9.4810    3.8878 H   0  0  0  0  0  0  0  0  0  0  0  0
    0.3682  -11.6205    4.8230 H   0  0  0  0  0  0  0  0  0  0  0  0
    2.7261  -12.3136    4.4124 H   0  0  0  0  0  0  0  0  0  0  0  0
  1  2  2  0
  2  3  1  0
  2  8  1  0
  3  7  1  0
  3  4  1  0
  4  5  1  0
  4 20  1  0
  4 21  1  0
  5  6  1  0
  5 22  1  0
  5 23  1  0
  6  7  1  0
  6 24  1  0
  6 25  1  0
  7 26  1  0
  7 27  1  0
  8 12  1  0
  8  9  1  0
  9 10  1  0
  9 28  1  0
  9 29  1  0
 10 11  1  0
 10 30  1  0
 10 31  1  0
 11 19  1  0
 11 12  1  0
 12 13  2  0
 13 14  1  0
 14 19  2  0
 14 15  1  0
 15 16  2  0
 15 32  1  0
 16 17  1  0
 16 33  1  0
 17 18  2  0
 17 34  1  0
 18 19  1  0
M  END
>  <i_m_ct_stereo_status>  (97) 
1

>  <s_m_source_file>  (97) 
/var/tmp/pbs.5076255.sched01/tmpokz5906q/0mijyat0o.sdf

>  <i_m_source_file_index>  (97) 
39

>  <i_lp_mmshare_version>  (97) 
48012

>  <i_f3d_flags>  (97) 
0

>  <s_epik_input>  (97) 
W0NIMl0xW0NIMl1bQ0gyXVtDSDJdTjFDKD1PKU4oW0NIMl1bQ0gyXTIpYyhuMjMpbmM0YzNuW2NIXVtjSF1bY0hdNA==

>  <s_epik_cmdline>  (97) 
J2VwaWtfcHl0aG9uJywgJy1waHQnLCAnMi4wJywgJy1waCcsICc3LjAnLCAnLXRuJywgJzgnLCAnLW1hJywgJzIwMCcsICctaW1hZScsICc8aW5maWxlLm1hZT4nLCAnLW9tYWUnLCAnPG91dGZpbGUubWFlPic=

>  <r_lp_tautomer_probability>  (97) 
1

>  <r_epik_Ionization_Penalty>  (97) 
0.000984522

>  <r_epik_Ionization_Penalty_Charging>  (97) 
0.000945966

>  <r_epik_Ionization_Penalty_Neutral>  (97) 
3.85552e-05

>  <r_epik_State_Penalty>  (97) 
0.000614342

>  <r_epik_Charging_Adjusted_Penalty>  (97) 
0.00156031

>  <i_epik_Tot_Q>  (97) 
0

>  <i_epik_Tot_abs_Q>  (97) 
0

>  <s_lp_Force_Field>  (97) 
OPLS3e

>  <r_lp_Energy>  (97) 
33.3476

>  <b_lp_Chiralities_Consistent>  (97) 
1

>  <s_lp_Variant>  (97) 
28:0-1

>  <s_i_glide_gridfile>  (97) 
pfpi4k_grid

>  <i_i_glide_lignum>  (97) 
39

>  <i_i_glide_rotatable_bonds>  (97) 
2

>  <r_i_docking_score>  (97) 
-3.47488

>  <r_i_glide_ligand_efficiency>  (97) 
-0.182889

>  <r_i_glide_ligand_efficiency_sa>  (97) 
-0.48802

>  <r_i_glide_ligand_efficiency_ln>  (97) 
-0.880957

>  <r_i_glide_gscore>  (97) 
-3.47488

>  <r_i_glide_lipo>  (97) 
-0.234844

>  <r_i_glide_hbond>  (97) 
-0.118898

>  <r_i_glide_metal>  (97) 
-0

>  <r_i_glide_rewards>  (97) 
-1.69533

>  <r_i_glide_evdw>  (97) 
-23.912

>  <r_i_glide_ecoul>  (97) 
-4.50957

>  <r_i_glide_erotb>  (97) 
0.533027

>  <r_i_glide_esite>  (97) 
-0.0867985

>  <r_i_glide_emodel>  (97) 
-31.6525

>  <r_i_glide_energy>  (97) 
-28.4216

>  <r_i_glide_einternal>  (97) 
6.48071

>  <r_i_glide_intrahb_reward>  (97) 
-0

>  <i_i_glide_confnum>  (97) 
3

>  <i_i_glide_posenum>  (97) 
28

>  <r_i_glide_eff_state_penalty>  (97) 
0

>  <ligand_id>  (97) 
28

>  <original_smiles>  (97) 
O=C(N1CCCC1)N1CCn2c1nc1cccnc12

>  <smiles>  (97) 
[H]c1nc2c(nc3n2C([H])([H])C([H])([H])N3C(=O)N2C([H])([H])C([H])([H])C([H])([H])C2([H])[H])c([H])c1[H]

$$$$
28:0:2
     RDKit          3D

 34 37  0  0  1  0  0  0  0  0999 V2000
    5.2942   -0.9724   -0.0244 O   0  0  0  0  0  0  0  0  0  0  0  0
    4.4387   -1.8017   -0.3364 C   0  0  0  0  0  0  0  0  0  0  0  0
    4.0050   -1.9614   -1.6089 N   0  0  0  0  0  0  0  0  0  0  0  0
    2.9737   -2.8912   -2.0748 C   0  0  0  0  0  0  0  0  0  0  0  0
    2.8775   -2.7141   -3.5811 C   0  0  0  0  0  0  0  0  0  0  0  0
    3.3782   -1.2974   -3.8158 C   0  0  0  0  0  0  0  0  0  0  0  0
    4.3891   -1.0680   -2.6982 C   0  0  0  0  0  0  0  0  0  0  0  0
    3.7682   -2.5167    0.5877 N   0  0  0  0  0  0  0  0  0  0  0  0
    3.0045   -1.8899    1.6808 C   0  0  0  0  0  0  0  0  0  0  0  0
    2.5220   -3.0658    2.5502 C   0  0  0  0  0  0  0  0  0  0  0  0
    3.1198   -4.1782    1.8876 N   0  0  0  0  0  0  0  0  0  0  0  0
    3.8405   -3.9081    0.8184 C   0  0  0  0  0  0  0  0  0  0  0  0
    4.4560   -4.9146    0.1996 N   0  0  0  0  0  0  0  0  0  0  0  0
    4.0114   -5.9811    0.9808 C   0  0  0  0  0  0  0  0  0  0  0  0
    4.2242   -7.3758    0.9062 C   0  0  0  0  0  0  0  0  0  0  0  0
    3.6231   -8.1935    1.8896 C   0  0  0  0  0  0  0  0  0  0  0  0
    2.8212   -7.6085    2.9023 C   0  0  0  0  0  0  0  0  0  0  0  0
    2.5647   -6.2847    3.0118 N   0  0  0  0  0  0  0  0  0  0  0  0
    3.1720   -5.5381    2.0555 C   0  0  0  0  0  0  0  0  0  0  0  0
    3.2204   -3.9225   -1.8468 H   0  0  0  0  0  0  0  0  0  0  0  0
    2.0257   -2.6586   -1.5935 H   0  0  0  0  0  0  0  0  0  0  0  0
    3.5407   -3.4313   -4.0683 H   0  0  0  0  0  0  0  0  0  0  0  0
    1.8644   -2.8871   -3.9470 H   0  0  0  0  0  0  0  0  0  0  0  0
    3.7883   -1.1511   -4.8154 H   0  0  0  0  0  0  0  0  0  0  0  0
    2.5562   -0.5935   -3.6898 H   0  0  0  0  0  0  0  0  0  0  0  0
    4.3907   -0.0158   -2.3923 H   0  0  0  0  0  0  0  0  0  0  0  0
    5.3911   -1.3544   -3.0131 H   0  0  0  0  0  0  0  0  0  0  0  0
    3.6047   -1.1842    2.2531 H   0  0  0  0  0  0  0  0  0  0  0  0
    2.1545   -1.3378    1.2803 H   0  0  0  0  0  0  0  0  0  0  0  0
    2.8851   -3.0164    3.5763 H   0  0  0  0  0  0  0  0  0  0  0  0
    1.4384   -3.1813    2.5498 H   0  0  0  0  0  0  0  0  0  0  0  0
    4.8256   -7.8063    0.1256 H   0  0  0  0  0  0  0  0  0  0  0  0
    3.7769   -9.2678    1.8758 H   0  0  0  0  0  0  0  0  0  0  0  0
    2.3698   -8.2366    3.6662 H   0  0  0  0  0  0  0  0  0  0  0  0
  1  2  2  0
  2  3  1  0
  2  8  1  0
  3  7  1  0
  3  4  1  0
  4  5  1  0
  4 20  1  0
  4 21  1  0
  5  6  1  0
  5 22  1  0
  5 23  1  0
  6  7  1  0
  6 24  1  0
  6 25  1  0
  7 26  1  0
  7 27  1  0
  8 12  1  0
  8  9  1  0
  9 10  1  0
  9 28  1  0
  9 29  1  0
 10 11  1  0
 10 30  1  0
 10 31  1  0
 11 19  1  0
 11 12  1  0
 12 13  2  0
 13 14  1  0
 14 19  2  0
 14 15  1  0
 15 16  2  0
 15 32  1  0
 16 17  1  0
 16 33  1  0
 17 18  2  0
 17 34  1  0
 18 19  1  0
M  END
>  <i_m_ct_stereo_status>  (98) 
1

>  <s_m_source_file>  (98) 
/var/tmp/pbs.5076255.sched01/tmpokz5906q/0mijyat0o.sdf

>  <i_m_source_file_index>  (98) 
39

>  <i_lp_mmshare_version>  (98) 
48012

>  <i_f3d_flags>  (98) 
0

>  <s_epik_input>  (98) 
W0NIMl0xW0NIMl1bQ0gyXVtDSDJdTjFDKD1PKU4oW0NIMl1bQ0gyXTIpYyhuMjMpbmM0YzNuW2NIXVtjSF1bY0hdNA==

>  <s_epik_cmdline>  (98) 
J2VwaWtfcHl0aG9uJywgJy1waHQnLCAnMi4wJywgJy1waCcsICc3LjAnLCAnLXRuJywgJzgnLCAnLW1hJywgJzIwMCcsICctaW1hZScsICc8aW5maWxlLm1hZT4nLCAnLW9tYWUnLCAnPG91dGZpbGUubWFlPic=

>  <r_lp_tautomer_probability>  (98) 
1

>  <r_epik_Ionization_Penalty>  (98) 
0.000984522

>  <r_epik_Ionization_Penalty_Charging>  (98) 
0.000945966

>  <r_epik_Ionization_Penalty_Neutral>  (98) 
3.85552e-05

>  <r_epik_State_Penalty>  (98) 
0.000614342

>  <r_epik_Charging_Adjusted_Penalty>  (98) 
0.00156031

>  <i_epik_Tot_Q>  (98) 
0

>  <i_epik_Tot_abs_Q>  (98) 
0

>  <s_lp_Force_Field>  (98) 
OPLS3e

>  <r_lp_Energy>  (98) 
33.3476

>  <b_lp_Chiralities_Consistent>  (98) 
1

>  <s_lp_Variant>  (98) 
28:0-1

>  <s_i_glide_gridfile>  (98) 
pfpi4k_grid

>  <i_i_glide_lignum>  (98) 
39

>  <i_i_glide_rotatable_bonds>  (98) 
2

>  <r_i_docking_score>  (98) 
-3.22996

>  <r_i_glide_ligand_efficiency>  (98) 
-0.169998

>  <r_i_glide_ligand_efficiency_sa>  (98) 
-0.453623

>  <r_i_glide_ligand_efficiency_ln>  (98) 
-0.818864

>  <r_i_glide_gscore>  (98) 
-3.22996

>  <r_i_glide_lipo>  (98) 
-0.594154

>  <r_i_glide_hbond>  (98) 
0

>  <r_i_glide_metal>  (98) 
-0

>  <r_i_glide_rewards>  (98) 
-1.67298

>  <r_i_glide_evdw>  (98) 
-26.3597

>  <r_i_glide_ecoul>  (98) 
-0.645966

>  <r_i_glide_erotb>  (98) 
0.533027

>  <r_i_glide_esite>  (98) 
-0.0809714

>  <r_i_glide_emodel>  (98) 
-31.7262

>  <r_i_glide_energy>  (98) 
-27.0056

>  <r_i_glide_einternal>  (98) 
4.6003

>  <r_i_glide_intrahb_reward>  (98) 
-0

>  <i_i_glide_confnum>  (98) 
1

>  <i_i_glide_posenum>  (98) 
3

>  <r_i_glide_eff_state_penalty>  (98) 
0

>  <ligand_id>  (98) 
28

>  <original_smiles>  (98) 
O=C(N1CCCC1)N1CCn2c1nc1cccnc12

>  <smiles>  (98) 
[H]c1nc2c(nc3n2C([H])([H])C([H])([H])N3C(=O)N2C([H])([H])C([H])([H])C([H])([H])C2([H])[H])c([H])c1[H]

$$$$
29:0:0
     RDKit          3D

 83 92  0  0  1  0  0  0  0  0999 V2000
    5.5815   -2.9409   -2.1105 C   0  0  0  0  0  0  0  0  0  0  0  0
    5.4153   -3.0774   -0.7879 C   0  0  0  0  0  0  0  0  0  0  0  0
    6.2012   -4.0123    0.1044 C   0  0  0  0  0  0  0  0  0  0  0  0
    5.5071   -3.8666    1.4822 C   0  0  2  0  0  0  0  0  0  0  0  0
    5.5140   -5.0324    2.4745 C   0  0  1  0  0  0  0  0  0  0  0  0
    5.3590   -4.6701    3.9666 C   0  0  0  0  0  0  0  0  0  0  0  0
    6.2920   -5.1769    4.8979 C   0  0  0  0  0  0  0  0  0  0  0  0
    5.9369   -5.4274    6.2265 C   0  0  0  0  0  0  0  0  0  0  0  0
    4.5879   -5.3496    6.5858 C   0  0  0  0  0  0  0  0  0  0  0  0
    3.6402   -4.8040    5.6931 C   0  0  0  0  0  0  0  0  0  0  0  0
    4.0804   -4.2358    4.4707 C   0  0  0  0  0  0  0  0  0  0  0  0
    3.2594   -3.0397    3.8457 C   0  0  1  0  0  0  0  0  0  0  0  0
    2.1789   -2.3382    4.7880 C   0  0  2  0  0  0  0  0  0  0  0  0
    0.9403   -3.1363    5.1283 N   0  0  2  0  0  0  0  0  0  0  0  0
   -0.2594   -2.3887    5.6084 C   0  0  0  0  0  0  0  0  0  0  0  0
    1.1917   -4.1719    6.1573 C   0  0  0  0  0  0  0  0  0  0  0  0
    2.1816   -5.2266    5.7225 C   0  0  0  0  0  0  0  0  0  0  0  0
    1.9430   -0.8566    4.2441 C   0  0  0  0  0  0  0  0  0  0  0  0
    1.5216    0.2366    5.2976 C   0  0  0  0  0  0  0  0  0  0  0  0
    0.5174    1.0976    4.5745 C   0  0  0  0  0  0  0  0  0  0  0  0
   -0.0162    2.3261    5.0068 C   0  0  0  0  0  0  0  0  0  0  0  0
   -0.9210    3.0022    4.1583 C   0  0  0  0  0  0  0  0  0  0  0  0
   -1.2665    2.4595    2.9007 C   0  0  0  0  0  0  0  0  0  0  0  0
   -0.7057    1.2389    2.4732 C   0  0  0  0  0  0  0  0  0  0  0  0
    0.1808    0.5699    3.3359 C   0  0  0  0  0  0  0  0  0  0  0  0
    0.9253   -0.7027    3.0474 C   0  0  0  0  0  0  0  0  0  0  0  0
    3.3392   -0.4912    3.7292 C   0  0  0  0  0  0  0  0  0  0  0  0
    3.9678   -1.7844    3.3148 C   0  0  1  0  0  0  0  0  0  0  0  0
    5.3523   -1.7311    3.5664 O   0  0  0  0  0  0  0  0  0  0  0  0
    3.3336   -2.7374    2.3347 C   0  0  1  0  0  0  0  0  0  0  0  0
    4.0803   -3.4105    1.1815 C   0  0  2  0  0  0  0  0  0  0  0  0
    3.2669   -4.6370    0.6852 C   0  0  0  0  0  0  0  0  0  0  0  0
    3.2622   -5.7854    1.7042 C   0  0  0  0  0  0  0  0  0  0  0  0
    4.6379   -6.1867    2.0974 N   0  0  1  0  0  0  0  0  0  0  0  0
    5.2556   -7.1887    1.1871 C   0  0  0  0  0  0  0  0  0  0  0  0
    5.5083   -8.5133    1.8921 C   0  0  0  0  0  0  0  0  0  0  0  0
    6.2816   -9.6061    1.1784 C   0  0  0  0  0  0  0  0  0  0  0  0
    4.8174   -9.7875    1.4525 C   0  0  0  0  0  0  0  0  0  0  0  0
    4.3208   -2.4257    0.0221 C   0  0  0  0  0  0  0  0  0  0  0  0
    4.9309   -2.2944   -2.6818 H   0  0  0  0  0  0  0  0  0  0  0  0
    6.3482   -3.4885   -2.6396 H   0  0  0  0  0  0  0  0  0  0  0  0
    6.1312   -5.0117   -0.3193 H   0  0  0  0  0  0  0  0  0  0  0  0
    7.2529   -3.7223    0.1408 H   0  0  0  0  0  0  0  0  0  0  0  0
    6.1177   -3.0814    1.9071 H   0  0  0  0  0  0  0  0  0  0  0  0
    6.5354   -5.4083    2.4247 H   0  0  0  0  0  0  0  0  0  0  0  0
    7.2788   -5.4591    4.5634 H   0  0  0  0  0  0  0  0  0  0  0  0
    6.6637   -5.8546    6.8993 H   0  0  0  0  0  0  0  0  0  0  0  0
    4.2704   -5.8037    7.5135 H   0  0  0  0  0  0  0  0  0  0  0  0
    2.6958   -2.1817    5.7367 H   0  0  0  0  0  0  0  0  0  0  0  0
   -0.1205   -2.0075    6.6221 H   0  0  0  0  0  0  0  0  0  0  0  0
   -1.1126   -3.0669    5.6705 H   0  0  0  0  0  0  0  0  0  0  0  0
   -0.5965   -1.5697    4.9800 H   0  0  0  0  0  0  0  0  0  0  0  0
    1.5013   -3.7324    7.1054 H   0  0  0  0  0  0  0  0  0  0  0  0
    0.2562   -4.6975    6.3697 H   0  0  0  0  0  0  0  0  0  0  0  0
    1.8765   -5.7054    4.7909 H   0  0  0  0  0  0  0  0  0  0  0  0
    2.1148   -6.0187    6.4703 H   0  0  0  0  0  0  0  0  0  0  0  0
    1.0419   -0.1740    6.1839 H   0  0  0  0  0  0  0  0  0  0  0  0
    2.3449    0.8554    5.6586 H   0  0  0  0  0  0  0  0  0  0  0  0
    0.2677    2.7519    5.9567 H   0  0  0  0  0  0  0  0  0  0  0  0
   -1.3427    3.9468    4.4622 H   0  0  0  0  0  0  0  0  0  0  0  0
   -1.9430    2.9939    2.2507 H   0  0  0  0  0  0  0  0  0  0  0  0
   -0.9388    0.8504    1.4926 H   0  0  0  0  0  0  0  0  0  0  0  0
    1.3775   -0.5962    2.0593 H   0  0  0  0  0  0  0  0  0  0  0  0
    0.2197   -1.5296    2.9847 H   0  0  0  0  0  0  0  0  0  0  0  0
    3.3209    0.2273    2.9087 H   0  0  0  0  0  0  0  0  0  0  0  0
    3.9517   -0.0519    4.5182 H   0  0  0  0  0  0  0  0  0  0  0  0
    5.7308   -1.1384    2.9370 H   0  0  0  0  0  0  0  0  0  0  0  0
    2.3604   -2.4786    1.9427 H   0  0  0  0  0  0  0  0  0  0  0  0
    2.2454   -4.3382    0.4535 H   0  0  0  0  0  0  0  0  0  0  0  0
    3.6807   -5.0180   -0.2522 H   0  0  0  0  0  0  0  0  0  0  0  0
    2.7086   -5.4822    2.5906 H   0  0  0  0  0  0  0  0  0  0  0  0
    2.7205   -6.6433    1.3073 H   0  0  0  0  0  0  0  0  0  0  0  0
    4.6370   -7.3716    0.3054 H   0  0  0  0  0  0  0  0  0  0  0  0
    6.2194   -6.8549    0.8083 H   0  0  0  0  0  0  0  0  0  0  0  0
    5.7542   -8.4257    2.9528 H   0  0  0  0  0  0  0  0  0  0  0  0
    6.5904   -9.4542    0.1457 H   0  0  0  0  0  0  0  0  0  0  0  0
    6.9668  -10.2081    1.7721 H   0  0  0  0  0  0  0  0  0  0  0  0
    4.5526  -10.5128    2.2215 H   0  0  0  0  0  0  0  0  0  0  0  0
    4.1456   -9.7622    0.5940 H   0  0  0  0  0  0  0  0  0  0  0  0
    4.7182   -1.4870    0.4080 H   0  0  0  0  0  0  0  0  0  0  0  0
    3.4260   -2.1990   -0.5572 H   0  0  0  0  0  0  0  0  0  0  0  0
    0.6548   -3.6081    4.2825 H   0  0  0  0  0  0  0  0  0  0  0  0
    4.5323   -6.6965    2.9627 H   0  0  0  0  0  0  0  0  0  0  0  0
  1  2  2  0
  1 40  1  0
  1 41  1  0
  2 39  1  0
  2  3  1  0
  3  4  1  0
  3 42  1  0
  3 43  1  0
  4 31  1  0
  4  5  1  0
  4 44  1  1
  5 34  1  0
  5  6  1  0
  5 45  1  1
  6 11  2  0
  6  7  1  0
  7  8  2  0
  7 46  1  0
  8  9  1  0
  8 47  1  0
  9 10  2  0
  9 48  1  0
 10 17  1  0
 10 11  1  0
 12 11  1  6
 12 28  1  0
 12 30  1  0
 12 13  1  0
 13 14  1  0
 13 18  1  0
 13 49  1  1
 14 15  1  0
 14 16  1  0
 14 82  1  6
 15 50  1  0
 15 51  1  0
 15 52  1  0
 16 17  1  0
 16 53  1  0
 16 54  1  0
 17 55  1  0
 17 56  1  0
 18 26  1  0
 18 19  1  0
 18 27  1  0
 19 20  1  0
 19 57  1  0
 19 58  1  0
 20 25  2  0
 20 21  1  0
 21 22  2  0
 21 59  1  0
 22 23  1  0
 22 60  1  0
 23 24  2  0
 23 61  1  0
 24 25  1  0
 24 62  1  0
 25 26  1  0
 26 63  1  0
 26 64  1  0
 27 28  1  0
 27 65  1  0
 27 66  1  0
 28 29  1  6
 28 30  1  0
 29 67  1  0
 30 31  1  0
 30 68  1  6
 31 32  1  6
 31 39  1  0
 32 33  1  0
 32 69  1  0
 32 70  1  0
 33 34  1  0
 33 71  1  0
 33 72  1  0
 34 35  1  0
 34 83  1  1
 35 36  1  0
 35 73  1  0
 35 74  1  0
 36 38  1  0
 36 37  1  0
 36 75  1  0
 37 38  1  0
 37 76  1  0
 37 77  1  0
 38 78  1  0
 38 79  1  0
 39 80  1  0
 39 81  1  0
M  CHG  2  14   1  34   1
M  END
>  <i_m_ct_stereo_status>  (99) 
1

>  <s_m_source_file>  (99) 
/var/tmp/pbs.5076255.sched01/tmpokz5906q/0mijyat0o.sdf

>  <i_m_source_file_index>  (99) 
40

>  <i_lp_mmshare_version>  (99) 
48012

>  <i_f3d_flags>  (99) 
0

>  <s_epik_input>  (99) 
W0NIMl0xW0NIMl1bQ0hdMVtDSDJdTjJbQ0gyXVtDSDJdW0NAXShbQ0gyXUMoPVtDSDJdKVtDSDJdMykoW0NASF0zW0NASF0yYzRjNVtDQEBdNjc4KVtDQEBIXThbQ0BAXTcoW09IXSlbQ0gyXUM5KFtDSDJdYzFjKFtDSDJdOSlbY0hdW2NIXVtjSF1bY0hdMSlbQ0BIXTZOKFtDSDNdKVtDSDJdW0NIMl1jNVtjSF1bY0hdW2NIXTQ=

>  <s_epik_cmdline>  (99) 
J2VwaWtfcHl0aG9uJywgJy1waHQnLCAnMi4wJywgJy1waCcsICc3LjAnLCAnLXRuJywgJzgnLCAnLW1hJywgJzIwMCcsICctaW1hZScsICc8aW5maWxlLm1hZT4nLCAnLW9tYWUnLCAnPG91dGZpbGUubWFlPic=

>  <r_epik_Ionization_Penalty>  (99) 
0.0127211

>  <r_epik_Ionization_Penalty_Charging>  (99) 
0.0127207

>  <r_epik_Ionization_Penalty_Neutral>  (99) 
3.54563e-07

>  <r_epik_State_Penalty>  (99) 
0.00940023

>  <r_epik_Charging_Adjusted_Penalty>  (99) 
0.022121

>  <i_epik_Tot_Q>  (99) 
2

>  <i_epik_Tot_abs_Q>  (99) 
2

>  <s_lp_Force_Field>  (99) 
OPLS3e

>  <r_lp_Energy>  (99) 
153.293

>  <b_lp_Chiralities_Consistent>  (99) 
1

>  <s_lp_Variant>  (99) 
29:0-1

>  <s_i_glide_gridfile>  (99) 
pfpi4k_grid

>  <i_i_glide_lignum>  (99) 
40

>  <i_i_glide_rotatable_bonds>  (99) 
3

>  <r_i_docking_score>  (99) 
-2.0911

>  <r_i_glide_ligand_efficiency>  (99) 
-0.0536179

>  <r_i_glide_ligand_efficiency_sa>  (99) 
-0.18183

>  <r_i_glide_ligand_efficiency_ln>  (99) 
-0.448391

>  <r_i_glide_gscore>  (99) 
-2.0911

>  <r_i_glide_lipo>  (99) 
-0.443844

>  <r_i_glide_hbond>  (99) 
0

>  <r_i_glide_metal>  (99) 
-0

>  <r_i_glide_rewards>  (99) 
0

>  <r_i_glide_evdw>  (99) 
-26.253

>  <r_i_glide_ecoul>  (99) 
-3.24125

>  <r_i_glide_erotb>  (99) 
0.151584

>  <r_i_glide_esite>  (99) 
0

>  <r_i_glide_emodel>  (99) 
-31.7188

>  <r_i_glide_energy>  (99) 
-29.4943

>  <r_i_glide_einternal>  (99) 
1.94168

>  <r_i_glide_intrahb_reward>  (99) 
-0

>  <i_i_glide_confnum>  (99) 
4

>  <i_i_glide_posenum>  (99) 
4

>  <r_i_glide_eff_state_penalty>  (99) 
0

>  <ligand_id>  (99) 
29

>  <original_smiles>  (99) 
C=C1CC2C3c4cccc5c4C46C(N(C)CC5)C5(Cc7ccccc7C5)CC4(O)C6C2(CCN3CC2CC2)C1

>  <smiles>  (99) 
[H]OC12C([H])([H])C3(C([H])([H])c4c([H])c([H])c([H])c([H])c4C3([H])[H])C3([H])C14c1c(c([H])c([H])c([H])c1C1([H])C5([H])C([H])([H])C(=C([H])[H])C([H])([H])C5(C([H])([H])C([H])([H])[N+]1([H])C([H])([H])C1([H])C([H])([H])C1([H])[H])C24[H])C([H])([H])C([H])([H])[N+]3([H])C([H])([H])[H]

$$$$
29:0:1
     RDKit          3D

 83 92  0  0  1  0  0  0  0  0999 V2000
    2.5776   -0.0744   11.3675 C   0  0  0  0  0  0  0  0  0  0  0  0
    2.5800    0.6197   10.2212 C   0  0  0  0  0  0  0  0  0  0  0  0
    2.2522    2.0911   10.0826 C   0  0  0  0  0  0  0  0  0  0  0  0
    2.2691    2.3191    8.5508 C   0  0  2  0  0  0  0  0  0  0  0  0
    1.3914    3.4080    7.9314 C   0  0  1  0  0  0  0  0  0  0  0  0
    1.8671    3.9800    6.5746 C   0  0  0  0  0  0  0  0  0  0  0  0
    1.9920    5.3788    6.4215 C   0  0  0  0  0  0  0  0  0  0  0  0
    1.7932    5.9941    5.1792 C   0  0  0  0  0  0  0  0  0  0  0  0
    1.2987    5.2303    4.1157 C   0  0  0  0  0  0  0  0  0  0  0  0
    1.2147    3.8269    4.2240 C   0  0  0  0  0  0  0  0  0  0  0  0
    1.7355    3.1865    5.3769 C   0  0  0  0  0  0  0  0  0  0  0  0
    2.3291    1.7307    5.2325 C   0  0  1  0  0  0  0  0  0  0  0  0
    2.5952    1.1928    3.7501 C   0  0  2  0  0  0  0  0  0  0  0  0
    1.3849    0.8863    2.8969 N   0  0  2  0  0  0  0  0  0  0  0  0
    1.5663   -0.0096    1.7179 C   0  0  0  0  0  0  0  0  0  0  0  0
    0.7445    2.1074    2.3620 C   0  0  0  0  0  0  0  0  0  0  0  0
    0.1956    3.0218    3.4332 C   0  0  0  0  0  0  0  0  0  0  0  0
    3.7092    0.0530    3.8383 C   0  0  0  0  0  0  0  0  0  0  0  0
    4.6404   -0.1434    2.5837 C   0  0  0  0  0  0  0  0  0  0  0  0
    4.8442   -1.6320    2.4796 C   0  0  0  0  0  0  0  0  0  0  0  0
    5.7467   -2.3087    1.6395 C   0  0  0  0  0  0  0  0  0  0  0  0
    5.8083   -3.7181    1.7168 C   0  0  0  0  0  0  0  0  0  0  0  0
    4.9913   -4.4224    2.6313 C   0  0  0  0  0  0  0  0  0  0  0  0
    4.1018   -3.7264    3.4773 C   0  0  0  0  0  0  0  0  0  0  0  0
    4.0446   -2.3252    3.3767 C   0  0  0  0  0  0  0  0  0  0  0  0
    3.2088   -1.3977    4.2113 C   0  0  0  0  0  0  0  0  0  0  0  0
    4.5871    0.5736    4.9857 C   0  0  0  0  0  0  0  0  0  0  0  0
    3.6777    1.3632    5.8709 C   0  0  1  0  0  0  0  0  0  0  0  0
    4.3864    2.4363    6.4541 O   0  0  0  0  0  0  0  0  0  0  0  0
    2.4140    0.7945    6.4565 C   0  0  1  0  0  0  0  0  0  0  0  0
    1.9874    0.9573    7.9176 C   0  0  2  0  0  0  0  0  0  0  0  0
    0.4719    0.6603    8.0499 C   0  0  0  0  0  0  0  0  0  0  0  0
   -0.3870    1.7409    7.3896 C   0  0  0  0  0  0  0  0  0  0  0  0
   -0.0748    3.1030    7.9073 N   0  0  1  0  0  0  0  0  0  0  0  0
   -0.8382    3.4621    9.1350 C   0  0  0  0  0  0  0  0  0  0  0  0
   -2.3300    3.6432    8.8535 C   0  0  0  0  0  0  0  0  0  0  0  0
   -3.0307    4.9326    9.2068 C   0  0  0  0  0  0  0  0  0  0  0  0
   -3.3382    3.6861    9.9873 C   0  0  0  0  0  0  0  0  0  0  0  0
    2.7871    0.0275    8.8469 C   0  0  0  0  0  0  0  0  0  0  0  0
    2.7752   -1.1373   11.3724 H   0  0  0  0  0  0  0  0  0  0  0  0
    2.3638    0.4058   12.3117 H   0  0  0  0  0  0  0  0  0  0  0  0
    1.2877    2.2836   10.5453 H   0  0  0  0  0  0  0  0  0  0  0  0
    2.9969    2.7029   10.5951 H   0  0  0  0  0  0  0  0  0  0  0  0
    3.2997    2.6224    8.4333 H   0  0  0  0  0  0  0  0  0  0  0  0
    1.5163    4.2517    8.6121 H   0  0  0  0  0  0  0  0  0  0  0  0
    2.1461    5.9980    7.2910 H   0  0  0  0  0  0  0  0  0  0  0  0
    1.8445    7.0682    5.0997 H   0  0  0  0  0  0  0  0  0  0  0  0
    0.9013    5.7313    3.2442 H   0  0  0  0  0  0  0  0  0  0  0  0
    3.1100    2.0112    3.2438 H   0  0  0  0  0  0  0  0  0  0  0  0
    2.1075    0.4829    0.9072 H   0  0  0  0  0  0  0  0  0  0  0  0
    0.5843   -0.2553    1.3096 H   0  0  0  0  0  0  0  0  0  0  0  0
    2.0437   -0.9671    1.9123 H   0  0  0  0  0  0  0  0  0  0  0  0
    1.4195    2.6492    1.7018 H   0  0  0  0  0  0  0  0  0  0  0  0
   -0.1068    1.8200    1.7386 H   0  0  0  0  0  0  0  0  0  0  0  0
   -0.5024    2.4994    4.0887 H   0  0  0  0  0  0  0  0  0  0  0  0
   -0.4209    3.7526    2.9069 H   0  0  0  0  0  0  0  0  0  0  0  0
    4.1962    0.2127    1.6556 H   0  0  0  0  0  0  0  0  0  0  0  0
    5.6140    0.3392    2.6719 H   0  0  0  0  0  0  0  0  0  0  0  0
    6.3829   -1.7662    0.9571 H   0  0  0  0  0  0  0  0  0  0  0  0
    6.4859   -4.2638    1.0786 H   0  0  0  0  0  0  0  0  0  0  0  0
    5.0507   -5.4992    2.6850 H   0  0  0  0  0  0  0  0  0  0  0  0
    3.4894   -4.2595    4.1891 H   0  0  0  0  0  0  0  0  0  0  0  0
    3.3546   -1.6788    5.2544 H   0  0  0  0  0  0  0  0  0  0  0  0
    2.1570   -1.5663    3.9795 H   0  0  0  0  0  0  0  0  0  0  0  0
    5.0835   -0.2222    5.5412 H   0  0  0  0  0  0  0  0  0  0  0  0
    5.3766    1.2319    4.6201 H   0  0  0  0  0  0  0  0  0  0  0  0
    4.6295    3.0395    5.7709 H   0  0  0  0  0  0  0  0  0  0  0  0
    2.1472   -0.2161    6.1847 H   0  0  0  0  0  0  0  0  0  0  0  0
    0.2370   -0.3112    7.6185 H   0  0  0  0  0  0  0  0  0  0  0  0
    0.1808    0.5928    9.1018 H   0  0  0  0  0  0  0  0  0  0  0  0
   -0.2418    1.7280    6.3113 H   0  0  0  0  0  0  0  0  0  0  0  0
   -1.4329    1.4840    7.5383 H   0  0  0  0  0  0  0  0  0  0  0  0
   -0.7340    2.7000    9.9050 H   0  0  0  0  0  0  0  0  0  0  0  0
   -0.4605    4.3937    9.5671 H   0  0  0  0  0  0  0  0  0  0  0  0
   -2.7054    3.1548    7.9531 H   0  0  0  0  0  0  0  0  0  0  0  0
   -2.4583    5.7119    9.7078 H   0  0  0  0  0  0  0  0  0  0  0  0
   -3.7771    5.2794    8.4941 H   0  0  0  0  0  0  0  0  0  0  0  0
   -4.3111    3.2266    9.8128 H   0  0  0  0  0  0  0  0  0  0  0  0
   -2.9883    3.6437   11.0195 H   0  0  0  0  0  0  0  0  0  0  0  0
    3.8498    0.0996    8.6151 H   0  0  0  0  0  0  0  0  0  0  0  0
    2.4951   -1.0196    8.7793 H   0  0  0  0  0  0  0  0  0  0  0  0
    0.7135    0.4241    3.4931 H   0  0  0  0  0  0  0  0  0  0  0  0
   -0.4282    3.7558    7.2237 H   0  0  0  0  0  0  0  0  0  0  0  0
  1  2  2  0
  1 40  1  0
  1 41  1  0
  2 39  1  0
  2  3  1  0
  3  4  1  0
  3 42  1  0
  3 43  1  0
  4 31  1  0
  4  5  1  0
  4 44  1  6
  5 34  1  0
  5  6  1  0
  5 45  1  1
  6 11  2  0
  6  7  1  0
  7  8  2  0
  7 46  1  0
  8  9  1  0
  8 47  1  0
  9 10  2  0
  9 48  1  0
 10 17  1  0
 10 11  1  0
 12 11  1  6
 12 28  1  0
 12 30  1  0
 12 13  1  0
 13 14  1  0
 13 18  1  0
 13 49  1  6
 14 15  1  0
 14 16  1  0
 14 82  1  1
 15 50  1  0
 15 51  1  0
 15 52  1  0
 16 17  1  0
 16 53  1  0
 16 54  1  0
 17 55  1  0
 17 56  1  0
 18 26  1  0
 18 19  1  0
 18 27  1  0
 19 20  1  0
 19 57  1  0
 19 58  1  0
 20 25  2  0
 20 21  1  0
 21 22  2  0
 21 59  1  0
 22 23  1  0
 22 60  1  0
 23 24  2  0
 23 61  1  0
 24 25  1  0
 24 62  1  0
 25 26  1  0
 26 63  1  0
 26 64  1  0
 27 28  1  0
 27 65  1  0
 27 66  1  0
 28 29  1  1
 28 30  1  0
 29 67  1  0
 30 31  1  0
 30 68  1  6
 31 32  1  6
 31 39  1  0
 32 33  1  0
 32 69  1  0
 32 70  1  0
 33 34  1  0
 33 71  1  0
 33 72  1  0
 34 35  1  0
 34 83  1  6
 35 36  1  0
 35 73  1  0
 35 74  1  0
 36 38  1  0
 36 37  1  0
 36 75  1  0
 37 38  1  0
 37 76  1  0
 37 77  1  0
 38 78  1  0
 38 79  1  0
 39 80  1  0
 39 81  1  0
M  CHG  2  14   1  34   1
M  END
>  <i_m_ct_stereo_status>  (100) 
1

>  <s_m_source_file>  (100) 
/var/tmp/pbs.5076255.sched01/tmpokz5906q/0mijyat0o.sdf

>  <i_m_source_file_index>  (100) 
40

>  <i_lp_mmshare_version>  (100) 
48012

>  <i_f3d_flags>  (100) 
0

>  <s_epik_input>  (100) 
W0NIMl0xW0NIMl1bQ0hdMVtDSDJdTjJbQ0gyXVtDSDJdW0NAXShbQ0gyXUMoPVtDSDJdKVtDSDJdMykoW0NASF0zW0NASF0yYzRjNVtDQEBdNjc4KVtDQEBIXThbQ0BAXTcoW09IXSlbQ0gyXUM5KFtDSDJdYzFjKFtDSDJdOSlbY0hdW2NIXVtjSF1bY0hdMSlbQ0BIXTZOKFtDSDNdKVtDSDJdW0NIMl1jNVtjSF1bY0hdW2NIXTQ=

>  <s_epik_cmdline>  (100) 
J2VwaWtfcHl0aG9uJywgJy1waHQnLCAnMi4wJywgJy1waCcsICc3LjAnLCAnLXRuJywgJzgnLCAnLW1hJywgJzIwMCcsICctaW1hZScsICc8aW5maWxlLm1hZT4nLCAnLW9tYWUnLCAnPG91dGZpbGUubWFlPic=

>  <r_epik_Ionization_Penalty>  (100) 
0.0127211

>  <r_epik_Ionization_Penalty_Charging>  (100) 
0.0127207

>  <r_epik_Ionization_Penalty_Neutral>  (100) 
3.54563e-07

>  <r_epik_State_Penalty>  (100) 
0.00940023

>  <r_epik_Charging_Adjusted_Penalty>  (100) 
0.022121

>  <i_epik_Tot_Q>  (100) 
2

>  <i_epik_Tot_abs_Q>  (100) 
2

>  <s_lp_Force_Field>  (100) 
OPLS3e

>  <r_lp_Energy>  (100) 
153.293

>  <b_lp_Chiralities_Consistent>  (100) 
1

>  <s_lp_Variant>  (100) 
29:0-1

>  <s_i_glide_gridfile>  (100) 
pfpi4k_grid

>  <i_i_glide_lignum>  (100) 
40

>  <i_i_glide_rotatable_bonds>  (100) 
3

>  <r_i_docking_score>  (100) 
-2.02336

>  <r_i_glide_ligand_efficiency>  (100) 
-0.0518811

>  <r_i_glide_ligand_efficiency_sa>  (100) 
-0.17594

>  <r_i_glide_ligand_efficiency_ln>  (100) 
-0.433867

>  <r_i_glide_gscore>  (100) 
-2.02336

>  <r_i_glide_lipo>  (100) 
-0.390282

>  <r_i_glide_hbond>  (100) 
0

>  <r_i_glide_metal>  (100) 
-0

>  <r_i_glide_rewards>  (100) 
0

>  <r_i_glide_evdw>  (100) 
-22.3197

>  <r_i_glide_ecoul>  (100) 
-4.31932

>  <r_i_glide_erotb>  (100) 
0.151584

>  <r_i_glide_esite>  (100) 
-0.0207854

>  <r_i_glide_emodel>  (100) 
-29.1419

>  <r_i_glide_energy>  (100) 
-26.639

>  <r_i_glide_einternal>  (100) 
1.07606

>  <r_i_glide_intrahb_reward>  (100) 
-0

>  <i_i_glide_confnum>  (100) 
1

>  <i_i_glide_posenum>  (100) 
1

>  <r_i_glide_eff_state_penalty>  (100) 
0

>  <ligand_id>  (100) 
29

>  <original_smiles>  (100) 
C=C1CC2C3c4cccc5c4C46C(N(C)CC5)C5(Cc7ccccc7C5)CC4(O)C6C2(CCN3CC2CC2)C1

>  <smiles>  (100) 
[H]OC12C([H])([H])C3(C([H])([H])c4c([H])c([H])c([H])c([H])c4C3([H])[H])C3([H])C14c1c(c([H])c([H])c([H])c1C1([H])C5([H])C([H])([H])C(=C([H])[H])C([H])([H])C5(C([H])([H])C([H])([H])[N+]1([H])C([H])([H])C1([H])C([H])([H])C1([H])[H])C24[H])C([H])([H])C([H])([H])[N+]3([H])C([H])([H])[H]

$$$$
29:0:2
     RDKit          3D

 83 92  0  0  1  0  0  0  0  0999 V2000
    1.2364    1.5135    2.1705 C   0  0  0  0  0  0  0  0  0  0  0  0
    1.6524    0.6992    3.1541 C   0  0  0  0  0  0  0  0  0  0  0  0
    2.4576    1.1209    4.3624 C   0  0  0  0  0  0  0  0  0  0  0  0
    2.7675   -0.2200    5.0749 C   0  0  2  0  0  0  0  0  0  0  0  0
    4.0369   -0.3672    5.9176 C   0  0  1  0  0  0  0  0  0  0  0  0
    4.0002   -1.4406    7.0294 C   0  0  0  0  0  0  0  0  0  0  0  0
    4.3594   -1.0743    8.3442 C   0  0  0  0  0  0  0  0  0  0  0  0
    4.9546   -1.9985    9.2147 C   0  0  0  0  0  0  0  0  0  0  0  0
    5.3504   -3.2418    8.7138 C   0  0  0  0  0  0  0  0  0  0  0  0
    4.9628   -3.6495    7.4209 C   0  0  0  0  0  0  0  0  0  0  0  0
    4.0727   -2.8328    6.6731 C   0  0  0  0  0  0  0  0  0  0  0  0
    3.0832   -3.5231    5.6595 C   0  0  1  0  0  0  0  0  0  0  0  0
    2.9121   -5.1071    5.7659 C   0  0  2  0  0  0  0  0  0  0  0  0
    4.0865   -5.9614    5.3410 N   0  0  2  0  0  0  0  0  0  0  0  0
    3.8255   -7.3959    5.0052 C   0  0  0  0  0  0  0  0  0  0  0  0
    5.1684   -5.9878    6.3516 C   0  0  0  0  0  0  0  0  0  0  0  0
    5.7894   -4.6320    6.6078 C   0  0  0  0  0  0  0  0  0  0  0  0
    1.4957   -5.4885    5.1429 C   0  0  0  0  0  0  0  0  0  0  0  0
    0.7762   -6.7656    5.7175 C   0  0  0  0  0  0  0  0  0  0  0  0
    0.1196   -7.3994    4.5184 C   0  0  0  0  0  0  0  0  0  0  0  0
   -0.7930   -8.4673    4.5174 C   0  0  0  0  0  0  0  0  0  0  0  0
   -1.3203   -8.9015    3.2832 C   0  0  0  0  0  0  0  0  0  0  0  0
   -0.9468   -8.2714    2.0843 C   0  0  0  0  0  0  0  0  0  0  0  0
   -0.0259   -7.2031    2.0918 C   0  0  0  0  0  0  0  0  0  0  0  0
    0.4926   -6.7841    3.3317 C   0  0  0  0  0  0  0  0  0  0  0  0
    1.4367   -5.6451    3.5729 C   0  0  0  0  0  0  0  0  0  0  0  0
    0.6497   -4.2726    5.5347 C   0  0  0  0  0  0  0  0  0  0  0  0
    1.5967   -3.1266    5.6123 C   0  0  1  0  0  0  0  0  0  0  0  0
    1.1669   -2.2510    6.6316 O   0  0  0  0  0  0  0  0  0  0  0  0
    2.5003   -2.7255    4.4727 C   0  0  1  0  0  0  0  0  0  0  0  0
    2.7050   -1.2907    3.9871 C   0  0  2  0  0  0  0  0  0  0  0  0
    4.0049   -1.2074    3.1406 C   0  0  0  0  0  0  0  0  0  0  0  0
    5.2674   -1.3832    3.9918 C   0  0  0  0  0  0  0  0  0  0  0  0
    5.3106   -0.4335    5.1357 N   0  0  1  0  0  0  0  0  0  0  0  0
    5.9024    0.8881    4.7945 C   0  0  0  0  0  0  0  0  0  0  0  0
    7.2119    1.1203    5.5287 C   0  0  0  0  0  0  0  0  0  0  0  0
    7.1911    1.5623    6.9741 C   0  0  0  0  0  0  0  0  0  0  0  0
    7.6574    2.5217    5.9152 C   0  0  0  0  0  0  0  0  0  0  0  0
    1.5034   -0.8014    3.1575 C   0  0  0  0  0  0  0  0  0  0  0  0
    0.7114    1.1218    1.3110 H   0  0  0  0  0  0  0  0  0  0  0  0
    1.4266    2.5772    2.2025 H   0  0  0  0  0  0  0  0  0  0  0  0
    3.3406    1.6512    4.0117 H   0  0  0  0  0  0  0  0  0  0  0  0
    1.8808    1.7951    4.9989 H   0  0  0  0  0  0  0  0  0  0  0  0
    1.9195   -0.2644    5.7458 H   0  0  0  0  0  0  0  0  0  0  0  0
    4.0835    0.5625    6.4835 H   0  0  0  0  0  0  0  0  0  0  0  0
    4.2744   -0.0473    8.6585 H   0  0  0  0  0  0  0  0  0  0  0  0
    5.2644   -1.6803   10.1958 H   0  0  0  0  0  0  0  0  0  0  0  0
    6.0331   -3.8454    9.2921 H   0  0  0  0  0  0  0  0  0  0  0  0
    2.7810   -5.3035    6.8314 H   0  0  0  0  0  0  0  0  0  0  0  0
    3.6131   -7.9913    5.8967 H   0  0  0  0  0  0  0  0  0  0  0  0
    4.7259   -7.8330    4.5658 H   0  0  0  0  0  0  0  0  0  0  0  0
    3.0394   -7.5834    4.2792 H   0  0  0  0  0  0  0  0  0  0  0  0
    4.8331   -6.4350    7.2866 H   0  0  0  0  0  0  0  0  0  0  0  0
    5.9739   -6.6323    5.9886 H   0  0  0  0  0  0  0  0  0  0  0  0
    6.1634   -4.1825    5.6866 H   0  0  0  0  0  0  0  0  0  0  0  0
    6.6855   -4.8277    7.1984 H   0  0  0  0  0  0  0  0  0  0  0  0
    1.4602   -7.4874    6.1622 H   0  0  0  0  0  0  0  0  0  0  0  0
    0.0217   -6.5570    6.4799 H   0  0  0  0  0  0  0  0  0  0  0  0
   -1.0855   -8.9612    5.4301 H   0  0  0  0  0  0  0  0  0  0  0  0
   -2.0021   -9.7388    3.2636 H   0  0  0  0  0  0  0  0  0  0  0  0
   -1.3564   -8.6408    1.1530 H   0  0  0  0  0  0  0  0  0  0  0  0
    0.2731   -6.7338    1.1678 H   0  0  0  0  0  0  0  0  0  0  0  0
    1.0360   -4.7828    3.0403 H   0  0  0  0  0  0  0  0  0  0  0  0
    2.4009   -5.8830    3.1228 H   0  0  0  0  0  0  0  0  0  0  0  0
   -0.1645   -4.0654    4.8400 H   0  0  0  0  0  0  0  0  0  0  0  0
    0.1937   -4.4010    6.5178 H   0  0  0  0  0  0  0  0  0  0  0  0
    1.7670   -1.5239    6.6608 H   0  0  0  0  0  0  0  0  0  0  0  0
    2.4746   -3.3318    3.5789 H   0  0  0  0  0  0  0  0  0  0  0  0
    3.9853   -1.9532    2.3461 H   0  0  0  0  0  0  0  0  0  0  0  0
    4.0743   -0.2409    2.6345 H   0  0  0  0  0  0  0  0  0  0  0  0
    5.3150   -2.4019    4.3722 H   0  0  0  0  0  0  0  0  0  0  0  0
    6.1444   -1.2669    3.3527 H   0  0  0  0  0  0  0  0  0  0  0  0
    6.1073    0.9482    3.7275 H   0  0  0  0  0  0  0  0  0  0  0  0
    5.2373    1.7186    5.0255 H   0  0  0  0  0  0  0  0  0  0  0  0
    8.0244    0.4571    5.2277 H   0  0  0  0  0  0  0  0  0  0  0  0
    6.2144    1.7374    7.4242 H   0  0  0  0  0  0  0  0  0  0  0  0
    7.9447    1.1305    7.6320 H   0  0  0  0  0  0  0  0  0  0  0  0
    8.7228    2.7505    5.9051 H   0  0  0  0  0  0  0  0  0  0  0  0
    7.0064    3.3677    5.6979 H   0  0  0  0  0  0  0  0  0  0  0  0
    0.5750   -1.0368    3.6777 H   0  0  0  0  0  0  0  0  0  0  0  0
    1.4500   -1.2312    2.1592 H   0  0  0  0  0  0  0  0  0  0  0  0
    4.4622   -5.5511    4.4972 H   0  0  0  0  0  0  0  0  0  0  0  0
    5.9764   -0.8175    5.7902 H   0  0  0  0  0  0  0  0  0  0  0  0
  1  2  2  0
  1 40  1  0
  1 41  1  0
  2 39  1  0
  2  3  1  0
  3  4  1  0
  3 42  1  0
  3 43  1  0
  4 31  1  0
  4  5  1  0
  4 44  1  1
  5 34  1  0
  5  6  1  0
  5 45  1  1
  6 11  2  0
  6  7  1  0
  7  8  2  0
  7 46  1  0
  8  9  1  0
  8 47  1  0
  9 10  2  0
  9 48  1  0
 10 17  1  0
 10 11  1  0
 12 11  1  1
 12 28  1  0
 12 30  1  0
 12 13  1  0
 13 14  1  0
 13 18  1  0
 13 49  1  1
 14 15  1  0
 14 16  1  0
 14 82  1  6
 15 50  1  0
 15 51  1  0
 15 52  1  0
 16 17  1  0
 16 53  1  0
 16 54  1  0
 17 55  1  0
 17 56  1  0
 18 26  1  0
 18 19  1  0
 18 27  1  0
 19 20  1  0
 19 57  1  0
 19 58  1  0
 20 25  2  0
 20 21  1  0
 21 22  2  0
 21 59  1  0
 22 23  1  0
 22 60  1  0
 23 24  2  0
 23 61  1  0
 24 25  1  0
 24 62  1  0
 25 26  1  0
 26 63  1  0
 26 64  1  0
 27 28  1  0
 27 65  1  0
 27 66  1  0
 28 29  1  1
 28 30  1  0
 29 67  1  0
 30 31  1  0
 30 68  1  6
 31 32  1  6
 31 39  1  0
 32 33  1  0
 32 69  1  0
 32 70  1  0
 33 34  1  0
 33 71  1  0
 33 72  1  0
 34 35  1  0
 34 83  1  1
 35 36  1  0
 35 73  1  0
 35 74  1  0
 36 38  1  0
 36 37  1  0
 36 75  1  0
 37 38  1  0
 37 76  1  0
 37 77  1  0
 38 78  1  0
 38 79  1  0
 39 80  1  0
 39 81  1  0
M  CHG  2  14   1  34   1
M  END
>  <i_m_ct_stereo_status>  (101) 
1

>  <s_m_source_file>  (101) 
/var/tmp/pbs.5076255.sched01/tmpokz5906q/0mijyat0o.sdf

>  <i_m_source_file_index>  (101) 
40

>  <i_lp_mmshare_version>  (101) 
48012

>  <i_f3d_flags>  (101) 
0

>  <s_epik_input>  (101) 
W0NIMl0xW0NIMl1bQ0hdMVtDSDJdTjJbQ0gyXVtDSDJdW0NAXShbQ0gyXUMoPVtDSDJdKVtDSDJdMykoW0NASF0zW0NASF0yYzRjNVtDQEBdNjc4KVtDQEBIXThbQ0BAXTcoW09IXSlbQ0gyXUM5KFtDSDJdYzFjKFtDSDJdOSlbY0hdW2NIXVtjSF1bY0hdMSlbQ0BIXTZOKFtDSDNdKVtDSDJdW0NIMl1jNVtjSF1bY0hdW2NIXTQ=

>  <s_epik_cmdline>  (101) 
J2VwaWtfcHl0aG9uJywgJy1waHQnLCAnMi4wJywgJy1waCcsICc3LjAnLCAnLXRuJywgJzgnLCAnLW1hJywgJzIwMCcsICctaW1hZScsICc8aW5maWxlLm1hZT4nLCAnLW9tYWUnLCAnPG91dGZpbGUubWFlPic=

>  <r_epik_Ionization_Penalty>  (101) 
0.0127211

>  <r_epik_Ionization_Penalty_Charging>  (101) 
0.0127207

>  <r_epik_Ionization_Penalty_Neutral>  (101) 
3.54563e-07

>  <r_epik_State_Penalty>  (101) 
0.00940023

>  <r_epik_Charging_Adjusted_Penalty>  (101) 
0.022121

>  <i_epik_Tot_Q>  (101) 
2

>  <i_epik_Tot_abs_Q>  (101) 
2

>  <s_lp_Force_Field>  (101) 
OPLS3e

>  <r_lp_Energy>  (101) 
153.293

>  <b_lp_Chiralities_Consistent>  (101) 
1

>  <s_lp_Variant>  (101) 
29:0-1

>  <s_i_glide_gridfile>  (101) 
pfpi4k_grid

>  <i_i_glide_lignum>  (101) 
40

>  <i_i_glide_rotatable_bonds>  (101) 
3

>  <r_i_docking_score>  (101) 
-1.93411

>  <r_i_glide_ligand_efficiency>  (101) 
-0.0495925

>  <r_i_glide_ligand_efficiency_sa>  (101) 
-0.168179

>  <r_i_glide_ligand_efficiency_ln>  (101) 
-0.414728

>  <r_i_glide_gscore>  (101) 
-1.93411

>  <r_i_glide_lipo>  (101) 
-0.395415

>  <r_i_glide_hbond>  (101) 
0

>  <r_i_glide_metal>  (101) 
-0

>  <r_i_glide_rewards>  (101) 
0

>  <r_i_glide_evdw>  (101) 
-22.4549

>  <r_i_glide_ecoul>  (101) 
-3.78355

>  <r_i_glide_erotb>  (101) 
0.151584

>  <r_i_glide_esite>  (101) 
0

>  <r_i_glide_emodel>  (101) 
-27.9043

>  <r_i_glide_energy>  (101) 
-26.2384

>  <r_i_glide_einternal>  (101) 
2.38462

>  <r_i_glide_intrahb_reward>  (101) 
-0

>  <i_i_glide_confnum>  (101) 
3

>  <i_i_glide_posenum>  (101) 
3

>  <r_i_glide_eff_state_penalty>  (101) 
0

>  <ligand_id>  (101) 
29

>  <original_smiles>  (101) 
C=C1CC2C3c4cccc5c4C46C(N(C)CC5)C5(Cc7ccccc7C5)CC4(O)C6C2(CCN3CC2CC2)C1

>  <smiles>  (101) 
[H]OC12C([H])([H])C3(C([H])([H])c4c([H])c([H])c([H])c([H])c4C3([H])[H])C3([H])C14c1c(c([H])c([H])c([H])c1C1([H])C5([H])C([H])([H])C(=C([H])[H])C([H])([H])C5(C([H])([H])C([H])([H])[N+]1([H])C([H])([H])C1([H])C([H])([H])C1([H])[H])C24[H])C([H])([H])C([H])([H])[N+]3([H])C([H])([H])[H]

$$$$
29:1:0
     RDKit          3D

 82 91  0  0  1  0  0  0  0  0999 V2000
   -1.6384   -4.2601    6.9215 C   0  0  0  0  0  0  0  0  0  0  0  0
   -0.4673   -3.7465    6.5316 C   0  0  0  0  0  0  0  0  0  0  0  0
    0.0502   -2.3648    6.8690 C   0  0  0  0  0  0  0  0  0  0  0  0
    1.2915   -2.2046    5.9630 C   0  0  2  0  0  0  0  0  0  0  0  0
    1.6658   -0.8386    5.3879 C   0  0  1  0  0  0  0  0  0  0  0  0
    3.1693   -0.6165    5.1435 C   0  0  0  0  0  0  0  0  0  0  0  0
    3.7358    0.5200    5.7386 C   0  0  0  0  0  0  0  0  0  0  0  0
    4.9559    1.0541    5.3050 C   0  0  0  0  0  0  0  0  0  0  0  0
    5.5438    0.4826    4.1634 C   0  0  0  0  0  0  0  0  0  0  0  0
    5.0078   -0.6123    3.5173 C   0  0  0  0  0  0  0  0  0  0  0  0
    3.8956   -1.3269    4.1029 C   0  0  0  0  0  0  0  0  0  0  0  0
    3.6805   -2.8441    3.7381 C   0  0  1  0  0  0  0  0  0  0  0  0
    4.6633   -3.4704    2.6850 C   0  0  2  0  0  0  0  0  0  0  0  0
    4.4190   -3.0295    1.2709 N   0  0  2  0  0  0  0  0  0  0  0  0
    5.3521   -3.5879    0.2498 C   0  0  0  0  0  0  0  0  0  0  0  0
    4.3616   -1.5573    1.1593 C   0  0  0  0  0  0  0  0  0  0  0  0
    5.4014   -0.8886    2.0570 C   0  0  0  0  0  0  0  0  0  0  0  0
    4.7788   -5.0334    2.9255 C   0  0  0  0  0  0  0  0  0  0  0  0
    6.1827   -5.6880    2.6145 C   0  0  0  0  0  0  0  0  0  0  0  0
    5.8569   -7.0129    2.0134 C   0  0  0  0  0  0  0  0  0  0  0  0
    6.7529   -8.0696    1.7580 C   0  0  0  0  0  0  0  0  0  0  0  0
    6.2130   -9.2589    1.2080 C   0  0  0  0  0  0  0  0  0  0  0  0
    4.8441   -9.3515    0.9338 C   0  0  0  0  0  0  0  0  0  0  0  0
    3.9615   -8.3202    1.2264 C   0  0  0  0  0  0  0  0  0  0  0  0
    4.4977   -7.1344    1.7623 C   0  0  0  0  0  0  0  0  0  0  0  0
    3.7273   -5.9223    2.1650 C   0  0  0  0  0  0  0  0  0  0  0  0
    4.5453   -5.1397    4.4439 C   0  0  0  0  0  0  0  0  0  0  0  0
    3.7289   -3.9430    4.8049 C   0  0  1  0  0  0  0  0  0  0  0  0
    3.9963   -3.5183    6.1115 O   0  0  0  0  0  0  0  0  0  0  0  0
    2.4266   -3.6339    4.1433 C   0  0  1  0  0  0  0  0  0  0  0  0
    1.1506   -3.2222    4.8512 C   0  0  2  0  0  0  0  0  0  0  0  0
    0.2183   -2.6339    3.7918 C   0  0  0  0  0  0  0  0  0  0  0  0
    0.7010   -1.2976    3.2365 C   0  0  0  0  0  0  0  0  0  0  0  0
    0.8256   -0.3120    4.2964 N   0  0  0  0  0  0  0  0  0  0  0  0
   -0.4509    0.2931    4.7183 C   0  0  0  0  0  0  0  0  0  0  0  0
   -1.1332    1.1266    3.6331 C   0  0  0  0  0  0  0  0  0  0  0  0
   -0.9499    2.6217    3.5649 C   0  0  0  0  0  0  0  0  0  0  0  0
   -2.2672    2.0621    4.0023 C   0  0  0  0  0  0  0  0  0  0  0  0
    0.4826   -4.4084    5.5650 C   0  0  0  0  0  0  0  0  0  0  0  0
   -1.9529   -5.2349    6.5797 H   0  0  0  0  0  0  0  0  0  0  0  0
   -2.3160   -3.7159    7.5580 H   0  0  0  0  0  0  0  0  0  0  0  0
   -0.7279   -1.6295    6.6904 H   0  0  0  0  0  0  0  0  0  0  0  0
    0.3313   -2.3151    7.9214 H   0  0  0  0  0  0  0  0  0  0  0  0
    2.0690   -2.4758    6.6592 H   0  0  0  0  0  0  0  0  0  0  0  0
    1.4573   -0.1740    6.2180 H   0  0  0  0  0  0  0  0  0  0  0  0
    3.1899    1.0613    6.4990 H   0  0  0  0  0  0  0  0  0  0  0  0
    5.3325    1.9606    5.7310 H   0  0  0  0  0  0  0  0  0  0  0  0
    6.4020    0.9535    3.7046 H   0  0  0  0  0  0  0  0  0  0  0  0
    5.6611   -3.1565    2.9860 H   0  0  0  0  0  0  0  0  0  0  0  0
    6.3898   -3.3115    0.4402 H   0  0  0  0  0  0  0  0  0  0  0  0
    5.1089   -3.2088   -0.7441 H   0  0  0  0  0  0  0  0  0  0  0  0
    5.2906   -4.6720    0.1683 H   0  0  0  0  0  0  0  0  0  0  0  0
    4.5454   -1.2538    0.1265 H   0  0  0  0  0  0  0  0  0  0  0  0
    3.3599   -1.1828    1.3715 H   0  0  0  0  0  0  0  0  0  0  0  0
    5.5745    0.0877    1.6061 H   0  0  0  0  0  0  0  0  0  0  0  0
    6.3855   -1.3678    2.0118 H   0  0  0  0  0  0  0  0  0  0  0  0
    6.7872   -5.1267    1.8960 H   0  0  0  0  0  0  0  0  0  0  0  0
    6.8195   -5.8531    3.4908 H   0  0  0  0  0  0  0  0  0  0  0  0
    7.8059   -7.9898    1.9568 H   0  0  0  0  0  0  0  0  0  0  0  0
    6.8631  -10.0876    0.9642 H   0  0  0  0  0  0  0  0  0  0  0  0
    4.4551  -10.2433    0.4594 H   0  0  0  0  0  0  0  0  0  0  0  0
    2.9002   -8.4202    1.0377 H   0  0  0  0  0  0  0  0  0  0  0  0
    2.8776   -6.2557    2.7659 H   0  0  0  0  0  0  0  0  0  0  0  0
    3.3280   -5.4677    1.2563 H   0  0  0  0  0  0  0  0  0  0  0  0
    4.0363   -6.0628    4.7316 H   0  0  0  0  0  0  0  0  0  0  0  0
    5.4777   -5.1061    5.0154 H   0  0  0  0  0  0  0  0  0  0  0  0
    4.9106   -3.2939    6.1617 H   0  0  0  0  0  0  0  0  0  0  0  0
    2.1227   -4.2966    3.3467 H   0  0  0  0  0  0  0  0  0  0  0  0
    0.2478   -3.3238    2.9614 H   0  0  0  0  0  0  0  0  0  0  0  0
   -0.8035   -2.5312    4.1692 H   0  0  0  0  0  0  0  0  0  0  0  0
    1.6489   -1.4342    2.7253 H   0  0  0  0  0  0  0  0  0  0  0  0
    0.0335   -0.9425    2.4680 H   0  0  0  0  0  0  0  0  0  0  0  0
   -1.1693   -0.4590    5.0356 H   0  0  0  0  0  0  0  0  0  0  0  0
   -0.2670    0.9517    5.5716 H   0  0  0  0  0  0  0  0  0  0  0  0
   -1.3085    0.6276    2.6817 H   0  0  0  0  0  0  0  0  0  0  0  0
   -0.3487    3.1171    4.3231 H   0  0  0  0  0  0  0  0  0  0  0  0
   -0.9203    3.0499    2.5649 H   0  0  0  0  0  0  0  0  0  0  0  0
   -3.0703    2.2355    3.2862 H   0  0  0  0  0  0  0  0  0  0  0  0
   -2.5490    2.1092    5.0528 H   0  0  0  0  0  0  0  0  0  0  0  0
    1.2336   -4.9274    6.1594 H   0  0  0  0  0  0  0  0  0  0  0  0
    0.0036   -5.1365    4.9055 H   0  0  0  0  0  0  0  0  0  0  0  0
    3.5024   -3.3587    0.9946 H   0  0  0  0  0  0  0  0  0  0  0  0
  1  2  2  0
  1 40  1  0
  1 41  1  0
  2 39  1  0
  2  3  1  0
  3  4  1  0
  3 42  1  0
  3 43  1  0
  4 31  1  0
  4  5  1  0
  4 44  1  1
  5 34  1  0
  5  6  1  0
  5 45  1  1
  6 11  2  0
  6  7  1  0
  7  8  2  0
  7 46  1  0
  8  9  1  0
  8 47  1  0
  9 10  2  0
  9 48  1  0
 10 17  1  0
 10 11  1  0
 12 11  1  1
 12 28  1  0
 12 30  1  0
 12 13  1  0
 13 14  1  0
 13 18  1  0
 13 49  1  1
 14 15  1  0
 14 16  1  0
 14 82  1  6
 15 50  1  0
 15 51  1  0
 15 52  1  0
 16 17  1  0
 16 53  1  0
 16 54  1  0
 17 55  1  0
 17 56  1  0
 18 26  1  0
 18 19  1  0
 18 27  1  0
 19 20  1  0
 19 57  1  0
 19 58  1  0
 20 25  2  0
 20 21  1  0
 21 22  2  0
 21 59  1  0
 22 23  1  0
 22 60  1  0
 23 24  2  0
 23 61  1  0
 24 25  1  0
 24 62  1  0
 25 26  1  0
 26 63  1  0
 26 64  1  0
 27 28  1  0
 27 65  1  0
 27 66  1  0
 28 29  1  1
 28 30  1  0
 29 67  1  0
 30 31  1  0
 30 68  1  6
 31 32  1  6
 31 39  1  0
 32 33  1  0
 32 69  1  0
 32 70  1  0
 33 34  1  0
 33 71  1  0
 33 72  1  0
 34 35  1  0
 35 36  1  0
 35 73  1  0
 35 74  1  0
 36 38  1  0
 36 37  1  0
 36 75  1  0
 37 38  1  0
 37 76  1  0
 37 77  1  0
 38 78  1  0
 38 79  1  0
 39 80  1  0
 39 81  1  0
M  CHG  1  14   1
M  END
>  <i_m_ct_stereo_status>  (102) 
1

>  <s_m_source_file>  (102) 
/var/tmp/pbs.5076255.sched01/tmp0glzbzrw/400n8fk_jm.sdf

>  <i_m_source_file_index>  (102) 
1

>  <i_lp_mmshare_version>  (102) 
48012

>  <i_f3d_flags>  (102) 
0

>  <s_epik_input>  (102) 
W0NIMl0xW0NIMl1bQ0hdMVtDSDJdTjJbQ0gyXVtDSDJdW0NAXShbQ0gyXUMoPVtDSDJdKVtDSDJdMykoW0NASF0zW0NASF0yYzRjNVtDQEBdNjc4KVtDQEBIXThbQ0BAXTcoW09IXSlbQ0gyXUM5KFtDSDJdYzFjKFtDSDJdOSlbY0hdW2NIXVtjSF1bY0hdMSlbQ0BIXTZOKFtDSDNdKVtDSDJdW0NIMl1jNVtjSF1bY0hdW2NIXTQ=

>  <s_epik_cmdline>  (102) 
J2VwaWtfcHl0aG9uJywgJy1waHQnLCAnMi4wJywgJy1waCcsICc3LjAnLCAnLXRuJywgJzgnLCAnLW1hJywgJzIwMCcsICctaW1hZScsICc8aW5maWxlLm1hZT4nLCAnLW9tYWUnLCAnPG91dGZpbGUubWFlPic=

>  <r_epik_Ionization_Penalty>  (102) 
2.53811

>  <r_epik_Ionization_Penalty_Charging>  (102) 
0.00396579

>  <r_epik_Ionization_Penalty_Neutral>  (102) 
2.53415

>  <r_epik_State_Penalty>  (102) 
2.7047

>  <r_epik_Charging_Adjusted_Penalty>  (102) 
2.70867

>  <i_epik_Tot_Q>  (102) 
1

>  <i_epik_Tot_abs_Q>  (102) 
1

>  <s_lp_Force_Field>  (102) 
OPLS3e

>  <r_lp_Energy>  (102) 
138.848

>  <b_lp_Chiralities_Consistent>  (102) 
1

>  <s_lp_Variant>  (102) 
29:0-2

>  <s_i_glide_gridfile>  (102) 
pfpi4k_grid

>  <i_i_glide_lignum>  (102) 
1

>  <i_i_glide_rotatable_bonds>  (102) 
3

>  <r_i_docking_score>  (102) 
-2.18555

>  <r_i_glide_ligand_efficiency>  (102) 
-0.0560398

>  <r_i_glide_ligand_efficiency_sa>  (102) 
-0.190043

>  <r_i_glide_ligand_efficiency_ln>  (102) 
-0.468644

>  <r_i_glide_gscore>  (102) 
-2.18555

>  <r_i_glide_lipo>  (102) 
-0.839035

>  <r_i_glide_hbond>  (102) 
0

>  <r_i_glide_metal>  (102) 
-0

>  <r_i_glide_rewards>  (102) 
0

>  <r_i_glide_evdw>  (102) 
-22.0796

>  <r_i_glide_ecoul>  (102) 
-2.6311

>  <r_i_glide_erotb>  (102) 
0.152125

>  <r_i_glide_esite>  (102) 
0

>  <r_i_glide_emodel>  (102) 
-28.0172

>  <r_i_glide_energy>  (102) 
-24.7107

>  <r_i_glide_einternal>  (102) 
0.0100398

>  <r_i_glide_intrahb_reward>  (102) 
-0

>  <i_i_glide_confnum>  (102) 
3

>  <i_i_glide_posenum>  (102) 
7

>  <r_i_glide_eff_state_penalty>  (102) 
0

>  <ligand_id>  (102) 
29

>  <original_smiles>  (102) 
C=C1CC2C3c4cccc5c4C46C(N(C)CC5)C5(Cc7ccccc7C5)CC4(O)C6C2(CCN3CC2CC2)C1

>  <smiles>  (102) 
[H]OC12C([H])([H])C3(C([H])([H])c4c([H])c([H])c([H])c([H])c4C3([H])[H])C3([H])C14c1c(c([H])c([H])c([H])c1C1([H])N(C([H])([H])C5([H])C([H])([H])C5([H])[H])C([H])([H])C([H])([H])C5(C([H])([H])C(=C([H])[H])C([H])([H])C15[H])C24[H])C([H])([H])C([H])([H])[N+]3([H])C([H])([H])[H]

$$$$
29:1:1
     RDKit          3D

 82 91  0  0  1  0  0  0  0  0999 V2000
    1.7713   -1.2615   10.9391 C   0  0  0  0  0  0  0  0  0  0  0  0
    1.9236   -0.3578    9.9617 C   0  0  0  0  0  0  0  0  0  0  0  0
    1.8649    1.1431   10.1362 C   0  0  0  0  0  0  0  0  0  0  0  0
    1.8027    1.6745    8.6814 C   0  0  2  0  0  0  0  0  0  0  0  0
    1.0144    2.9423    8.3496 C   0  0  1  0  0  0  0  0  0  0  0  0
    1.5697    3.7776    7.1753 C   0  0  0  0  0  0  0  0  0  0  0  0
    1.8197    5.1442    7.4314 C   0  0  0  0  0  0  0  0  0  0  0  0
    1.9200    6.0858    6.4089 C   0  0  0  0  0  0  0  0  0  0  0  0
    1.6238    5.6882    5.1055 C   0  0  0  0  0  0  0  0  0  0  0  0
    1.3796    4.3378    4.7914 C   0  0  0  0  0  0  0  0  0  0  0  0
    1.5293    3.3167    5.7986 C   0  0  0  0  0  0  0  0  0  0  0  0
    1.8049    1.8101    5.3625 C   0  0  1  0  0  0  0  0  0  0  0  0
    1.8427    1.5105    3.8163 C   0  0  2  0  0  0  0  0  0  0  0  0
    0.4987    1.5337    3.1545 N   0  0  2  0  0  0  0  0  0  0  0  0
    0.5030    1.2852    1.6906 C   0  0  0  0  0  0  0  0  0  0  0  0
   -0.2362    2.7838    3.4446 C   0  0  0  0  0  0  0  0  0  0  0  0
    0.6912    4.0071    3.4689 C   0  0  0  0  0  0  0  0  0  0  0  0
    2.7440    0.2295    3.5422 C   0  0  0  0  0  0  0  0  0  0  0  0
    3.5669    0.2260    2.1971 C   0  0  0  0  0  0  0  0  0  0  0  0
    3.5155   -1.2004    1.7174 C   0  0  0  0  0  0  0  0  0  0  0  0
    4.2581   -1.7701    0.6664 C   0  0  0  0  0  0  0  0  0  0  0  0
    4.0816   -3.1453    0.3911 C   0  0  0  0  0  0  0  0  0  0  0  0
    3.1957   -3.9232    1.1661 C   0  0  0  0  0  0  0  0  0  0  0  0
    2.4746   -3.3393    2.2317 C   0  0  0  0  0  0  0  0  0  0  0  0
    2.6484   -1.9661    2.4800 C   0  0  0  0  0  0  0  0  0  0  0  0
    2.0065   -1.1624    3.5744 C   0  0  0  0  0  0  0  0  0  0  0  0
    3.7520    0.3066    4.7046 C   0  0  0  0  0  0  0  0  0  0  0  0
    3.0587    1.0503    5.8037 C   0  0  1  0  0  0  0  0  0  0  0  0
    3.9760    1.7796    6.5836 O   0  0  0  0  0  0  0  0  0  0  0  0
    1.7223    0.6157    6.3356 C   0  0  1  0  0  0  0  0  0  0  0  0
    1.3467    0.5132    7.8074 C   0  0  2  0  0  0  0  0  0  0  0  0
   -0.1916    0.3860    7.9184 C   0  0  0  0  0  0  0  0  0  0  0  0
   -0.8854    1.6832    7.4888 C   0  0  0  0  0  0  0  0  0  0  0  0
   -0.4590    2.8044    8.3233 N   0  0  0  0  0  0  0  0  0  0  0  0
   -1.0922    2.8587    9.6519 C   0  0  0  0  0  0  0  0  0  0  0  0
   -2.6085    2.9805    9.5914 C   0  0  0  0  0  0  0  0  0  0  0  0
   -3.2978    4.3212    9.5714 C   0  0  0  0  0  0  0  0  0  0  0  0
   -3.3741    3.4552   10.8044 C   0  0  0  0  0  0  0  0  0  0  0  0
    2.0350   -0.6801    8.4907 C   0  0  0  0  0  0  0  0  0  0  0  0
    1.7732   -2.3205   10.7207 H   0  0  0  0  0  0  0  0  0  0  0  0
    1.6277   -0.9523   11.9646 H   0  0  0  0  0  0  0  0  0  0  0  0
    1.0129    1.4049   10.7528 H   0  0  0  0  0  0  0  0  0  0  0  0
    2.7590    1.4980   10.6511 H   0  0  0  0  0  0  0  0  0  0  0  0
    2.8462    1.9156    8.5429 H   0  0  0  0  0  0  0  0  0  0  0  0
    1.2184    3.5784    9.2094 H   0  0  0  0  0  0  0  0  0  0  0  0
    1.8602    5.4926    8.4501 H   0  0  0  0  0  0  0  0  0  0  0  0
    2.0715    7.1286    6.6388 H   0  0  0  0  0  0  0  0  0  0  0  0
    1.5209    6.4370    4.3334 H   0  0  0  0  0  0  0  0  0  0  0  0
    2.4678    2.2905    3.3854 H   0  0  0  0  0  0  0  0  0  0  0  0
    1.0924    2.0547    1.2032 H   0  0  0  0  0  0  0  0  0  0  0  0
   -0.5124    1.3392    1.2894 H   0  0  0  0  0  0  0  0  0  0  0  0
    0.8840    0.3006    1.4152 H   0  0  0  0  0  0  0  0  0  0  0  0
   -1.0067    2.9501    2.6872 H   0  0  0  0  0  0  0  0  0  0  0  0
   -0.7896    2.6985    4.3806 H   0  0  0  0  0  0  0  0  0  0  0  0
    0.0449    4.8615    3.2605 H   0  0  0  0  0  0  0  0  0  0  0  0
    1.4138    4.0172    2.6470 H   0  0  0  0  0  0  0  0  0  0  0  0
    3.1397    0.8675    1.4256 H   0  0  0  0  0  0  0  0  0  0  0  0
    4.6075    0.5317    2.3100 H   0  0  0  0  0  0  0  0  0  0  0  0
    4.9458   -1.1752    0.0873 H   0  0  0  0  0  0  0  0  0  0  0  0
    4.6278   -3.6057   -0.4181 H   0  0  0  0  0  0  0  0  0  0  0  0
    3.0702   -4.9722    0.9431 H   0  0  0  0  0  0  0  0  0  0  0  0
    1.8070   -3.9322    2.8351 H   0  0  0  0  0  0  0  0  0  0  0  0
    2.1123   -1.7084    4.5118 H   0  0  0  0  0  0  0  0  0  0  0  0
    0.9412   -1.0894    3.3519 H   0  0  0  0  0  0  0  0  0  0  0  0
    4.0828   -0.6734    5.0479 H   0  0  0  0  0  0  0  0  0  0  0  0
    4.6537    0.8589    4.4316 H   0  0  0  0  0  0  0  0  0  0  0  0
    4.4068    2.4044    6.0250 H   0  0  0  0  0  0  0  0  0  0  0  0
    1.2757   -0.2471    5.8588 H   0  0  0  0  0  0  0  0  0  0  0  0
   -0.5501   -0.4347    7.3005 H   0  0  0  0  0  0  0  0  0  0  0  0
   -0.4872    0.1443    8.9410 H   0  0  0  0  0  0  0  0  0  0  0  0
   -0.6505    1.9175    6.4552 H   0  0  0  0  0  0  0  0  0  0  0  0
   -1.9622    1.5522    7.5088 H   0  0  0  0  0  0  0  0  0  0  0  0
   -0.8784    1.9730   10.2430 H   0  0  0  0  0  0  0  0  0  0  0  0
   -0.7061    3.7138   10.2099 H   0  0  0  0  0  0  0  0  0  0  0  0
   -3.1157    2.1571    9.0978 H   0  0  0  0  0  0  0  0  0  0  0  0
   -2.6797    5.2184    9.6246 H   0  0  0  0  0  0  0  0  0  0  0  0
   -4.1919    4.3995    8.9571 H   0  0  0  0  0  0  0  0  0  0  0  0
   -4.3178    2.9537   11.0126 H   0  0  0  0  0  0  0  0  0  0  0  0
   -2.8005    3.7532   11.6836 H   0  0  0  0  0  0  0  0  0  0  0  0
    3.0970   -0.6827    8.2395 H   0  0  0  0  0  0  0  0  0  0  0  0
    1.6188   -1.6508    8.2235 H   0  0  0  0  0  0  0  0  0  0  0  0
   -0.0555    0.7870    3.5450 H   0  0  0  0  0  0  0  0  0  0  0  0
  1  2  2  0
  1 40  1  0
  1 41  1  0
  2 39  1  0
  2  3  1  0
  3  4  1  0
  3 42  1  0
  3 43  1  0
  4 31  1  0
  4  5  1  0
  4 44  1  6
  5 34  1  0
  5  6  1  0
  5 45  1  1
  6 11  2  0
  6  7  1  0
  7  8  2  0
  7 46  1  0
  8  9  1  0
  8 47  1  0
  9 10  2  0
  9 48  1  0
 10 17  1  0
 10 11  1  0
 12 11  1  6
 12 28  1  0
 12 30  1  0
 12 13  1  0
 13 14  1  0
 13 18  1  0
 13 49  1  6
 14 15  1  0
 14 16  1  0
 14 82  1  1
 15 50  1  0
 15 51  1  0
 15 52  1  0
 16 17  1  0
 16 53  1  0
 16 54  1  0
 17 55  1  0
 17 56  1  0
 18 26  1  0
 18 19  1  0
 18 27  1  0
 19 20  1  0
 19 57  1  0
 19 58  1  0
 20 25  2  0
 20 21  1  0
 21 22  2  0
 21 59  1  0
 22 23  1  0
 22 60  1  0
 23 24  2  0
 23 61  1  0
 24 25  1  0
 24 62  1  0
 25 26  1  0
 26 63  1  0
 26 64  1  0
 27 28  1  0
 27 65  1  0
 27 66  1  0
 28 29  1  1
 28 30  1  0
 29 67  1  0
 30 31  1  0
 30 68  1  6
 31 32  1  6
 31 39  1  0
 32 33  1  0
 32 69  1  0
 32 70  1  0
 33 34  1  0
 33 71  1  0
 33 72  1  0
 34 35  1  0
 35 36  1  0
 35 73  1  0
 35 74  1  0
 36 38  1  0
 36 37  1  0
 36 75  1  0
 37 38  1  0
 37 76  1  0
 37 77  1  0
 38 78  1  0
 38 79  1  0
 39 80  1  0
 39 81  1  0
M  CHG  1  14   1
M  END
>  <i_m_ct_stereo_status>  (103) 
1

>  <s_m_source_file>  (103) 
/var/tmp/pbs.5076255.sched01/tmp0glzbzrw/400n8fk_jm.sdf

>  <i_m_source_file_index>  (103) 
1

>  <i_lp_mmshare_version>  (103) 
48012

>  <i_f3d_flags>  (103) 
0

>  <s_epik_input>  (103) 
W0NIMl0xW0NIMl1bQ0hdMVtDSDJdTjJbQ0gyXVtDSDJdW0NAXShbQ0gyXUMoPVtDSDJdKVtDSDJdMykoW0NASF0zW0NASF0yYzRjNVtDQEBdNjc4KVtDQEBIXThbQ0BAXTcoW09IXSlbQ0gyXUM5KFtDSDJdYzFjKFtDSDJdOSlbY0hdW2NIXVtjSF1bY0hdMSlbQ0BIXTZOKFtDSDNdKVtDSDJdW0NIMl1jNVtjSF1bY0hdW2NIXTQ=

>  <s_epik_cmdline>  (103) 
J2VwaWtfcHl0aG9uJywgJy1waHQnLCAnMi4wJywgJy1waCcsICc3LjAnLCAnLXRuJywgJzgnLCAnLW1hJywgJzIwMCcsICctaW1hZScsICc8aW5maWxlLm1hZT4nLCAnLW9tYWUnLCAnPG91dGZpbGUubWFlPic=

>  <r_epik_Ionization_Penalty>  (103) 
2.53811

>  <r_epik_Ionization_Penalty_Charging>  (103) 
0.00396579

>  <r_epik_Ionization_Penalty_Neutral>  (103) 
2.53415

>  <r_epik_State_Penalty>  (103) 
2.7047

>  <r_epik_Charging_Adjusted_Penalty>  (103) 
2.70867

>  <i_epik_Tot_Q>  (103) 
1

>  <i_epik_Tot_abs_Q>  (103) 
1

>  <s_lp_Force_Field>  (103) 
OPLS3e

>  <r_lp_Energy>  (103) 
138.848

>  <b_lp_Chiralities_Consistent>  (103) 
1

>  <s_lp_Variant>  (103) 
29:0-2

>  <s_i_glide_gridfile>  (103) 
pfpi4k_grid

>  <i_i_glide_lignum>  (103) 
1

>  <i_i_glide_rotatable_bonds>  (103) 
3

>  <r_i_docking_score>  (103) 
-1.65424

>  <r_i_glide_ligand_efficiency>  (103) 
-0.0424165

>  <r_i_glide_ligand_efficiency_sa>  (103) 
-0.143843

>  <r_i_glide_ligand_efficiency_ln>  (103) 
-0.354717

>  <r_i_glide_gscore>  (103) 
-1.65424

>  <r_i_glide_lipo>  (103) 
-0.0771949

>  <r_i_glide_hbond>  (103) 
0

>  <r_i_glide_metal>  (103) 
-0

>  <r_i_glide_rewards>  (103) 
0

>  <r_i_glide_evdw>  (103) 
-23.7463

>  <r_i_glide_ecoul>  (103) 
-3.377

>  <r_i_glide_erotb>  (103) 
0.152125

>  <r_i_glide_esite>  (103) 
-0.0353066

>  <r_i_glide_emodel>  (103) 
-29.7152

>  <r_i_glide_energy>  (103) 
-27.1233

>  <r_i_glide_einternal>  (103) 
0.212264

>  <r_i_glide_intrahb_reward>  (103) 
-0

>  <i_i_glide_confnum>  (103) 
4

>  <i_i_glide_posenum>  (103) 
18

>  <r_i_glide_eff_state_penalty>  (103) 
0

>  <ligand_id>  (103) 
29

>  <original_smiles>  (103) 
C=C1CC2C3c4cccc5c4C46C(N(C)CC5)C5(Cc7ccccc7C5)CC4(O)C6C2(CCN3CC2CC2)C1

>  <smiles>  (103) 
[H]OC12C([H])([H])C3(C([H])([H])c4c([H])c([H])c([H])c([H])c4C3([H])[H])C3([H])C14c1c(c([H])c([H])c([H])c1C1([H])N(C([H])([H])C5([H])C([H])([H])C5([H])[H])C([H])([H])C([H])([H])C5(C([H])([H])C(=C([H])[H])C([H])([H])C15[H])C24[H])C([H])([H])C([H])([H])[N+]3([H])C([H])([H])[H]

$$$$
29:1:2
     RDKit          3D

 82 91  0  0  1  0  0  0  0  0999 V2000
    1.8252   -1.2508   10.9170 C   0  0  0  0  0  0  0  0  0  0  0  0
    1.9660   -0.3490    9.9378 C   0  0  0  0  0  0  0  0  0  0  0  0
    1.9066    1.1533   10.1086 C   0  0  0  0  0  0  0  0  0  0  0  0
    1.8297    1.6822    8.6533 C   0  0  2  0  0  0  0  0  0  0  0  0
    1.0346    2.9469    8.3269 C   0  0  1  0  0  0  0  0  0  0  0  0
    1.5779    3.7802    7.1466 C   0  0  0  0  0  0  0  0  0  0  0  0
    1.8259    5.1489    7.3973 C   0  0  0  0  0  0  0  0  0  0  0  0
    1.9157    6.0884    6.3711 C   0  0  0  0  0  0  0  0  0  0  0  0
    1.6102    5.6864    5.0724 C   0  0  0  0  0  0  0  0  0  0  0  0
    1.3658    4.3323    4.7655 C   0  0  0  0  0  0  0  0  0  0  0  0
    1.5290    3.3151    5.7717 C   0  0  0  0  0  0  0  0  0  0  0  0
    1.8037    1.8048    5.3362 C   0  0  1  0  0  0  0  0  0  0  0  0
    1.8282    1.5058    3.7900 C   0  0  2  0  0  0  0  0  0  0  0  0
    0.4787    1.5289    3.1408 N   0  0  2  0  0  0  0  0  0  0  0  0
    0.4655    1.2785    1.6780 C   0  0  0  0  0  0  0  0  0  0  0  0
   -0.2564    2.7792    3.4335 C   0  0  0  0  0  0  0  0  0  0  0  0
    0.6699    4.0010    3.4472 C   0  0  0  0  0  0  0  0  0  0  0  0
    2.7267    0.2250    3.5089 C   0  0  0  0  0  0  0  0  0  0  0  0
    3.5366    0.2219    2.1567 C   0  0  0  0  0  0  0  0  0  0  0  0
    3.4839   -1.2049    1.6804 C   0  0  0  0  0  0  0  0  0  0  0  0
    4.2181   -1.7764    0.6249 C   0  0  0  0  0  0  0  0  0  0  0  0
    4.0433   -3.1514    0.3536 C   0  0  0  0  0  0  0  0  0  0  0  0
    3.1641   -3.9308    1.1396 C   0  0  0  0  0  0  0  0  0  0  0  0
    2.4526   -3.3452    2.2085 C   0  0  0  0  0  0  0  0  0  0  0  0
    2.6244   -1.9715    2.4526 C   0  0  0  0  0  0  0  0  0  0  0  0
    1.9899   -1.1661    3.5499 C   0  0  0  0  0  0  0  0  0  0  0  0
    3.7441    0.3007    4.6624 C   0  0  0  0  0  0  0  0  0  0  0  0
    3.0591    1.0467    5.7655 C   0  0  1  0  0  0  0  0  0  0  0  0
    3.9886    1.7869    6.5214 O   0  0  0  0  0  0  0  0  0  0  0  0
    1.7263    0.6128    6.3123 C   0  0  1  0  0  0  0  0  0  0  0  0
    1.3654    0.5160    7.7885 C   0  0  2  0  0  0  0  0  0  0  0  0
   -0.1718    0.3871    7.9137 C   0  0  0  0  0  0  0  0  0  0  0  0
   -0.8711    1.6829    7.4870 C   0  0  0  0  0  0  0  0  0  0  0  0
   -0.4387    2.8061    8.3152 N   0  0  0  0  0  0  0  0  0  0  0  0
   -1.0608    2.8631    9.6492 C   0  0  0  0  0  0  0  0  0  0  0  0
   -2.5778    2.9806    9.6000 C   0  0  0  0  0  0  0  0  0  0  0  0
   -3.2705    4.3205    9.5822 C   0  0  0  0  0  0  0  0  0  0  0  0
   -3.3370    3.4560   10.8157 C   0  0  0  0  0  0  0  0  0  0  0  0
    2.0633   -0.6741    8.4666 C   0  0  0  0  0  0  0  0  0  0  0  0
    1.8269   -2.3104   10.7003 H   0  0  0  0  0  0  0  0  0  0  0  0
    1.6904   -0.9411   11.9437 H   0  0  0  0  0  0  0  0  0  0  0  0
    1.0586    1.4146   10.7327 H   0  0  0  0  0  0  0  0  0  0  0  0
    2.8032    1.5122   10.6163 H   0  0  0  0  0  0  0  0  0  0  0  0
    2.8713    1.9276    8.4989 H   0  0  0  0  0  0  0  0  0  0  0  0
    1.2464    3.5858    9.1834 H   0  0  0  0  0  0  0  0  0  0  0  0
    1.8750    5.5009    8.4147 H   0  0  0  0  0  0  0  0  0  0  0  0
    2.0691    7.1313    6.5975 H   0  0  0  0  0  0  0  0  0  0  0  0
    1.5010    6.4340    4.2989 H   0  0  0  0  0  0  0  0  0  0  0  0
    2.4481    2.2858    3.3520 H   0  0  0  0  0  0  0  0  0  0  0  0
    1.0477    2.0419    1.1731 H   0  0  0  0  0  0  0  0  0  0  0  0
   -0.5531    1.3371    1.2869 H   0  0  0  0  0  0  0  0  0  0  0  0
    0.8413    0.2928    1.3974 H   0  0  0  0  0  0  0  0  0  0  0  0
   -1.0345    2.9437    2.6829 H   0  0  0  0  0  0  0  0  0  0  0  0
   -0.8012    2.6947    4.3737 H   0  0  0  0  0  0  0  0  0  0  0  0
    0.0239    4.8554    3.2382 H   0  0  0  0  0  0  0  0  0  0  0  0
    1.3921    4.0092    2.6230 H   0  0  0  0  0  0  0  0  0  0  0  0
    3.1021    0.8621    1.3893 H   0  0  0  0  0  0  0  0  0  0  0  0
    4.5777    0.5287    2.2601 H   0  0  0  0  0  0  0  0  0  0  0  0
    4.8992   -1.1812    0.0373 H   0  0  0  0  0  0  0  0  0  0  0  0
    4.5813   -3.6137   -0.4596 H   0  0  0  0  0  0  0  0  0  0  0  0
    3.0384   -4.9801    0.9184 H   0  0  0  0  0  0  0  0  0  0  0  0
    1.7891   -3.9380    2.8185 H   0  0  0  0  0  0  0  0  0  0  0  0
    2.1066   -1.7104    4.4872 H   0  0  0  0  0  0  0  0  0  0  0  0
    0.9230   -1.0948    3.3389 H   0  0  0  0  0  0  0  0  0  0  0  0
    4.0855   -0.6801    4.9970 H   0  0  0  0  0  0  0  0  0  0  0  0
    4.6364    0.8641    4.3837 H   0  0  0  0  0  0  0  0  0  0  0  0
    4.5122    1.1646    7.0022 H   0  0  0  0  0  0  0  0  0  0  0  0
    1.2724   -0.2525    5.8432 H   0  0  0  0  0  0  0  0  0  0  0  0
   -0.5336   -0.4347    7.2999 H   0  0  0  0  0  0  0  0  0  0  0  0
   -0.4565    0.1454    8.9390 H   0  0  0  0  0  0  0  0  0  0  0  0
   -0.6470    1.9160    6.4498 H   0  0  0  0  0  0  0  0  0  0  0  0
   -1.9471    1.5485    7.5164 H   0  0  0  0  0  0  0  0  0  0  0  0
   -0.8401    1.9789   10.2402 H   0  0  0  0  0  0  0  0  0  0  0  0
   -0.6717    3.7206   10.2036 H   0  0  0  0  0  0  0  0  0  0  0  0
   -3.0878    2.1551    9.1127 H   0  0  0  0  0  0  0  0  0  0  0  0
   -2.6548    5.2182    9.6318 H   0  0  0  0  0  0  0  0  0  0  0  0
   -4.1715    4.3959    8.9760 H   0  0  0  0  0  0  0  0  0  0  0  0
   -4.2795    2.9534   11.0303 H   0  0  0  0  0  0  0  0  0  0  0  0
   -2.7588    3.7555   11.6899 H   0  0  0  0  0  0  0  0  0  0  0  0
    3.1228   -0.6770    8.2066 H   0  0  0  0  0  0  0  0  0  0  0  0
    1.6453   -1.6465    8.2045 H   0  0  0  0  0  0  0  0  0  0  0  0
   -0.0738    0.7837    3.5352 H   0  0  0  0  0  0  0  0  0  0  0  0
  1  2  2  0
  1 40  1  0
  1 41  1  0
  2 39  1  0
  2  3  1  0
  3  4  1  0
  3 42  1  0
  3 43  1  0
  4 31  1  0
  4  5  1  0
  4 44  1  6
  5 34  1  0
  5  6  1  0
  5 45  1  1
  6 11  2  0
  6  7  1  0
  7  8  2  0
  7 46  1  0
  8  9  1  0
  8 47  1  0
  9 10  2  0
  9 48  1  0
 10 17  1  0
 10 11  1  0
 12 11  1  6
 12 28  1  0
 12 30  1  0
 12 13  1  0
 13 14  1  0
 13 18  1  0
 13 49  1  6
 14 15  1  0
 14 16  1  0
 14 82  1  1
 15 50  1  0
 15 51  1  0
 15 52  1  0
 16 17  1  0
 16 53  1  0
 16 54  1  0
 17 55  1  0
 17 56  1  0
 18 26  1  0
 18 19  1  0
 18 27  1  0
 19 20  1  0
 19 57  1  0
 19 58  1  0
 20 25  2  0
 20 21  1  0
 21 22  2  0
 21 59  1  0
 22 23  1  0
 22 60  1  0
 23 24  2  0
 23 61  1  0
 24 25  1  0
 24 62  1  0
 25 26  1  0
 26 63  1  0
 26 64  1  0
 27 28  1  0
 27 65  1  0
 27 66  1  0
 28 29  1  1
 28 30  1  0
 29 67  1  0
 30 31  1  0
 30 68  1  6
 31 32  1  6
 31 39  1  0
 32 33  1  0
 32 69  1  0
 32 70  1  0
 33 34  1  0
 33 71  1  0
 33 72  1  0
 34 35  1  0
 35 36  1  0
 35 73  1  0
 35 74  1  0
 36 38  1  0
 36 37  1  0
 36 75  1  0
 37 38  1  0
 37 76  1  0
 37 77  1  0
 38 78  1  0
 38 79  1  0
 39 80  1  0
 39 81  1  0
M  CHG  1  14   1
M  END
>  <i_m_ct_stereo_status>  (104) 
1

>  <s_m_source_file>  (104) 
/var/tmp/pbs.5076255.sched01/tmp0glzbzrw/400n8fk_jm.sdf

>  <i_m_source_file_index>  (104) 
1

>  <i_lp_mmshare_version>  (104) 
48012

>  <i_f3d_flags>  (104) 
0

>  <s_epik_input>  (104) 
W0NIMl0xW0NIMl1bQ0hdMVtDSDJdTjJbQ0gyXVtDSDJdW0NAXShbQ0gyXUMoPVtDSDJdKVtDSDJdMykoW0NASF0zW0NASF0yYzRjNVtDQEBdNjc4KVtDQEBIXThbQ0BAXTcoW09IXSlbQ0gyXUM5KFtDSDJdYzFjKFtDSDJdOSlbY0hdW2NIXVtjSF1bY0hdMSlbQ0BIXTZOKFtDSDNdKVtDSDJdW0NIMl1jNVtjSF1bY0hdW2NIXTQ=

>  <s_epik_cmdline>  (104) 
J2VwaWtfcHl0aG9uJywgJy1waHQnLCAnMi4wJywgJy1waCcsICc3LjAnLCAnLXRuJywgJzgnLCAnLW1hJywgJzIwMCcsICctaW1hZScsICc8aW5maWxlLm1hZT4nLCAnLW9tYWUnLCAnPG91dGZpbGUubWFlPic=

>  <r_epik_Ionization_Penalty>  (104) 
2.53811

>  <r_epik_Ionization_Penalty_Charging>  (104) 
0.00396579

>  <r_epik_Ionization_Penalty_Neutral>  (104) 
2.53415

>  <r_epik_State_Penalty>  (104) 
2.7047

>  <r_epik_Charging_Adjusted_Penalty>  (104) 
2.70867

>  <i_epik_Tot_Q>  (104) 
1

>  <i_epik_Tot_abs_Q>  (104) 
1

>  <s_lp_Force_Field>  (104) 
OPLS3e

>  <r_lp_Energy>  (104) 
138.848

>  <b_lp_Chiralities_Consistent>  (104) 
1

>  <s_lp_Variant>  (104) 
29:0-2

>  <s_i_glide_gridfile>  (104) 
pfpi4k_grid

>  <i_i_glide_lignum>  (104) 
1

>  <i_i_glide_rotatable_bonds>  (104) 
3

>  <r_i_docking_score>  (104) 
-1.63091

>  <r_i_glide_ligand_efficiency>  (104) 
-0.0418182

>  <r_i_glide_ligand_efficiency_sa>  (104) 
-0.141814

>  <r_i_glide_ligand_efficiency_ln>  (104) 
-0.349713

>  <r_i_glide_gscore>  (104) 
-1.63091

>  <r_i_glide_lipo>  (104) 
-0.0746253

>  <r_i_glide_hbond>  (104) 
0

>  <r_i_glide_metal>  (104) 
-0

>  <r_i_glide_rewards>  (104) 
0

>  <r_i_glide_evdw>  (104) 
-23.6478

>  <r_i_glide_ecoul>  (104) 
-3.26744

>  <r_i_glide_erotb>  (104) 
0.152125

>  <r_i_glide_esite>  (104) 
-0.0359033

>  <r_i_glide_emodel>  (104) 
-29.4291

>  <r_i_glide_energy>  (104) 
-26.9152

>  <r_i_glide_einternal>  (104) 
0.25388

>  <r_i_glide_intrahb_reward>  (104) 
-0

>  <i_i_glide_confnum>  (104) 
2

>  <i_i_glide_posenum>  (104) 
8

>  <r_i_glide_eff_state_penalty>  (104) 
0

>  <ligand_id>  (104) 
29

>  <original_smiles>  (104) 
C=C1CC2C3c4cccc5c4C46C(N(C)CC5)C5(Cc7ccccc7C5)CC4(O)C6C2(CCN3CC2CC2)C1

>  <smiles>  (104) 
[H]OC12C([H])([H])C3(C([H])([H])c4c([H])c([H])c([H])c([H])c4C3([H])[H])C3([H])C14c1c(c([H])c([H])c([H])c1C1([H])N(C([H])([H])C5([H])C([H])([H])C5([H])[H])C([H])([H])C([H])([H])C5(C([H])([H])C(=C([H])[H])C([H])([H])C15[H])C24[H])C([H])([H])C([H])([H])[N+]3([H])C([H])([H])[H]

$$$$
30:0:0
     RDKit          3D

 32 35  0  0  1  0  0  0  0  0999 V2000
   -1.2196    4.7416   11.0867 F   0  0  0  0  0  0  0  0  0  0  0  0
   -1.2254    4.5289    9.7515 C   0  0  0  0  0  0  0  0  0  0  0  0
   -0.1513    4.9834    8.9612 C   0  0  0  0  0  0  0  0  0  0  0  0
   -0.1242    4.7038    7.5829 C   0  0  0  0  0  0  0  0  0  0  0  0
   -1.2128    4.0815    6.9396 C   0  0  0  0  0  0  0  0  0  0  0  0
   -1.2384    3.9392    5.4762 C   0  0  0  0  0  0  0  0  0  0  0  0
   -2.2215    3.1212    4.8870 N   0  0  0  0  0  0  0  0  0  0  0  0
   -1.9635    3.1459    3.5790 C   0  0  0  0  0  0  0  0  0  0  0  0
   -0.9234    3.9177    3.2798 N   0  0  0  0  0  0  0  0  0  0  0  0
   -0.4331    4.4600    4.4571 C   0  0  0  0  0  0  0  0  0  0  0  0
    0.7591    5.3318    4.4288 C   0  0  0  0  0  0  0  0  0  0  0  0
    1.7683    4.8411    3.6683 N   0  0  0  0  0  0  0  0  0  0  0  0
    2.9389    5.5131    3.6035 C   0  0  0  0  0  0  0  0  0  0  0  0
    3.1837    6.6967    4.3225 C   0  0  0  0  0  0  0  0  0  0  0  0
    2.1411    7.2038    5.1234 C   0  0  0  0  0  0  0  0  0  0  0  0
    2.3119    8.3347    5.9479 C   0  0  0  0  0  0  0  0  0  0  0  0
    1.3303    8.7487    6.7754 N   0  0  0  0  0  0  0  0  0  0  0  0
    0.1664    8.1132    6.6916 C   0  0  0  0  0  0  0  0  0  0  0  0
   -0.1240    7.0611    5.9249 N   0  0  0  0  0  0  0  0  0  0  0  0
    0.8769    6.5498    5.1615 C   0  0  0  0  0  0  0  0  0  0  0  0
   -2.2957    3.6236    7.7474 C   0  0  0  0  0  0  0  0  0  0  0  0
   -2.2928    3.8321    9.1497 C   0  0  0  0  0  0  0  0  0  0  0  0
   -0.5400    4.0896    2.3397 H   0  0  0  0  0  0  0  0  0  0  0  0
    0.6593    5.5316    9.4017 H   0  0  0  0  0  0  0  0  0  0  0  0
    0.7483    5.0121    7.0252 H   0  0  0  0  0  0  0  0  0  0  0  0
   -2.5344    2.5907    2.8519 H   0  0  0  0  0  0  0  0  0  0  0  0
    3.6976    5.0995    2.9534 H   0  0  0  0  0  0  0  0  0  0  0  0
    4.1496    7.1800    4.2698 H   0  0  0  0  0  0  0  0  0  0  0  0
    3.2401    8.8941    5.9701 H   0  0  0  0  0  0  0  0  0  0  0  0
   -0.5934    8.4179    7.3933 H   0  0  0  0  0  0  0  0  0  0  0  0
   -3.1347    3.1144    7.2960 H   0  0  0  0  0  0  0  0  0  0  0  0
   -3.1016    3.4514    9.7580 H   0  0  0  0  0  0  0  0  0  0  0  0
  1  2  1  0
  2 22  2  0
  2  3  1  0
  3  4  2  0
  3 24  1  0
  4  5  1  0
  4 25  1  0
  5  6  1  0
  5 21  2  0
  6 10  2  0
  6  7  1  0
  7  8  2  0
  8  9  1  0
  8 26  1  0
  9 23  1  0
  9 10  1  0
 10 11  1  0
 11 20  1  0
 11 12  2  0
 12 13  1  0
 13 14  2  0
 13 27  1  0
 14 15  1  0
 14 28  1  0
 15 20  2  0
 15 16  1  0
 16 17  2  0
 16 29  1  0
 17 18  1  0
 18 19  2  0
 18 30  1  0
 19 20  1  0
 21 22  1  0
 21 31  1  0
 22 32  1  0
M  END
>  <i_m_ct_stereo_status>  (105) 
1

>  <s_m_source_file>  (105) 
/var/tmp/pbs.5076255.sched01/tmp0glzbzrw/400n8fk_jm.sdf

>  <i_m_source_file_index>  (105) 
2

>  <i_lp_mmshare_version>  (105) 
48012

>  <i_f3d_flags>  (105) 
0

>  <s_epik_input>  (105) 
RmMxW2NIXVtjSF1jKFtjSF1bY0hdMSktYzJuW2NIXVtuSF1jMi1jKG5bY0hdW2NIXTMpYyhjMzQpbltjSF1uW2NIXTQ=

>  <s_epik_cmdline>  (105) 
J2VwaWtfcHl0aG9uJywgJy1waHQnLCAnMi4wJywgJy1waCcsICc3LjAnLCAnLXRuJywgJzgnLCAnLW1hJywgJzIwMCcsICctaW1hZScsICc8aW5maWxlLm1hZT4nLCAnLW9tYWUnLCAnPG91dGZpbGUubWFlPic=

>  <r_lp_tautomer_probability>  (105) 
0.5

>  <r_epik_Ionization_Penalty>  (105) 
0.003893

>  <r_epik_Ionization_Penalty_Charging>  (105) 
0.00388477

>  <r_epik_Ionization_Penalty_Neutral>  (105) 
8.23257e-06

>  <r_epik_State_Penalty>  (105) 
0.345901

>  <r_epik_Charging_Adjusted_Penalty>  (105) 
0.349786

>  <i_epik_Tot_Q>  (105) 
0

>  <i_epik_Tot_abs_Q>  (105) 
0

>  <s_epik_Chemistry_Notes>  (105) 
This compound contains an electron-poor aromatic ring that is susceptible to covalent hydrolysis at low pH, typically resulting in measured values for nitrogen ring protonation that are around two units higher than predicted values.

>  <s_lp_Force_Field>  (105) 
OPLS3e

>  <r_lp_Energy>  (105) 
43.0908

>  <b_lp_Chiralities_Consistent>  (105) 
1

>  <s_lp_Variant>  (105) 
30:0-1

>  <s_i_glide_gridfile>  (105) 
pfpi4k_grid

>  <i_i_glide_lignum>  (105) 
2

>  <i_i_glide_rotatable_bonds>  (105) 
2

>  <r_i_docking_score>  (105) 
-3.48419

>  <r_i_glide_ligand_efficiency>  (105) 
-0.158372

>  <r_i_glide_ligand_efficiency_sa>  (105) 
-0.443765

>  <r_i_glide_ligand_efficiency_ln>  (105) 
-0.851663

>  <r_i_glide_gscore>  (105) 
-3.48419

>  <r_i_glide_lipo>  (105) 
-0.154787

>  <r_i_glide_hbond>  (105) 
-0.220023

>  <r_i_glide_metal>  (105) 
-0

>  <r_i_glide_rewards>  (105) 
-1.42307

>  <r_i_glide_evdw>  (105) 
-20.622

>  <r_i_glide_ecoul>  (105) 
-6.00641

>  <r_i_glide_erotb>  (105) 
0.429924

>  <r_i_glide_esite>  (105) 
-0.184171

>  <r_i_glide_emodel>  (105) 
-31.3955

>  <r_i_glide_energy>  (105) 
-26.6284

>  <r_i_glide_einternal>  (105) 
1.72759

>  <r_i_glide_intrahb_reward>  (105) 
-0

>  <i_i_glide_confnum>  (105) 
3

>  <i_i_glide_posenum>  (105) 
16

>  <r_i_glide_eff_state_penalty>  (105) 
0

>  <ligand_id>  (105) 
30

>  <original_smiles>  (105) 
Fc1ccc(-c2nc[nH]c2-c2nccc3cncnc23)cc1

>  <smiles>  (105) 
[H]c1nc([H])c2c([H])c([H])nc(-c3c(-c4c([H])c([H])c(F)c([H])c4[H])nc([H])n3[H])c2n1

$$$$
30:0:1
     RDKit          3D

 32 35  0  0  1  0  0  0  0  0999 V2000
   -1.8706    3.9389   11.0519 F   0  0  0  0  0  0  0  0  0  0  0  0
   -1.7900    3.8617    9.7041 C   0  0  0  0  0  0  0  0  0  0  0  0
   -0.7141    4.4685    9.0326 C   0  0  0  0  0  0  0  0  0  0  0  0
   -0.6217    4.3865    7.6337 C   0  0  0  0  0  0  0  0  0  0  0  0
   -1.5899    3.6899    6.8807 C   0  0  0  0  0  0  0  0  0  0  0  0
   -1.4848    3.6208    5.4150 C   0  0  0  0  0  0  0  0  0  0  0  0
   -2.5863    3.1977    4.6556 N   0  0  0  0  0  0  0  0  0  0  0  0
   -2.1768    3.2157    3.3958 C   0  0  0  0  0  0  0  0  0  0  0  0
   -0.9194    3.6429    3.2751 N   0  0  0  0  0  0  0  0  0  0  0  0
   -0.4376    3.8975    4.5453 C   0  0  0  0  0  0  0  0  0  0  0  0
    0.9509    4.3121    4.7411 C   0  0  0  0  0  0  0  0  0  0  0  0
    1.8089    3.2676    4.8005 N   0  0  0  0  0  0  0  0  0  0  0  0
    3.1170    3.5209    5.0002 C   0  0  0  0  0  0  0  0  0  0  0  0
    3.6377    4.8155    5.1626 C   0  0  0  0  0  0  0  0  0  0  0  0
    2.7387    5.8937    5.1073 C   0  0  0  0  0  0  0  0  0  0  0  0
    3.1615    7.2245    5.2710 C   0  0  0  0  0  0  0  0  0  0  0  0
    2.2855    8.2435    5.2327 N   0  0  0  0  0  0  0  0  0  0  0  0
    1.0076    7.9296    5.0268 C   0  0  0  0  0  0  0  0  0  0  0  0
    0.4899    6.7093    4.8807 N   0  0  0  0  0  0  0  0  0  0  0  0
    1.3531    5.6647    4.8974 C   0  0  0  0  0  0  0  0  0  0  0  0
   -2.6737    3.0827    7.5657 C   0  0  0  0  0  0  0  0  0  0  0  0
   -2.7754    3.1678    8.9727 C   0  0  0  0  0  0  0  0  0  0  0  0
   -0.4260    3.7722    2.3851 H   0  0  0  0  0  0  0  0  0  0  0  0
    0.0485    4.9971    9.5858 H   0  0  0  0  0  0  0  0  0  0  0  0
    0.1995    4.8804    7.1523 H   0  0  0  0  0  0  0  0  0  0  0  0
   -2.8038    2.9223    2.5650 H   0  0  0  0  0  0  0  0  0  0  0  0
    3.7751    2.6659    5.0350 H   0  0  0  0  0  0  0  0  0  0  0  0
    4.6955    4.9702    5.3291 H   0  0  0  0  0  0  0  0  0  0  0  0
    4.2001    7.4813    5.4401 H   0  0  0  0  0  0  0  0  0  0  0  0
    0.3189    8.7562    4.9980 H   0  0  0  0  0  0  0  0  0  0  0  0
   -3.4453    2.5640    7.0148 H   0  0  0  0  0  0  0  0  0  0  0  0
   -3.6037    2.7061    9.4915 H   0  0  0  0  0  0  0  0  0  0  0  0
  1  2  1  0
  2 22  2  0
  2  3  1  0
  3  4  2  0
  3 24  1  0
  4  5  1  0
  4 25  1  0
  5  6  1  0
  5 21  2  0
  6 10  2  0
  6  7  1  0
  7  8  2  0
  8  9  1  0
  8 26  1  0
  9 23  1  0
  9 10  1  0
 10 11  1  0
 11 20  1  0
 11 12  2  0
 12 13  1  0
 13 14  2  0
 13 27  1  0
 14 15  1  0
 14 28  1  0
 15 20  2  0
 15 16  1  0
 16 17  2  0
 16 29  1  0
 17 18  1  0
 18 19  2  0
 18 30  1  0
 19 20  1  0
 21 22  1  0
 21 31  1  0
 22 32  1  0
M  END
>  <i_m_ct_stereo_status>  (106) 
1

>  <s_m_source_file>  (106) 
/var/tmp/pbs.5076255.sched01/tmp0glzbzrw/400n8fk_jm.sdf

>  <i_m_source_file_index>  (106) 
2

>  <i_lp_mmshare_version>  (106) 
48012

>  <i_f3d_flags>  (106) 
0

>  <s_epik_input>  (106) 
RmMxW2NIXVtjSF1jKFtjSF1bY0hdMSktYzJuW2NIXVtuSF1jMi1jKG5bY0hdW2NIXTMpYyhjMzQpbltjSF1uW2NIXTQ=

>  <s_epik_cmdline>  (106) 
J2VwaWtfcHl0aG9uJywgJy1waHQnLCAnMi4wJywgJy1waCcsICc3LjAnLCAnLXRuJywgJzgnLCAnLW1hJywgJzIwMCcsICctaW1hZScsICc8aW5maWxlLm1hZT4nLCAnLW9tYWUnLCAnPG91dGZpbGUubWFlPic=

>  <r_lp_tautomer_probability>  (106) 
0.5

>  <r_epik_Ionization_Penalty>  (106) 
0.003893

>  <r_epik_Ionization_Penalty_Charging>  (106) 
0.00388477

>  <r_epik_Ionization_Penalty_Neutral>  (106) 
8.23257e-06

>  <r_epik_State_Penalty>  (106) 
0.345901

>  <r_epik_Charging_Adjusted_Penalty>  (106) 
0.349786

>  <i_epik_Tot_Q>  (106) 
0

>  <i_epik_Tot_abs_Q>  (106) 
0

>  <s_epik_Chemistry_Notes>  (106) 
This compound contains an electron-poor aromatic ring that is susceptible to covalent hydrolysis at low pH, typically resulting in measured values for nitrogen ring protonation that are around two units higher than predicted values.

>  <s_lp_Force_Field>  (106) 
OPLS3e

>  <r_lp_Energy>  (106) 
43.0908

>  <b_lp_Chiralities_Consistent>  (106) 
1

>  <s_lp_Variant>  (106) 
30:0-1

>  <s_i_glide_gridfile>  (106) 
pfpi4k_grid

>  <i_i_glide_lignum>  (106) 
2

>  <i_i_glide_rotatable_bonds>  (106) 
2

>  <r_i_docking_score>  (106) 
-3.38616

>  <r_i_glide_ligand_efficiency>  (106) 
-0.153917

>  <r_i_glide_ligand_efficiency_sa>  (106) 
-0.43128

>  <r_i_glide_ligand_efficiency_ln>  (106) 
-0.827702

>  <r_i_glide_gscore>  (106) 
-3.38616

>  <r_i_glide_lipo>  (106) 
-0.177764

>  <r_i_glide_hbond>  (106) 
-0.16

>  <r_i_glide_metal>  (106) 
-0

>  <r_i_glide_rewards>  (106) 
-1.42307

>  <r_i_glide_evdw>  (106) 
-21.2494

>  <r_i_glide_ecoul>  (106) 
-4.60996

>  <r_i_glide_erotb>  (106) 
0.429924

>  <r_i_glide_esite>  (106) 
-0.301285

>  <r_i_glide_emodel>  (106) 
-30.1398

>  <r_i_glide_energy>  (106) 
-25.8594

>  <r_i_glide_einternal>  (106) 
4.00371

>  <r_i_glide_intrahb_reward>  (106) 
-0

>  <i_i_glide_confnum>  (106) 
1

>  <i_i_glide_posenum>  (106) 
8

>  <r_i_glide_eff_state_penalty>  (106) 
0

>  <ligand_id>  (106) 
30

>  <original_smiles>  (106) 
Fc1ccc(-c2nc[nH]c2-c2nccc3cncnc23)cc1

>  <smiles>  (106) 
[H]c1nc([H])c2c([H])c([H])nc(-c3c(-c4c([H])c([H])c(F)c([H])c4[H])nc([H])n3[H])c2n1

$$$$
30:0:2
     RDKit          3D

 32 35  0  0  1  0  0  0  0  0999 V2000
   -0.2947    1.0087   10.3794 F   0  0  0  0  0  0  0  0  0  0  0  0
   -0.5858    1.3529    9.1062 C   0  0  0  0  0  0  0  0  0  0  0  0
    0.2337    0.9021    8.0541 C   0  0  0  0  0  0  0  0  0  0  0  0
   -0.0520    1.2822    6.7347 C   0  0  0  0  0  0  0  0  0  0  0  0
   -1.2068    2.0249    6.4181 C   0  0  0  0  0  0  0  0  0  0  0  0
   -1.5592    2.3135    5.0177 C   0  0  0  0  0  0  0  0  0  0  0  0
   -2.5453    3.2731    4.7337 N   0  0  0  0  0  0  0  0  0  0  0  0
   -2.6026    3.3316    3.4051 C   0  0  0  0  0  0  0  0  0  0  0  0
   -1.7439    2.5025    2.8155 N   0  0  0  0  0  0  0  0  0  0  0  0
   -1.0987    1.7829    3.8095 C   0  0  0  0  0  0  0  0  0  0  0  0
   -0.1245    0.7376    3.4502 C   0  0  0  0  0  0  0  0  0  0  0  0
    0.7478    1.1056    2.4761 N   0  0  0  0  0  0  0  0  0  0  0  0
    1.7095    0.2379    2.0854 C   0  0  0  0  0  0  0  0  0  0  0  0
    1.8726   -1.0342    2.6634 C   0  0  0  0  0  0  0  0  0  0  0  0
    0.9746   -1.4199    3.6739 C   0  0  0  0  0  0  0  0  0  0  0  0
    1.0729   -2.6575    4.3413 C   0  0  0  0  0  0  0  0  0  0  0  0
    0.2278   -2.9818    5.3399 N   0  0  0  0  0  0  0  0  0  0  0  0
   -0.7451   -2.1167    5.6069 C   0  0  0  0  0  0  0  0  0  0  0  0
   -0.9576   -0.9456    5.0201 N   0  0  0  0  0  0  0  0  0  0  0  0
   -0.0800   -0.5433    4.0691 C   0  0  0  0  0  0  0  0  0  0  0  0
   -2.0299    2.4755    7.4838 C   0  0  0  0  0  0  0  0  0  0  0  0
   -1.7092    2.1540    8.8225 C   0  0  0  0  0  0  0  0  0  0  0  0
   -1.5754    2.4037    1.8207 H   0  0  0  0  0  0  0  0  0  0  0  0
    1.0769    0.2634    8.2509 H   0  0  0  0  0  0  0  0  0  0  0  0
    0.6379    0.9689    5.9674 H   0  0  0  0  0  0  0  0  0  0  0  0
   -3.2783    3.9701    2.8601 H   0  0  0  0  0  0  0  0  0  0  0  0
    2.3712    0.5639    1.2896 H   0  0  0  0  0  0  0  0  0  0  0  0
    2.6738   -1.6877    2.3361 H   0  0  0  0  0  0  0  0  0  0  0  0
    1.8402   -3.3809    4.0896 H   0  0  0  0  0  0  0  0  0  0  0  0
   -1.3881   -2.3611    6.4359 H   0  0  0  0  0  0  0  0  0  0  0  0
   -2.9062    3.0736    7.2787 H   0  0  0  0  0  0  0  0  0  0  0  0
   -2.3302    2.5165    9.6286 H   0  0  0  0  0  0  0  0  0  0  0  0
  1  2  1  0
  2 22  2  0
  2  3  1  0
  3  4  2  0
  3 24  1  0
  4  5  1  0
  4 25  1  0
  5  6  1  0
  5 21  2  0
  6 10  2  0
  6  7  1  0
  7  8  2  0
  8  9  1  0
  8 26  1  0
  9 23  1  0
  9 10  1  0
 10 11  1  0
 11 20  1  0
 11 12  2  0
 12 13  1  0
 13 14  2  0
 13 27  1  0
 14 15  1  0
 14 28  1  0
 15 20  2  0
 15 16  1  0
 16 17  2  0
 16 29  1  0
 17 18  1  0
 18 19  2  0
 18 30  1  0
 19 20  1  0
 21 22  1  0
 21 31  1  0
 22 32  1  0
M  END
>  <i_m_ct_stereo_status>  (107) 
1

>  <s_m_source_file>  (107) 
/var/tmp/pbs.5076255.sched01/tmp0glzbzrw/400n8fk_jm.sdf

>  <i_m_source_file_index>  (107) 
2

>  <i_lp_mmshare_version>  (107) 
48012

>  <i_f3d_flags>  (107) 
0

>  <s_epik_input>  (107) 
RmMxW2NIXVtjSF1jKFtjSF1bY0hdMSktYzJuW2NIXVtuSF1jMi1jKG5bY0hdW2NIXTMpYyhjMzQpbltjSF1uW2NIXTQ=

>  <s_epik_cmdline>  (107) 
J2VwaWtfcHl0aG9uJywgJy1waHQnLCAnMi4wJywgJy1waCcsICc3LjAnLCAnLXRuJywgJzgnLCAnLW1hJywgJzIwMCcsICctaW1hZScsICc8aW5maWxlLm1hZT4nLCAnLW9tYWUnLCAnPG91dGZpbGUubWFlPic=

>  <r_lp_tautomer_probability>  (107) 
0.5

>  <r_epik_Ionization_Penalty>  (107) 
0.003893

>  <r_epik_Ionization_Penalty_Charging>  (107) 
0.00388477

>  <r_epik_Ionization_Penalty_Neutral>  (107) 
8.23257e-06

>  <r_epik_State_Penalty>  (107) 
0.345901

>  <r_epik_Charging_Adjusted_Penalty>  (107) 
0.349786

>  <i_epik_Tot_Q>  (107) 
0

>  <i_epik_Tot_abs_Q>  (107) 
0

>  <s_epik_Chemistry_Notes>  (107) 
This compound contains an electron-poor aromatic ring that is susceptible to covalent hydrolysis at low pH, typically resulting in measured values for nitrogen ring protonation that are around two units higher than predicted values.

>  <s_lp_Force_Field>  (107) 
OPLS3e

>  <r_lp_Energy>  (107) 
43.0908

>  <b_lp_Chiralities_Consistent>  (107) 
1

>  <s_lp_Variant>  (107) 
30:0-1

>  <s_i_glide_gridfile>  (107) 
pfpi4k_grid

>  <i_i_glide_lignum>  (107) 
2

>  <i_i_glide_rotatable_bonds>  (107) 
2

>  <r_i_docking_score>  (107) 
-2.45742

>  <r_i_glide_ligand_efficiency>  (107) 
-0.111701

>  <r_i_glide_ligand_efficiency_sa>  (107) 
-0.312991

>  <r_i_glide_ligand_efficiency_ln>  (107) 
-0.600684

>  <r_i_glide_gscore>  (107) 
-2.45742

>  <r_i_glide_lipo>  (107) 
-0.0257768

>  <r_i_glide_hbond>  (107) 
0

>  <r_i_glide_metal>  (107) 
-0

>  <r_i_glide_rewards>  (107) 
-1.42307

>  <r_i_glide_evdw>  (107) 
-24.6961

>  <r_i_glide_ecoul>  (107) 
-0.1662

>  <r_i_glide_erotb>  (107) 
0.429924

>  <r_i_glide_esite>  (107) 
-0.178762

>  <r_i_glide_emodel>  (107) 
-28.13

>  <r_i_glide_energy>  (107) 
-24.8623

>  <r_i_glide_einternal>  (107) 
1.6788

>  <r_i_glide_intrahb_reward>  (107) 
-0

>  <i_i_glide_confnum>  (107) 
5

>  <i_i_glide_posenum>  (107) 
24

>  <r_i_glide_eff_state_penalty>  (107) 
0

>  <ligand_id>  (107) 
30

>  <original_smiles>  (107) 
Fc1ccc(-c2nc[nH]c2-c2nccc3cncnc23)cc1

>  <smiles>  (107) 
[H]c1nc([H])c2c([H])c([H])nc(-c3c(-c4c([H])c([H])c(F)c([H])c4[H])nc([H])n3[H])c2n1

$$$$
30:1:0
     RDKit          3D

 32 35  0  0  1  0  0  0  0  0999 V2000
   -5.6902   -5.3518   -5.1170 F   0  0  0  0  0  0  0  0  0  0  0  0
   -5.7582   -6.6743   -5.3803 C   0  0  0  0  0  0  0  0  0  0  0  0
   -6.9335   -7.2312   -5.9129 C   0  0  0  0  0  0  0  0  0  0  0  0
   -7.0022   -8.6138   -6.1544 C   0  0  0  0  0  0  0  0  0  0  0  0
   -5.8790   -9.4591   -5.9698 C   0  0  0  0  0  0  0  0  0  0  0  0
   -5.9354  -10.8861   -6.3293 C   0  0  0  0  0  0  0  0  0  0  0  0
   -4.9076  -11.7602   -5.9950 N   0  0  0  0  0  0  0  0  0  0  0  0
   -5.2534  -12.9822   -6.4061 C   0  0  0  0  0  0  0  0  0  0  0  0
   -6.4265  -13.0101   -7.0261 N   0  0  0  0  0  0  0  0  0  0  0  0
   -6.8622  -11.6705   -7.0204 C   0  0  0  0  0  0  0  0  0  0  0  0
   -8.1301  -11.3505   -7.6923 C   0  0  0  0  0  0  0  0  0  0  0  0
   -9.1635  -12.1780   -7.3928 N   0  0  0  0  0  0  0  0  0  0  0  0
  -10.3820  -11.9293   -7.9211 C   0  0  0  0  0  0  0  0  0  0  0  0
  -10.6517  -10.8270   -8.7570 C   0  0  0  0  0  0  0  0  0  0  0  0
   -9.5760   -9.9578   -9.0572 C   0  0  0  0  0  0  0  0  0  0  0  0
   -9.7469   -8.7848   -9.8299 C   0  0  0  0  0  0  0  0  0  0  0  0
   -8.7175   -7.9418  -10.0517 N   0  0  0  0  0  0  0  0  0  0  0  0
   -7.5275   -8.3020   -9.5716 C   0  0  0  0  0  0  0  0  0  0  0  0
   -7.2505   -9.4020   -8.8759 N   0  0  0  0  0  0  0  0  0  0  0  0
   -8.2762  -10.2331   -8.5575 C   0  0  0  0  0  0  0  0  0  0  0  0
   -4.7052   -8.8745   -5.4288 C   0  0  0  0  0  0  0  0  0  0  0  0
   -4.6513   -7.5014   -5.1289 C   0  0  0  0  0  0  0  0  0  0  0  0
   -4.0574  -11.5241   -5.5040 H   0  0  0  0  0  0  0  0  0  0  0  0
   -7.7813   -6.6099   -6.1354 H   0  0  0  0  0  0  0  0  0  0  0  0
   -7.9466   -9.0087   -6.5010 H   0  0  0  0  0  0  0  0  0  0  0  0
   -4.6401  -13.8533   -6.2622 H   0  0  0  0  0  0  0  0  0  0  0  0
  -11.1671  -12.6356   -7.6796 H   0  0  0  0  0  0  0  0  0  0  0  0
  -11.6475  -10.6469   -9.1282 H   0  0  0  0  0  0  0  0  0  0  0  0
  -10.7065   -8.5152  -10.2436 H   0  0  0  0  0  0  0  0  0  0  0  0
   -6.7128   -7.6127   -9.7342 H   0  0  0  0  0  0  0  0  0  0  0  0
   -3.8271   -9.4746   -5.2420 H   0  0  0  0  0  0  0  0  0  0  0  0
   -3.7564   -7.0818   -4.7123 H   0  0  0  0  0  0  0  0  0  0  0  0
  1  2  1  0
  2 22  2  0
  2  3  1  0
  3  4  2  0
  3 24  1  0
  4  5  1  0
  4 25  1  0
  5 21  2  0
  5  6  1  0
  6 10  2  0
  6  7  1  0
  7 23  1  0
  7  8  1  0
  8 26  1  0
  8  9  2  0
  9 10  1  0
 10 11  1  0
 11 20  1  0
 11 12  2  0
 12 13  1  0
 13 14  2  0
 13 27  1  0
 14 15  1  0
 14 28  1  0
 15 20  2  0
 15 16  1  0
 16 17  2  0
 16 29  1  0
 17 18  1  0
 18 19  2  0
 18 30  1  0
 19 20  1  0
 21 22  1  0
 21 31  1  0
 22 32  1  0
M  END
>  <i_m_ct_stereo_status>  (108) 
1

>  <s_m_source_file>  (108) 
/var/tmp/pbs.5076255.sched01/tmp0glzbzrw/400n8fk_jm.sdf

>  <i_m_source_file_index>  (108) 
3

>  <i_lp_mmshare_version>  (108) 
48012

>  <i_f3d_flags>  (108) 
0

>  <s_epik_input>  (108) 
RmMxW2NIXVtjSF1jKFtjSF1bY0hdMSktYzJuW2NIXVtuSF1jMi1jKG5bY0hdW2NIXTMpYyhjMzQpbltjSF1uW2NIXTQ=

>  <s_epik_cmdline>  (108) 
J2VwaWtfcHl0aG9uJywgJy1waHQnLCAnMi4wJywgJy1waCcsICc3LjAnLCAnLXRuJywgJzgnLCAnLW1hJywgJzIwMCcsICctaW1hZScsICc8aW5maWxlLm1hZT4nLCAnLW9tYWUnLCAnPG91dGZpbGUubWFlPic=

>  <r_lp_tautomer_probability>  (108) 
0.5

>  <r_epik_Ionization_Penalty>  (108) 
0.00761301

>  <r_epik_Ionization_Penalty_Charging>  (108) 
0.00759671

>  <r_epik_Ionization_Penalty_Neutral>  (108) 
1.63016e-05

>  <r_epik_State_Penalty>  (108) 
0.487897

>  <r_epik_Charging_Adjusted_Penalty>  (108) 
0.495494

>  <i_epik_Tot_Q>  (108) 
0

>  <i_epik_Tot_abs_Q>  (108) 
0

>  <s_epik_Chemistry_Notes>  (108) 
This compound contains an electron-poor aromatic ring that is susceptible to covalent hydrolysis at low pH, typically resulting in measured values for nitrogen ring protonation that are around two units higher than predicted values.

>  <s_lp_Force_Field>  (108) 
OPLS3e

>  <r_lp_Energy>  (108) 
42.408

>  <b_lp_Chiralities_Consistent>  (108) 
1

>  <s_lp_Variant>  (108) 
30:0-2

>  <s_i_glide_gridfile>  (108) 
pfpi4k_grid

>  <i_i_glide_lignum>  (108) 
3

>  <i_i_glide_rotatable_bonds>  (108) 
2

>  <r_i_docking_score>  (108) 
-5.29505

>  <r_i_glide_ligand_efficiency>  (108) 
-0.240684

>  <r_i_glide_ligand_efficiency_sa>  (108) 
-0.674407

>  <r_i_glide_ligand_efficiency_ln>  (108) 
-1.2943

>  <r_i_glide_gscore>  (108) 
-5.29505

>  <r_i_glide_lipo>  (108) 
-1.71178

>  <r_i_glide_hbond>  (108) 
0

>  <r_i_glide_metal>  (108) 
-0

>  <r_i_glide_rewards>  (108) 
-1.93049

>  <r_i_glide_evdw>  (108) 
-30.2838

>  <r_i_glide_ecoul>  (108) 
-3.5188

>  <r_i_glide_erotb>  (108) 
0.429924

>  <r_i_glide_esite>  (108) 
-0.0406956

>  <r_i_glide_emodel>  (108) 
-43.0265

>  <r_i_glide_energy>  (108) 
-33.8026

>  <r_i_glide_einternal>  (108) 
1.33009

>  <r_i_glide_intrahb_reward>  (108) 
-0

>  <i_i_glide_confnum>  (108) 
5

>  <i_i_glide_posenum>  (108) 
22

>  <r_i_glide_eff_state_penalty>  (108) 
0

>  <ligand_id>  (108) 
30

>  <original_smiles>  (108) 
Fc1ccc(-c2nc[nH]c2-c2nccc3cncnc23)cc1

>  <smiles>  (108) 
[H]c1nc([H])c2c([H])c([H])nc(-c3nc([H])n([H])c3-c3c([H])c([H])c(F)c([H])c3[H])c2n1

$$$$
30:1:1
     RDKit          3D

 32 35  0  0  1  0  0  0  0  0999 V2000
   -4.9192   -5.5663   -4.7438 F   0  0  0  0  0  0  0  0  0  0  0  0
   -5.2836   -6.7742   -5.2127 C   0  0  0  0  0  0  0  0  0  0  0  0
   -6.5549   -6.9234   -5.7917 C   0  0  0  0  0  0  0  0  0  0  0  0
   -6.9979   -8.1845   -6.1659 C   0  0  0  0  0  0  0  0  0  0  0  0
   -6.1790   -9.3579   -6.1856 C   0  0  0  0  0  0  0  0  0  0  0  0
   -6.6637  -10.6582   -6.7185 C   0  0  0  0  0  0  0  0  0  0  0  0
   -5.8485  -11.8023   -6.5892 N   0  0  0  0  0  0  0  0  0  0  0  0
   -6.4834  -12.8408   -7.1080 C   0  0  0  0  0  0  0  0  0  0  0  0
   -7.6669  -12.5100   -7.5920 N   0  0  0  0  0  0  0  0  0  0  0  0
   -7.7813  -11.1138   -7.4221 C   0  0  0  0  0  0  0  0  0  0  0  0
   -8.9772  -10.4151   -7.9794 C   0  0  0  0  0  0  0  0  0  0  0  0
   -8.7583   -9.1204   -8.3092 N   0  0  0  0  0  0  0  0  0  0  0  0
   -9.7776   -8.2830   -8.5051 C   0  0  0  0  0  0  0  0  0  0  0  0
  -11.1230   -8.7296   -8.6800 C   0  0  0  0  0  0  0  0  0  0  0  0
  -11.3180  -10.1235   -8.5343 C   0  0  0  0  0  0  0  0  0  0  0  0
  -12.5638  -10.6966   -8.8465 C   0  0  0  0  0  0  0  0  0  0  0  0
  -12.7841  -12.0415   -8.7578 N   0  0  0  0  0  0  0  0  0  0  0  0
  -11.7380  -12.7518   -8.3178 C   0  0  0  0  0  0  0  0  0  0  0  0
  -10.5531  -12.3175   -7.9754 N   0  0  0  0  0  0  0  0  0  0  0  0
  -10.2754  -10.9916   -8.1273 C   0  0  0  0  0  0  0  0  0  0  0  0
   -4.8854   -9.2049   -5.6069 C   0  0  0  0  0  0  0  0  0  0  0  0
   -4.4824   -7.9389   -5.1257 C   0  0  0  0  0  0  0  0  0  0  0  0
   -4.9124  -11.8348   -6.1788 H   0  0  0  0  0  0  0  0  0  0  0  0
   -7.2443   -6.1130   -5.9019 H   0  0  0  0  0  0  0  0  0  0  0  0
   -8.0546   -8.1236   -6.3506 H   0  0  0  0  0  0  0  0  0  0  0  0
   -6.1031  -13.8551   -7.1681 H   0  0  0  0  0  0  0  0  0  0  0  0
   -9.5533   -7.2475   -8.4548 H   0  0  0  0  0  0  0  0  0  0  0  0
  -11.8807   -8.0270   -8.9439 H   0  0  0  0  0  0  0  0  0  0  0  0
  -13.3866  -10.0728   -9.2036 H   0  0  0  0  0  0  0  0  0  0  0  0
  -11.8940  -13.8328   -8.2296 H   0  0  0  0  0  0  0  0  0  0  0  0
   -4.2043  -10.0598   -5.4790 H   0  0  0  0  0  0  0  0  0  0  0  0
   -3.4856   -7.8303   -4.6546 H   0  0  0  0  0  0  0  0  0  0  0  0
  1  2  1  0
  2 22  2  0
  2  3  1  0
  3  4  2  0
  3 24  1  0
  4  5  1  0
  4 25  1  0
  5 21  2  0
  5  6  1  0
  6 10  2  0
  6  7  1  0
  7 23  1  0
  7  8  1  0
  8 26  1  0
  8  9  2  0
  9 10  1  0
 10 11  1  0
 11 20  1  0
 11 12  2  0
 12 13  1  0
 13 14  2  0
 13 27  1  0
 14 15  1  0
 14 28  1  0
 15 20  2  0
 15 16  1  0
 16 17  2  0
 16 29  1  0
 17 18  1  0
 18 19  2  0
 18 30  1  0
 19 20  1  0
 21 22  1  0
 21 31  1  0
 22 32  1  0
M  END
>  <i_m_ct_stereo_status>  (109) 
1

>  <s_m_source_file>  (109) 
/var/tmp/pbs.5076255.sched01/tmp0glzbzrw/400n8fk_jm.sdf

>  <i_m_source_file_index>  (109) 
3

>  <i_lp_mmshare_version>  (109) 
48012

>  <i_f3d_flags>  (109) 
0

>  <s_epik_input>  (109) 
RmMxW2NIXVtjSF1jKFtjSF1bY0hdMSktYzJuW2NIXVtuSF1jMi1jKG5bY0hdW2NIXTMpYyhjMzQpbltjSF1uW2NIXTQ=

>  <s_epik_cmdline>  (109) 
J2VwaWtfcHl0aG9uJywgJy1waHQnLCAnMi4wJywgJy1waCcsICc3LjAnLCAnLXRuJywgJzgnLCAnLW1hJywgJzIwMCcsICctaW1hZScsICc8aW5maWxlLm1hZT4nLCAnLW9tYWUnLCAnPG91dGZpbGUubWFlPic=

>  <r_lp_tautomer_probability>  (109) 
0.5

>  <r_epik_Ionization_Penalty>  (109) 
0.00761301

>  <r_epik_Ionization_Penalty_Charging>  (109) 
0.00759671

>  <r_epik_Ionization_Penalty_Neutral>  (109) 
1.63016e-05

>  <r_epik_State_Penalty>  (109) 
0.487897

>  <r_epik_Charging_Adjusted_Penalty>  (109) 
0.495494

>  <i_epik_Tot_Q>  (109) 
0

>  <i_epik_Tot_abs_Q>  (109) 
0

>  <s_epik_Chemistry_Notes>  (109) 
This compound contains an electron-poor aromatic ring that is susceptible to covalent hydrolysis at low pH, typically resulting in measured values for nitrogen ring protonation that are around two units higher than predicted values.

>  <s_lp_Force_Field>  (109) 
OPLS3e

>  <r_lp_Energy>  (109) 
42.408

>  <b_lp_Chiralities_Consistent>  (109) 
1

>  <s_lp_Variant>  (109) 
30:0-2

>  <s_i_glide_gridfile>  (109) 
pfpi4k_grid

>  <i_i_glide_lignum>  (109) 
3

>  <i_i_glide_rotatable_bonds>  (109) 
2

>  <r_i_docking_score>  (109) 
-5.16965

>  <r_i_glide_ligand_efficiency>  (109) 
-0.234984

>  <r_i_glide_ligand_efficiency_sa>  (109) 
-0.658434

>  <r_i_glide_ligand_efficiency_ln>  (109) 
-1.26365

>  <r_i_glide_gscore>  (109) 
-5.16965

>  <r_i_glide_lipo>  (109) 
-1.59631

>  <r_i_glide_hbond>  (109) 
0

>  <r_i_glide_metal>  (109) 
-0

>  <r_i_glide_rewards>  (109) 
-1.99019

>  <r_i_glide_evdw>  (109) 
-29.9245

>  <r_i_glide_ecoul>  (109) 
-3.08265

>  <r_i_glide_erotb>  (109) 
0.429924

>  <r_i_glide_esite>  (109) 
-0.054437

>  <r_i_glide_emodel>  (109) 
-40.2675

>  <r_i_glide_energy>  (109) 
-33.0072

>  <r_i_glide_einternal>  (109) 
0.109772

>  <r_i_glide_intrahb_reward>  (109) 
-0

>  <i_i_glide_confnum>  (109) 
5

>  <i_i_glide_posenum>  (109) 
1

>  <r_i_glide_eff_state_penalty>  (109) 
0

>  <ligand_id>  (109) 
30

>  <original_smiles>  (109) 
Fc1ccc(-c2nc[nH]c2-c2nccc3cncnc23)cc1

>  <smiles>  (109) 
[H]c1nc([H])c2c([H])c([H])nc(-c3nc([H])n([H])c3-c3c([H])c([H])c(F)c([H])c3[H])c2n1

$$$$
30:1:2
     RDKit          3D

 32 35  0  0  1  0  0  0  0  0999 V2000
   -6.2182   -3.8166   -4.2812 F   0  0  0  0  0  0  0  0  0  0  0  0
   -6.3050   -5.0139   -4.9211 C   0  0  0  0  0  0  0  0  0  0  0  0
   -7.3447   -5.2531   -5.8183 C   0  0  0  0  0  0  0  0  0  0  0  0
   -7.4486   -6.4758   -6.4479 C   0  0  0  0  0  0  0  0  0  0  0  0
   -6.5497   -7.5600   -6.2668 C   0  0  0  0  0  0  0  0  0  0  0  0
   -6.6802   -8.8703   -6.9576 C   0  0  0  0  0  0  0  0  0  0  0  0
   -5.6151   -9.7882   -6.9535 N   0  0  0  0  0  0  0  0  0  0  0  0
   -5.9783  -10.8835   -7.6306 C   0  0  0  0  0  0  0  0  0  0  0  0
   -7.2023  -10.7890   -8.1227 N   0  0  0  0  0  0  0  0  0  0  0  0
   -7.6601   -9.4950   -7.7632 C   0  0  0  0  0  0  0  0  0  0  0  0
   -8.9862   -9.0728   -8.2644 C   0  0  0  0  0  0  0  0  0  0  0  0
   -9.0552   -7.7906   -8.6384 N   0  0  0  0  0  0  0  0  0  0  0  0
  -10.2381   -7.1762   -8.8152 C   0  0  0  0  0  0  0  0  0  0  0  0
  -11.4522   -7.8633   -8.8588 C   0  0  0  0  0  0  0  0  0  0  0  0
  -11.3842   -9.2502   -8.6548 C   0  0  0  0  0  0  0  0  0  0  0  0
  -12.5282  -10.0996   -8.8591 C   0  0  0  0  0  0  0  0  0  0  0  0
  -12.4586  -11.4426   -8.7207 N   0  0  0  0  0  0  0  0  0  0  0  0
  -11.2822  -11.9237   -8.3159 C   0  0  0  0  0  0  0  0  0  0  0  0
  -10.1569  -11.2175   -8.0617 N   0  0  0  0  0  0  0  0  0  0  0  0
  -10.1561   -9.9040   -8.2983 C   0  0  0  0  0  0  0  0  0  0  0  0
   -5.4684   -7.3256   -5.3491 C   0  0  0  0  0  0  0  0  0  0  0  0
   -5.3725   -6.0581   -4.6984 C   0  0  0  0  0  0  0  0  0  0  0  0
   -4.7066   -9.6409   -6.5207 H   0  0  0  0  0  0  0  0  0  0  0  0
   -8.0879   -4.5269   -6.0630 H   0  0  0  0  0  0  0  0  0  0  0  0
   -8.3140   -6.4129   -7.0561 H   0  0  0  0  0  0  0  0  0  0  0  0
   -5.3478  -11.7454   -7.7911 H   0  0  0  0  0  0  0  0  0  0  0  0
  -10.2152   -6.1155   -8.8070 H   0  0  0  0  0  0  0  0  0  0  0  0
  -12.3814   -7.3377   -9.0775 H   0  0  0  0  0  0  0  0  0  0  0  0
  -13.4627   -9.6417   -9.1736 H   0  0  0  0  0  0  0  0  0  0  0  0
  -11.2082  -13.0005   -8.1817 H   0  0  0  0  0  0  0  0  0  0  0  0
   -4.7144   -8.1033   -5.0958 H   0  0  0  0  0  0  0  0  0  0  0  0
   -4.5869   -5.8740   -3.9711 H   0  0  0  0  0  0  0  0  0  0  0  0
  1  2  1  0
  2 22  2  0
  2  3  1  0
  3  4  2  0
  3 24  1  0
  4  5  1  0
  4 25  1  0
  5 21  2  0
  5  6  1  0
  6 10  2  0
  6  7  1  0
  7 23  1  0
  7  8  1  0
  8 26  1  0
  8  9  2  0
  9 10  1  0
 10 11  1  0
 11 20  1  0
 11 12  2  0
 12 13  1  0
 13 14  2  0
 13 27  1  0
 14 15  1  0
 14 28  1  0
 15 20  2  0
 15 16  1  0
 16 17  2  0
 16 29  1  0
 17 18  1  0
 18 19  2  0
 18 30  1  0
 19 20  1  0
 21 22  1  0
 21 31  1  0
 22 32  1  0
M  END
>  <i_m_ct_stereo_status>  (110) 
1

>  <s_m_source_file>  (110) 
/var/tmp/pbs.5076255.sched01/tmp0glzbzrw/400n8fk_jm.sdf

>  <i_m_source_file_index>  (110) 
3

>  <i_lp_mmshare_version>  (110) 
48012

>  <i_f3d_flags>  (110) 
0

>  <s_epik_input>  (110) 
RmMxW2NIXVtjSF1jKFtjSF1bY0hdMSktYzJuW2NIXVtuSF1jMi1jKG5bY0hdW2NIXTMpYyhjMzQpbltjSF1uW2NIXTQ=

>  <s_epik_cmdline>  (110) 
J2VwaWtfcHl0aG9uJywgJy1waHQnLCAnMi4wJywgJy1waCcsICc3LjAnLCAnLXRuJywgJzgnLCAnLW1hJywgJzIwMCcsICctaW1hZScsICc8aW5maWxlLm1hZT4nLCAnLW9tYWUnLCAnPG91dGZpbGUubWFlPic=

>  <r_lp_tautomer_probability>  (110) 
0.5

>  <r_epik_Ionization_Penalty>  (110) 
0.00761301

>  <r_epik_Ionization_Penalty_Charging>  (110) 
0.00759671

>  <r_epik_Ionization_Penalty_Neutral>  (110) 
1.63016e-05

>  <r_epik_State_Penalty>  (110) 
0.487897

>  <r_epik_Charging_Adjusted_Penalty>  (110) 
0.495494

>  <i_epik_Tot_Q>  (110) 
0

>  <i_epik_Tot_abs_Q>  (110) 
0

>  <s_epik_Chemistry_Notes>  (110) 
This compound contains an electron-poor aromatic ring that is susceptible to covalent hydrolysis at low pH, typically resulting in measured values for nitrogen ring protonation that are around two units higher than predicted values.

>  <s_lp_Force_Field>  (110) 
OPLS3e

>  <r_lp_Energy>  (110) 
42.408

>  <b_lp_Chiralities_Consistent>  (110) 
1

>  <s_lp_Variant>  (110) 
30:0-2

>  <s_i_glide_gridfile>  (110) 
pfpi4k_grid

>  <i_i_glide_lignum>  (110) 
3

>  <i_i_glide_rotatable_bonds>  (110) 
2

>  <r_i_docking_score>  (110) 
-4.07851

>  <r_i_glide_ligand_efficiency>  (110) 
-0.185387

>  <r_i_glide_ligand_efficiency_sa>  (110) 
-0.519461

>  <r_i_glide_ligand_efficiency_ln>  (110) 
-0.996936

>  <r_i_glide_gscore>  (110) 
-4.07851

>  <r_i_glide_lipo>  (110) 
-1.88187

>  <r_i_glide_hbond>  (110) 
0

>  <r_i_glide_metal>  (110) 
-0

>  <r_i_glide_rewards>  (110) 
-1.12659

>  <r_i_glide_evdw>  (110) 
-30.5946

>  <r_i_glide_ecoul>  (110) 
0.233235

>  <r_i_glide_erotb>  (110) 
0.429924

>  <r_i_glide_esite>  (110) 
-0.00522574

>  <r_i_glide_emodel>  (110) 
-36.124

>  <r_i_glide_energy>  (110) 
-30.3613

>  <r_i_glide_einternal>  (110) 
0.529213

>  <r_i_glide_intrahb_reward>  (110) 
-0

>  <i_i_glide_confnum>  (110) 
5

>  <i_i_glide_posenum>  (110) 
34

>  <r_i_glide_eff_state_penalty>  (110) 
0

>  <ligand_id>  (110) 
30

>  <original_smiles>  (110) 
Fc1ccc(-c2nc[nH]c2-c2nccc3cncnc23)cc1

>  <smiles>  (110) 
[H]c1nc([H])c2c([H])c([H])nc(-c3nc([H])n([H])c3-c3c([H])c([H])c(F)c([H])c3[H])c2n1

$$$$
31:0:0
     RDKit          3D

 57 60  0  0  1  0  0  0  0  0999 V2000
    2.4177   -3.6829   -0.7355 C   0  0  0  0  0  0  0  0  0  0  0  0
    3.9205   -3.2942   -0.8343 C   0  0  1  0  0  0  0  0  0  0  0  0
    4.4416   -3.6099   -2.2507 C   0  0  0  0  0  0  0  0  0  0  0  0
    3.6860   -2.9076   -3.3804 C   0  0  0  0  0  0  0  0  0  0  0  0
    3.8997   -1.4134   -3.2474 C   0  0  1  0  0  0  0  0  0  0  0  0
    3.0125   -0.6582   -4.1784 N   0  0  0  0  0  0  0  0  0  0  0  0
    3.6890   -0.9413   -1.8153 C   0  0  0  0  0  0  0  0  0  0  0  0
    4.2671   -1.7973   -0.6684 C   0  0  1  0  0  0  0  0  0  0  0  0
    4.1957   -1.1799    0.7798 C   0  0  1  0  0  0  0  0  0  0  0  0
    2.8587   -0.6135    1.2868 C   0  0  1  0  0  0  0  0  0  0  0  0
    1.9212   -1.6175    1.2862 O   0  0  0  0  0  0  0  0  0  0  0  0
    2.9172    0.0357    2.6721 C   0  0  0  0  0  0  0  0  0  0  0  0
    3.5136   -0.8907    3.7406 C   0  0  1  0  0  0  0  0  0  0  0  0
    2.4951   -1.9284    4.2580 C   0  0  0  0  0  0  0  0  0  0  0  0
    3.0960   -2.8038    5.3493 C   0  0  0  0  0  0  0  0  0  0  0  0
    2.5827   -2.9474    6.4372 O   0  0  0  0  0  0  0  0  0  0  0  0
    4.3778   -3.5030    4.9572 C   0  0  0  0  0  0  0  0  0  0  0  0
    5.3751   -2.4800    4.3845 C   0  0  0  0  0  0  0  0  0  0  0  0
    4.8755   -1.4806    3.2885 C   0  0  2  0  0  0  0  0  0  0  0  0
    5.9005   -0.3159    3.2829 C   0  0  0  0  0  0  0  0  0  0  0  0
    4.8893   -2.0969    1.8336 C   0  0  1  0  0  0  0  0  0  0  0  0
    4.4632   -3.5755    1.6724 C   0  0  0  0  0  0  0  0  0  0  0  0
    4.6889   -4.0915    0.2356 C   0  0  0  0  0  0  0  0  0  0  0  0
    2.2056   -4.6458   -1.1830 H   0  0  0  0  0  0  0  0  0  0  0  0
    1.7683   -2.9803   -1.2436 H   0  0  0  0  0  0  0  0  0  0  0  0
    2.0685   -3.7909    0.2854 H   0  0  0  0  0  0  0  0  0  0  0  0
    5.5122   -3.4582   -2.3339 H   0  0  0  0  0  0  0  0  0  0  0  0
    4.3308   -4.6670   -2.4232 H   0  0  0  0  0  0  0  0  0  0  0  0
    4.0764   -3.2388   -4.3369 H   0  0  0  0  0  0  0  0  0  0  0  0
    2.6179   -3.1602   -3.3742 H   0  0  0  0  0  0  0  0  0  0  0  0
    4.9246   -1.1544   -3.5021 H   0  0  0  0  0  0  0  0  0  0  0  0
    2.0699   -0.8853   -3.9596 H   0  0  0  0  0  0  0  0  0  0  0  0
    3.1936   -0.9298   -5.1305 H   0  0  0  0  0  0  0  0  0  0  0  0
    4.1725    0.0142   -1.7914 H   0  0  0  0  0  0  0  0  0  0  0  0
    2.6346   -0.8859   -1.6702 H   0  0  0  0  0  0  0  0  0  0  0  0
    5.3353   -1.7346   -0.8663 H   0  0  0  0  0  0  0  0  0  0  0  0
    4.7906   -0.2808    0.6983 H   0  0  0  0  0  0  0  0  0  0  0  0
    2.4709    0.1310    0.5884 H   0  0  0  0  0  0  0  0  0  0  0  0
    1.4959   -1.4743    0.4370 H   0  0  0  0  0  0  0  0  0  0  0  0
    3.5244    0.9306    2.5754 H   0  0  0  0  0  0  0  0  0  0  0  0
    1.9293    0.3884    2.9832 H   0  0  0  0  0  0  0  0  0  0  0  0
    3.7189   -0.2503    4.5980 H   0  0  0  0  0  0  0  0  0  0  0  0
    1.6095   -1.4322    4.6557 H   0  0  0  0  0  0  0  0  0  0  0  0
    2.1698   -2.5977    3.4682 H   0  0  0  0  0  0  0  0  0  0  0  0
    4.8211   -4.0013    5.8248 H   0  0  0  0  0  0  0  0  0  0  0  0
    4.1548   -4.2935    4.2418 H   0  0  0  0  0  0  0  0  0  0  0  0
    5.7903   -1.9246    5.2345 H   0  0  0  0  0  0  0  0  0  0  0  0
    6.1912   -3.0971    3.9505 H   0  0  0  0  0  0  0  0  0  0  0  0
    6.8993   -0.6502    3.0024 H   0  0  0  0  0  0  0  0  0  0  0  0
    5.9915    0.1612    4.2556 H   0  0  0  0  0  0  0  0  0  0  0  0
    5.6775    0.4625    2.5659 H   0  0  0  0  0  0  0  0  0  0  0  0
    5.9355   -2.1164    1.5254 H   0  0  0  0  0  0  0  0  0  0  0  0
    5.0717   -4.2077    2.3153 H   0  0  0  0  0  0  0  0  0  0  0  0
    3.4320   -3.7199    1.9828 H   0  0  0  0  0  0  0  0  0  0  0  0
    4.4168   -5.1428    0.1710 H   0  0  0  0  0  0  0  0  0  0  0  0
    5.7516   -4.0349    0.0129 H   0  0  0  0  0  0  0  0  0  0  0  0
    3.1409    0.3428   -4.0544 H   0  0  0  0  0  0  0  0  0  0  0  0
  2  1  1  6
  1 24  1  0
  1 25  1  0
  1 26  1  0
  2  8  1  0
  2 23  1  0
  2  3  1  0
  3  4  1  0
  3 27  1  0
  3 28  1  0
  4  5  1  0
  4 29  1  0
  4 30  1  0
  5  6  1  0
  5  7  1  0
  5 31  1  6
  6 32  1  0
  6 33  1  0
  6 57  1  0
  7  8  1  0
  7 34  1  0
  7 35  1  0
  8  9  1  0
  8 36  1  6
  9 21  1  0
  9 10  1  0
  9 37  1  6
 10 11  1  0
 10 12  1  0
 10 38  1  6
 11 39  1  0
 12 13  1  0
 12 40  1  0
 12 41  1  0
 13 19  1  0
 13 14  1  0
 13 42  1  1
 14 15  1  0
 14 43  1  0
 14 44  1  0
 15 16  2  0
 15 17  1  0
 17 18  1  0
 17 45  1  0
 17 46  1  0
 18 19  1  0
 18 47  1  0
 18 48  1  0
 19 20  1  6
 19 21  1  0
 20 49  1  0
 20 50  1  0
 20 51  1  0
 21 22  1  0
 21 52  1  6
 22 23  1  0
 22 53  1  0
 22 54  1  0
 23 55  1  0
 23 56  1  0
M  CHG  1   6   1
M  END
>  <i_m_ct_stereo_status>  (111) 
1

>  <s_m_source_file>  (111) 
/var/tmp/pbs.5076255.sched01/tmp0glzbzrw/400n8fk_jm.sdf

>  <i_m_source_file_index>  (111) 
4

>  <i_lp_mmshare_version>  (111) 
48012

>  <i_f3d_flags>  (111) 
0

>  <s_epik_input>  (111) 
W0NIMl0xW0NIMl1bQ0BASF0oW05IMl0pW0NIMl1bQ0BIXShbQ0BAXTEyW0NIM10pW0NAQEhdM1tDQEhdKFtDSDJdW0NIMl0yKVtDQEBdNChbQ0gzXSlbQ0BASF0oW0NIMl1bQ0BASF0zW09IXSlbQ0gyXUMoPU8pW0NIMl1bQ0gyXTQ=

>  <s_epik_cmdline>  (111) 
J2VwaWtfcHl0aG9uJywgJy1waHQnLCAnMi4wJywgJy1waCcsICc3LjAnLCAnLXRuJywgJzgnLCAnLW1hJywgJzIwMCcsICctaW1hZScsICc8aW5maWxlLm1hZT4nLCAnLW9tYWUnLCAnPG91dGZpbGUubWFlPic=

>  <r_lp_tautomer_probability>  (111) 
1

>  <r_epik_Ionization_Penalty>  (111) 
0.000108478

>  <r_epik_Ionization_Penalty_Charging>  (111) 
0.000107524

>  <r_epik_Ionization_Penalty_Neutral>  (111) 
9.53885e-07

>  <r_epik_State_Penalty>  (111) 
-0

>  <r_epik_Charging_Adjusted_Penalty>  (111) 
0.000107524

>  <i_epik_Tot_Q>  (111) 
1

>  <i_epik_Tot_abs_Q>  (111) 
1

>  <s_lp_Force_Field>  (111) 
OPLS3e

>  <r_lp_Energy>  (111) 
56.6994

>  <b_lp_Chiralities_Consistent>  (111) 
1

>  <s_lp_Variant>  (111) 
31:0-1

>  <s_i_glide_gridfile>  (111) 
pfpi4k_grid

>  <i_i_glide_lignum>  (111) 
4

>  <i_i_glide_rotatable_bonds>  (111) 
1

>  <r_i_docking_score>  (111) 
-3.42694

>  <r_i_glide_ligand_efficiency>  (111) 
-0.148997

>  <r_i_glide_ligand_efficiency_sa>  (111) 
-0.423729

>  <r_i_glide_ligand_efficiency_ln>  (111) 
-0.828665

>  <r_i_glide_gscore>  (111) 
-3.42694

>  <r_i_glide_lipo>  (111) 
-0.638324

>  <r_i_glide_hbond>  (111) 
-0.156574

>  <r_i_glide_metal>  (111) 
-0

>  <r_i_glide_rewards>  (111) 
-1.22394

>  <r_i_glide_evdw>  (111) 
-9.53954

>  <r_i_glide_ecoul>  (111) 
-6.20752

>  <r_i_glide_erotb>  (111) 
0

>  <r_i_glide_esite>  (111) 
0

>  <r_i_glide_emodel>  (111) 
-19.4732

>  <r_i_glide_energy>  (111) 
-15.7471

>  <r_i_glide_einternal>  (111) 
0.843458

>  <r_i_glide_intrahb_reward>  (111) 
-0

>  <i_i_glide_confnum>  (111) 
1

>  <i_i_glide_posenum>  (111) 
4

>  <r_i_glide_eff_state_penalty>  (111) 
0

>  <ligand_id>  (111) 
31

>  <original_smiles>  (111) 
CC12CCC(N)CC1C1C(O)CC3CC(=O)CCC3(C)C1CC2

>  <smiles>  (111) 
[H]OC1([H])C([H])([H])C2([H])C([H])([H])C(=O)C([H])([H])C([H])([H])C2(C([H])([H])[H])C2([H])C([H])([H])C([H])([H])C3(C([H])([H])[H])C([H])([H])C([H])([H])C([H])([N+]([H])([H])[H])C([H])([H])C3([H])C12[H]

$$$$
31:0:1
     RDKit          3D

 57 60  0  0  1  0  0  0  0  0999 V2000
    3.0329   -3.9541    1.2248 C   0  0  0  0  0  0  0  0  0  0  0  0
    4.4348   -3.2866    1.1694 C   0  0  1  0  0  0  0  0  0  0  0  0
    5.0702   -3.6620   -0.1969 C   0  0  0  0  0  0  0  0  0  0  0  0
    4.2827   -3.0805   -1.3890 C   0  0  0  0  0  0  0  0  0  0  0  0
    4.1497   -1.5462   -1.3051 C   0  0  1  0  0  0  0  0  0  0  0  0
    3.2205   -1.0698   -2.3454 N   0  0  0  0  0  0  0  0  0  0  0  0
    3.6821   -1.0710    0.0879 C   0  0  0  0  0  0  0  0  0  0  0  0
    4.4465   -1.7268    1.2531 C   0  0  1  0  0  0  0  0  0  0  0  0
    4.1749   -1.0936    2.6562 C   0  0  1  0  0  0  0  0  0  0  0  0
    2.7049   -0.7754    3.0425 C   0  0  1  0  0  0  0  0  0  0  0  0
    1.8538   -1.8970    3.0747 O   0  0  0  0  0  0  0  0  0  0  0  0
    2.6240   -0.0479    4.3944 C   0  0  0  0  0  0  0  0  0  0  0  0
    3.3620   -0.7715    5.5465 C   0  0  1  0  0  0  0  0  0  0  0  0
    2.5439   -1.9649    6.0921 C   0  0  0  0  0  0  0  0  0  0  0  0
    3.2561   -2.6390    7.2527 C   0  0  0  0  0  0  0  0  0  0  0  0
    2.7170   -2.8213    8.3431 O   0  0  0  0  0  0  0  0  0  0  0  0
    4.6838   -3.0752    6.9674 C   0  0  0  0  0  0  0  0  0  0  0  0
    5.5068   -1.9117    6.3715 C   0  0  0  0  0  0  0  0  0  0  0  0
    4.8548   -1.0964    5.2014 C   0  0  2  0  0  0  0  0  0  0  0  0
    5.6422    0.2445    5.1771 C   0  0  0  0  0  0  0  0  0  0  0  0
    5.0153   -1.7688    3.7805 C   0  0  1  0  0  0  0  0  0  0  0  0
    4.9082   -3.3089    3.7050 C   0  0  0  0  0  0  0  0  0  0  0  0
    5.3052   -3.8468    2.3142 C   0  0  0  0  0  0  0  0  0  0  0  0
    3.0687   -4.9581    0.7940 H   0  0  0  0  0  0  0  0  0  0  0  0
    2.2795   -3.3976    0.6666 H   0  0  0  0  0  0  0  0  0  0  0  0
    2.6716   -4.0841    2.2422 H   0  0  0  0  0  0  0  0  0  0  0  0
    6.0991   -3.2988   -0.2454 H   0  0  0  0  0  0  0  0  0  0  0  0
    5.1398   -4.7470   -0.3014 H   0  0  0  0  0  0  0  0  0  0  0  0
    4.7939   -3.3593   -2.3119 H   0  0  0  0  0  0  0  0  0  0  0  0
    3.2999   -3.5533   -1.4404 H   0  0  0  0  0  0  0  0  0  0  0  0
    5.1247   -1.1012   -1.5182 H   0  0  0  0  0  0  0  0  0  0  0  0
    2.2983   -1.4448   -2.1477 H   0  0  0  0  0  0  0  0  0  0  0  0
    3.5281   -1.3719   -3.2559 H   0  0  0  0  0  0  0  0  0  0  0  0
    3.8084    0.0066    0.1542 H   0  0  0  0  0  0  0  0  0  0  0  0
    2.6182   -1.2631    0.2001 H   0  0  0  0  0  0  0  0  0  0  0  0
    5.4865   -1.4523    1.0655 H   0  0  0  0  0  0  0  0  0  0  0  0
    4.6061   -0.0998    2.5534 H   0  0  0  0  0  0  0  0  0  0  0  0
    2.2884   -0.1069    2.2888 H   0  0  0  0  0  0  0  0  0  0  0  0
    1.8034   -2.2482    2.1993 H   0  0  0  0  0  0  0  0  0  0  0  0
    3.0575    0.9456    4.2706 H   0  0  0  0  0  0  0  0  0  0  0  0
    1.5809    0.1212    4.6643 H   0  0  0  0  0  0  0  0  0  0  0  0
    3.3793   -0.0561    6.3731 H   0  0  0  0  0  0  0  0  0  0  0  0
    1.5642   -1.6262    6.4253 H   0  0  0  0  0  0  0  0  0  0  0  0
    2.3834   -2.7174    5.3252 H   0  0  0  0  0  0  0  0  0  0  0  0
    5.1458   -3.4306    7.8896 H   0  0  0  0  0  0  0  0  0  0  0  0
    4.6445   -3.9285    6.2965 H   0  0  0  0  0  0  0  0  0  0  0  0
    5.7064   -1.2325    7.2042 H   0  0  0  0  0  0  0  0  0  0  0  0
    6.4868   -2.2848    6.0720 H   0  0  0  0  0  0  0  0  0  0  0  0
    6.7100    0.0850    5.0223 H   0  0  0  0  0  0  0  0  0  0  0  0
    5.5393    0.7801    6.1228 H   0  0  0  0  0  0  0  0  0  0  0  0
    5.3037    0.9218    4.3939 H   0  0  0  0  0  0  0  0  0  0  0  0
    6.0437   -1.5817    3.4825 H   0  0  0  0  0  0  0  0  0  0  0  0
    5.5959   -3.7636    4.4115 H   0  0  0  0  0  0  0  0  0  0  0  0
    3.9120   -3.6441    3.9871 H   0  0  0  0  0  0  0  0  0  0  0  0
    5.2596   -4.9364    2.3153 H   0  0  0  0  0  0  0  0  0  0  0  0
    6.3477   -3.5874    2.1269 H   0  0  0  0  0  0  0  0  0  0  0  0
    3.1642   -0.0618   -2.3322 H   0  0  0  0  0  0  0  0  0  0  0  0
  2  1  1  6
  1 24  1  0
  1 25  1  0
  1 26  1  0
  2  8  1  0
  2 23  1  0
  2  3  1  0
  3  4  1  0
  3 27  1  0
  3 28  1  0
  4  5  1  0
  4 29  1  0
  4 30  1  0
  5  6  1  0
  5  7  1  0
  5 31  1  6
  6 32  1  0
  6 33  1  0
  6 57  1  0
  7  8  1  0
  7 34  1  0
  7 35  1  0
  8  9  1  0
  8 36  1  6
  9 21  1  0
  9 10  1  0
  9 37  1  6
 10 11  1  0
 10 12  1  0
 10 38  1  6
 11 39  1  0
 12 13  1  0
 12 40  1  0
 12 41  1  0
 13 19  1  0
 13 14  1  0
 13 42  1  1
 14 15  1  0
 14 43  1  0
 14 44  1  0
 15 16  2  0
 15 17  1  0
 17 18  1  0
 17 45  1  0
 17 46  1  0
 18 19  1  0
 18 47  1  0
 18 48  1  0
 19 20  1  6
 19 21  1  0
 20 49  1  0
 20 50  1  0
 20 51  1  0
 21 22  1  0
 21 52  1  6
 22 23  1  0
 22 53  1  0
 22 54  1  0
 23 55  1  0
 23 56  1  0
M  CHG  1   6   1
M  END
>  <i_m_ct_stereo_status>  (112) 
1

>  <s_m_source_file>  (112) 
/var/tmp/pbs.5076255.sched01/tmp0glzbzrw/400n8fk_jm.sdf

>  <i_m_source_file_index>  (112) 
4

>  <i_lp_mmshare_version>  (112) 
48012

>  <i_f3d_flags>  (112) 
0

>  <s_epik_input>  (112) 
W0NIMl0xW0NIMl1bQ0BASF0oW05IMl0pW0NIMl1bQ0BIXShbQ0BAXTEyW0NIM10pW0NAQEhdM1tDQEhdKFtDSDJdW0NIMl0yKVtDQEBdNChbQ0gzXSlbQ0BASF0oW0NIMl1bQ0BASF0zW09IXSlbQ0gyXUMoPU8pW0NIMl1bQ0gyXTQ=

>  <s_epik_cmdline>  (112) 
J2VwaWtfcHl0aG9uJywgJy1waHQnLCAnMi4wJywgJy1waCcsICc3LjAnLCAnLXRuJywgJzgnLCAnLW1hJywgJzIwMCcsICctaW1hZScsICc8aW5maWxlLm1hZT4nLCAnLW9tYWUnLCAnPG91dGZpbGUubWFlPic=

>  <r_lp_tautomer_probability>  (112) 
1

>  <r_epik_Ionization_Penalty>  (112) 
0.000108478

>  <r_epik_Ionization_Penalty_Charging>  (112) 
0.000107524

>  <r_epik_Ionization_Penalty_Neutral>  (112) 
9.53885e-07

>  <r_epik_State_Penalty>  (112) 
-0

>  <r_epik_Charging_Adjusted_Penalty>  (112) 
0.000107524

>  <i_epik_Tot_Q>  (112) 
1

>  <i_epik_Tot_abs_Q>  (112) 
1

>  <s_lp_Force_Field>  (112) 
OPLS3e

>  <r_lp_Energy>  (112) 
56.6994

>  <b_lp_Chiralities_Consistent>  (112) 
1

>  <s_lp_Variant>  (112) 
31:0-1

>  <s_i_glide_gridfile>  (112) 
pfpi4k_grid

>  <i_i_glide_lignum>  (112) 
4

>  <i_i_glide_rotatable_bonds>  (112) 
1

>  <r_i_docking_score>  (112) 
-3.2348

>  <r_i_glide_ligand_efficiency>  (112) 
-0.140644

>  <r_i_glide_ligand_efficiency_sa>  (112) 
-0.399972

>  <r_i_glide_ligand_efficiency_ln>  (112) 
-0.782205

>  <r_i_glide_gscore>  (112) 
-3.2348

>  <r_i_glide_lipo>  (112) 
-0.358323

>  <r_i_glide_hbond>  (112) 
-0.126989

>  <r_i_glide_metal>  (112) 
-0

>  <r_i_glide_rewards>  (112) 
-1.22394

>  <r_i_glide_evdw>  (112) 
-17.0927

>  <r_i_glide_ecoul>  (112) 
-4.01372

>  <r_i_glide_erotb>  (112) 
0

>  <r_i_glide_esite>  (112) 
-0.068861

>  <r_i_glide_emodel>  (112) 
-26.0747

>  <r_i_glide_energy>  (112) 
-21.1065

>  <r_i_glide_einternal>  (112) 
0.368452

>  <r_i_glide_intrahb_reward>  (112) 
-0

>  <i_i_glide_confnum>  (112) 
2

>  <i_i_glide_posenum>  (112) 
30

>  <r_i_glide_eff_state_penalty>  (112) 
0

>  <ligand_id>  (112) 
31

>  <original_smiles>  (112) 
CC12CCC(N)CC1C1C(O)CC3CC(=O)CCC3(C)C1CC2

>  <smiles>  (112) 
[H]OC1([H])C([H])([H])C2([H])C([H])([H])C(=O)C([H])([H])C([H])([H])C2(C([H])([H])[H])C2([H])C([H])([H])C([H])([H])C3(C([H])([H])[H])C([H])([H])C([H])([H])C([H])([N+]([H])([H])[H])C([H])([H])C3([H])C12[H]

$$$$
31:0:2
     RDKit          3D

 57 60  0  0  1  0  0  0  0  0999 V2000
    3.5145   -4.8768    0.8334 C   0  0  0  0  0  0  0  0  0  0  0  0
    4.6991   -3.8811    0.9511 C   0  0  1  0  0  0  0  0  0  0  0  0
    5.4390   -3.8750   -0.4132 C   0  0  0  0  0  0  0  0  0  0  0  0
    4.5572   -3.3362   -1.5560 C   0  0  0  0  0  0  0  0  0  0  0  0
    4.0263   -1.9180   -1.2717 C   0  0  1  0  0  0  0  0  0  0  0  0
    3.0350   -1.5348   -2.2964 N   0  0  0  0  0  0  0  0  0  0  0  0
    3.4140   -1.7942    0.1431 C   0  0  0  0  0  0  0  0  0  0  0  0
    4.3112   -2.3977    1.2510 C   0  0  1  0  0  0  0  0  0  0  0  0
    3.8673   -2.0689    2.7148 C   0  0  1  0  0  0  0  0  0  0  0  0
    2.3575   -2.1910    3.0547 C   0  0  1  0  0  0  0  0  0  0  0  0
    1.8259   -3.4821    2.8837 O   0  0  0  0  0  0  0  0  0  0  0  0
    2.0645   -1.7175    4.4891 C   0  0  0  0  0  0  0  0  0  0  0  0
    2.9354   -2.3980    5.5703 C   0  0  1  0  0  0  0  0  0  0  0  0
    2.4347   -3.8234    5.9011 C   0  0  0  0  0  0  0  0  0  0  0  0
    3.2741   -4.4604    6.9969 C   0  0  0  0  0  0  0  0  0  0  0  0
    2.7751   -4.9302    8.0168 O   0  0  0  0  0  0  0  0  0  0  0  0
    4.7685   -4.4872    6.7313 C   0  0  0  0  0  0  0  0  0  0  0  0
    5.2837   -3.0817    6.3508 C   0  0  0  0  0  0  0  0  0  0  0  0
    4.4690   -2.2890    5.2714 C   0  0  2  0  0  0  0  0  0  0  0  0
    4.8927   -0.8085    5.4797 C   0  0  0  0  0  0  0  0  0  0  0  0
    4.8304   -2.6812    3.7833 C   0  0  1  0  0  0  0  0  0  0  0  0
    5.1077   -4.1696    3.4868 C   0  0  0  0  0  0  0  0  0  0  0  0
    5.6576   -4.3745    2.0595 C   0  0  0  0  0  0  0  0  0  0  0  0
    3.8041   -5.7639    0.2672 H   0  0  0  0  0  0  0  0  0  0  0  0
    2.6511   -4.4500    0.3243 H   0  0  0  0  0  0  0  0  0  0  0  0
    3.1736   -5.2468    1.7958 H   0  0  0  0  0  0  0  0  0  0  0  0
    6.3446   -3.2697   -0.3479 H   0  0  0  0  0  0  0  0  0  0  0  0
    5.7793   -4.8820   -0.6607 H   0  0  0  0  0  0  0  0  0  0  0  0
    5.1354   -3.3422   -2.4809 H   0  0  0  0  0  0  0  0  0  0  0  0
    3.7253   -4.0212   -1.7228 H   0  0  0  0  0  0  0  0  0  0  0  0
    4.8604   -1.2179   -1.3550 H   0  0  0  0  0  0  0  0  0  0  0  0
    2.2363   -2.1517   -2.2294 H   0  0  0  0  0  0  0  0  0  0  0  0
    3.4325   -1.5852   -3.2218 H   0  0  0  0  0  0  0  0  0  0  0  0
    3.2387   -0.7402    0.3583 H   0  0  0  0  0  0  0  0  0  0  0  0
    2.4340   -2.2666    0.1633 H   0  0  0  0  0  0  0  0  0  0  0  0
    5.2514   -1.8479    1.1629 H   0  0  0  0  0  0  0  0  0  0  0  0
    4.0346   -0.9935    2.7789 H   0  0  0  0  0  0  0  0  0  0  0  0
    1.7945   -1.5468    2.3770 H   0  0  0  0  0  0  0  0  0  0  0  0
    2.3186   -4.0720    3.4326 H   0  0  0  0  0  0  0  0  0  0  0  0
    2.2323   -0.6408    4.5309 H   0  0  0  0  0  0  0  0  0  0  0  0
    1.0065   -1.8467    4.7205 H   0  0  0  0  0  0  0  0  0  0  0  0
    2.7549   -1.8319    6.4868 H   0  0  0  0  0  0  0  0  0  0  0  0
    1.3939   -3.7935    6.2211 H   0  0  0  0  0  0  0  0  0  0  0  0
    2.4886   -4.4811    5.0387 H   0  0  0  0  0  0  0  0  0  0  0  0
    5.2867   -4.8532    7.6181 H   0  0  0  0  0  0  0  0  0  0  0  0
    4.9568   -5.2174    5.9456 H   0  0  0  0  0  0  0  0  0  0  0  0
    5.2864   -2.5090    7.2795 H   0  0  0  0  0  0  0  0  0  0  0  0
    6.3320   -3.1465    6.0587 H   0  0  0  0  0  0  0  0  0  0  0  0
    5.9701   -0.6776    5.3646 H   0  0  0  0  0  0  0  0  0  0  0  0
    4.6405   -0.4571    6.4819 H   0  0  0  0  0  0  0  0  0  0  0  0
    4.4144   -0.1223    4.7822 H   0  0  0  0  0  0  0  0  0  0  0  0
    5.8006   -2.2149    3.6004 H   0  0  0  0  0  0  0  0  0  0  0  0
    5.8750   -4.5455    4.1608 H   0  0  0  0  0  0  0  0  0  0  0  0
    4.2260   -4.7802    3.6603 H   0  0  0  0  0  0  0  0  0  0  0  0
    5.8945   -5.4282    1.9030 H   0  0  0  0  0  0  0  0  0  0  0  0
    6.6074   -3.8417    1.9790 H   0  0  0  0  0  0  0  0  0  0  0  0
    2.7032   -0.5972   -2.1154 H   0  0  0  0  0  0  0  0  0  0  0  0
  2  1  1  6
  1 24  1  0
  1 25  1  0
  1 26  1  0
  2  8  1  0
  2 23  1  0
  2  3  1  0
  3  4  1  0
  3 27  1  0
  3 28  1  0
  4  5  1  0
  4 29  1  0
  4 30  1  0
  5  6  1  0
  5  7  1  0
  5 31  1  1
  6 32  1  0
  6 33  1  0
  6 57  1  0
  7  8  1  0
  7 34  1  0
  7 35  1  0
  8  9  1  0
  8 36  1  6
  9 21  1  0
  9 10  1  0
  9 37  1  6
 10 11  1  0
 10 12  1  0
 10 38  1  6
 11 39  1  0
 12 13  1  0
 12 40  1  0
 12 41  1  0
 13 19  1  0
 13 14  1  0
 13 42  1  1
 14 15  1  0
 14 43  1  0
 14 44  1  0
 15 16  2  0
 15 17  1  0
 17 18  1  0
 17 45  1  0
 17 46  1  0
 18 19  1  0
 18 47  1  0
 18 48  1  0
 19 20  1  6
 19 21  1  0
 20 49  1  0
 20 50  1  0
 20 51  1  0
 21 22  1  0
 21 52  1  6
 22 23  1  0
 22 53  1  0
 22 54  1  0
 23 55  1  0
 23 56  1  0
M  CHG  1   6   1
M  END
>  <i_m_ct_stereo_status>  (113) 
1

>  <s_m_source_file>  (113) 
/var/tmp/pbs.5076255.sched01/tmp0glzbzrw/400n8fk_jm.sdf

>  <i_m_source_file_index>  (113) 
4

>  <i_lp_mmshare_version>  (113) 
48012

>  <i_f3d_flags>  (113) 
0

>  <s_epik_input>  (113) 
W0NIMl0xW0NIMl1bQ0BASF0oW05IMl0pW0NIMl1bQ0BIXShbQ0BAXTEyW0NIM10pW0NAQEhdM1tDQEhdKFtDSDJdW0NIMl0yKVtDQEBdNChbQ0gzXSlbQ0BASF0oW0NIMl1bQ0BASF0zW09IXSlbQ0gyXUMoPU8pW0NIMl1bQ0gyXTQ=

>  <s_epik_cmdline>  (113) 
J2VwaWtfcHl0aG9uJywgJy1waHQnLCAnMi4wJywgJy1waCcsICc3LjAnLCAnLXRuJywgJzgnLCAnLW1hJywgJzIwMCcsICctaW1hZScsICc8aW5maWxlLm1hZT4nLCAnLW9tYWUnLCAnPG91dGZpbGUubWFlPic=

>  <r_lp_tautomer_probability>  (113) 
1

>  <r_epik_Ionization_Penalty>  (113) 
0.000108478

>  <r_epik_Ionization_Penalty_Charging>  (113) 
0.000107524

>  <r_epik_Ionization_Penalty_Neutral>  (113) 
9.53885e-07

>  <r_epik_State_Penalty>  (113) 
-0

>  <r_epik_Charging_Adjusted_Penalty>  (113) 
0.000107524

>  <i_epik_Tot_Q>  (113) 
1

>  <i_epik_Tot_abs_Q>  (113) 
1

>  <s_lp_Force_Field>  (113) 
OPLS3e

>  <r_lp_Energy>  (113) 
56.6994

>  <b_lp_Chiralities_Consistent>  (113) 
1

>  <s_lp_Variant>  (113) 
31:0-1

>  <s_i_glide_gridfile>  (113) 
pfpi4k_grid

>  <i_i_glide_lignum>  (113) 
4

>  <i_i_glide_rotatable_bonds>  (113) 
1

>  <r_i_docking_score>  (113) 
-2.67923

>  <r_i_glide_ligand_efficiency>  (113) 
-0.116488

>  <r_i_glide_ligand_efficiency_sa>  (113) 
-0.331277

>  <r_i_glide_ligand_efficiency_ln>  (113) 
-0.647863

>  <r_i_glide_gscore>  (113) 
-2.67923

>  <r_i_glide_lipo>  (113) 
-0.228821

>  <r_i_glide_hbond>  (113) 
-0.00581868

>  <r_i_glide_metal>  (113) 
-0

>  <r_i_glide_rewards>  (113) 
-1.22394

>  <r_i_glide_evdw>  (113) 
-16.5179

>  <r_i_glide_ecoul>  (113) 
-2.08311

>  <r_i_glide_erotb>  (113) 
0

>  <r_i_glide_esite>  (113) 
-0.0822935

>  <r_i_glide_emodel>  (113) 
-22.8565

>  <r_i_glide_energy>  (113) 
-18.601

>  <r_i_glide_einternal>  (113) 
0.0062832

>  <r_i_glide_intrahb_reward>  (113) 
-0

>  <i_i_glide_confnum>  (113) 
2

>  <i_i_glide_posenum>  (113) 
38

>  <r_i_glide_eff_state_penalty>  (113) 
0

>  <ligand_id>  (113) 
31

>  <original_smiles>  (113) 
CC12CCC(N)CC1C1C(O)CC3CC(=O)CCC3(C)C1CC2

>  <smiles>  (113) 
[H]OC1([H])C([H])([H])C2([H])C([H])([H])C(=O)C([H])([H])C([H])([H])C2(C([H])([H])[H])C2([H])C([H])([H])C([H])([H])C3(C([H])([H])[H])C([H])([H])C([H])([H])C([H])([N+]([H])([H])[H])C([H])([H])C3([H])C12[H]

$$$$
32:0:0
     RDKit          3D

 78 83  0  0  1  0  0  0  0  0999 V2000
    3.3383   -3.1699   -1.4476 C   0  0  0  0  0  0  0  0  0  0  0  0
    3.6588   -1.9407   -0.5757 C   0  0  2  0  0  0  0  0  0  0  0  0
    5.1399   -1.4741   -0.8018 C   0  0  0  0  0  0  0  0  0  0  0  0
    6.1912   -1.6517    0.3679 C   0  0  0  0  0  0  0  0  0  0  0  0
    5.7552   -1.1127    1.7810 C   0  0  1  0  0  0  0  0  0  0  0  0
    4.7104   -0.2084    1.4304 O   0  0  0  0  0  0  0  0  0  0  0  0
    3.4897   -0.8177    1.8126 C   0  0  2  0  0  0  0  0  0  0  0  0
    2.3502    0.2143    1.6142 C   0  0  2  0  0  0  0  0  0  0  0  0
    2.3563    1.4455    2.5331 C   0  0  0  0  0  0  0  0  0  0  0  0
    1.0954   -0.4083    1.6850 O   0  0  0  0  0  0  0  0  0  0  0  0
    3.9438   -1.0185    3.2573 C   0  0  1  0  0  0  0  0  0  0  0  0
    2.9784   -1.3532    4.2292 O   0  0  0  0  0  0  0  0  0  0  0  0
    5.1597   -1.9136    3.0403 C   0  0  1  0  0  0  0  0  0  0  0  0
    4.8372   -3.4933    3.1402 C   0  0  2  0  0  0  0  0  0  0  0  0
    5.1269   -3.8160    4.6385 C   0  0  0  0  0  0  0  0  0  0  0  0
    5.7743   -4.3821    2.2721 C   0  0  0  0  0  0  0  0  0  0  0  0
    5.5817   -5.8835    2.4532 C   0  0  0  0  0  0  0  0  0  0  0  0
    4.1402   -6.3187    2.1048 C   0  0  2  0  0  0  0  0  0  0  0  0
    3.1245   -5.4958    2.9425 C   0  0  2  0  0  0  0  0  0  0  0  0
    1.6688   -5.9314    2.6711 C   0  0  0  0  0  0  0  0  0  0  0  0
    1.4821   -7.4381    2.8528 C   0  0  0  0  0  0  0  0  0  0  0  0
    2.4335   -8.2323    1.9359 C   0  0  2  0  0  0  0  0  0  0  0  0
    2.1601   -9.7470    2.0463 C   0  0  0  0  0  0  0  0  0  0  0  0
    2.6657  -10.3664    3.3551 C   0  0  1  0  0  0  0  0  0  0  0  0
    2.5799  -11.7683    3.2808 O   0  0  0  0  0  0  0  0  0  0  0  0
    4.1209   -9.9958    3.6564 C   0  0  0  0  0  0  0  0  0  0  0  0
    4.3710   -8.4802    3.5446 C   0  0  0  0  0  0  0  0  0  0  0  0
    3.9379   -7.8802    2.1759 C   0  0  2  0  0  0  0  0  0  0  0  0
    4.7968   -8.5109    1.0476 C   0  0  0  0  0  0  0  0  0  0  0  0
    3.3318   -3.9473    2.8226 C   0  0  2  0  0  0  0  0  0  0  0  0
    2.6383   -3.3293    1.5542 C   0  0  0  0  0  0  0  0  0  0  0  0
    3.3722   -2.1337    0.9352 C   0  0  1  0  0  0  0  0  0  0  0  0
    3.9386   -4.0373   -1.1636 H   0  0  0  0  0  0  0  0  0  0  0  0
    3.5325   -2.9673   -2.5002 H   0  0  0  0  0  0  0  0  0  0  0  0
    2.2859   -3.4429   -1.3702 H   0  0  0  0  0  0  0  0  0  0  0  0
    3.0156   -1.1394   -0.9409 H   0  0  0  0  0  0  0  0  0  0  0  0
    5.5369   -1.9346   -1.7094 H   0  0  0  0  0  0  0  0  0  0  0  0
    5.0927   -0.4091   -1.0419 H   0  0  0  0  0  0  0  0  0  0  0  0
    6.6129   -2.6495    0.3947 H   0  0  0  0  0  0  0  0  0  0  0  0
    7.0455   -1.0406    0.0803 H   0  0  0  0  0  0  0  0  0  0  0  0
    6.5780   -0.5181    2.1626 H   0  0  0  0  0  0  0  0  0  0  0  0
    2.4132    0.5481    0.5885 H   0  0  0  0  0  0  0  0  0  0  0  0
    3.3075    1.9728    2.4735 H   0  0  0  0  0  0  0  0  0  0  0  0
    2.1842    1.1866    3.5771 H   0  0  0  0  0  0  0  0  0  0  0  0
    1.5757    2.1545    2.2461 H   0  0  0  0  0  0  0  0  0  0  0  0
    0.9054   -0.6600    0.7610 H   0  0  0  0  0  0  0  0  0  0  0  0
    4.3247   -0.0634    3.6294 H   0  0  0  0  0  0  0  0  0  0  0  0
    2.3068   -0.6837    4.2075 H   0  0  0  0  0  0  0  0  0  0  0  0
    5.8233   -1.6752    3.8730 H   0  0  0  0  0  0  0  0  0  0  0  0
    4.9375   -4.8466    4.9268 H   0  0  0  0  0  0  0  0  0  0  0  0
    4.5276   -3.1999    5.3141 H   0  0  0  0  0  0  0  0  0  0  0  0
    6.1748   -3.6307    4.8933 H   0  0  0  0  0  0  0  0  0  0  0  0
    5.5956   -4.2355    1.2180 H   0  0  0  0  0  0  0  0  0  0  0  0
    6.8184   -4.1398    2.4495 H   0  0  0  0  0  0  0  0  0  0  0  0
    6.2974   -6.3676    1.7930 H   0  0  0  0  0  0  0  0  0  0  0  0
    5.8566   -6.1696    3.4639 H   0  0  0  0  0  0  0  0  0  0  0  0
    3.9786   -6.0422    1.0637 H   0  0  0  0  0  0  0  0  0  0  0  0
    3.2854   -5.7563    3.9854 H   0  0  0  0  0  0  0  0  0  0  0  0
    0.9960   -5.3993    3.3446 H   0  0  0  0  0  0  0  0  0  0  0  0
    1.3712   -5.6869    1.6536 H   0  0  0  0  0  0  0  0  0  0  0  0
    1.6379   -7.6994    3.8994 H   0  0  0  0  0  0  0  0  0  0  0  0
    0.4494   -7.6988    2.6204 H   0  0  0  0  0  0  0  0  0  0  0  0
    2.1731   -7.9422    0.9187 H   0  0  0  0  0  0  0  0  0  0  0  0
    1.0906   -9.9331    1.9402 H   0  0  0  0  0  0  0  0  0  0  0  0
    2.6180  -10.2404    1.1917 H   0  0  0  0  0  0  0  0  0  0  0  0
    2.0261  -10.0383    4.1741 H   0  0  0  0  0  0  0  0  0  0  0  0
    3.0985  -12.0792    2.5504 H   0  0  0  0  0  0  0  0  0  0  0  0
    4.3662  -10.3344    4.6618 H   0  0  0  0  0  0  0  0  0  0  0  0
    4.7916  -10.5302    2.9852 H   0  0  0  0  0  0  0  0  0  0  0  0
    3.8374   -7.9873    4.3546 H   0  0  0  0  0  0  0  0  0  0  0  0
    5.4300   -8.3028    3.7313 H   0  0  0  0  0  0  0  0  0  0  0  0
    4.6358   -9.5801    0.9287 H   0  0  0  0  0  0  0  0  0  0  0  0
    5.8620   -8.4047    1.2455 H   0  0  0  0  0  0  0  0  0  0  0  0
    4.5929   -8.0543    0.0791 H   0  0  0  0  0  0  0  0  0  0  0  0
    2.7226   -3.5989    3.6510 H   0  0  0  0  0  0  0  0  0  0  0  0
    2.5792   -4.1068    0.8012 H   0  0  0  0  0  0  0  0  0  0  0  0
    1.6215   -3.0383    1.8060 H   0  0  0  0  0  0  0  0  0  0  0  0
    4.2340   -2.7463    0.9680 H   0  0  0  0  0  0  0  0  0  0  0  0
  1  2  1  0
  1 33  1  0
  1 34  1  0
  1 35  1  0
  2 32  1  0
  2  3  1  0
  2 36  1  6
  3  4  1  0
  3 37  1  0
  3 38  1  0
  4  5  1  0
  4 39  1  0
  4 40  1  0
  5 13  1  0
  5  6  1  0
  5 41  1  1
  7  6  1  6
  7 32  1  0
  7  8  1  0
  7 11  1  0
  8  9  1  0
  8 10  1  0
  8 42  1  6
  9 43  1  0
  9 44  1  0
  9 45  1  0
 10 46  1  0
 11 12  1  0
 11 13  1  0
 11 47  1  1
 12 48  1  0
 13 14  1  0
 13 49  1  1
 14 30  1  0
 14 15  1  1
 14 16  1  0
 15 50  1  0
 15 51  1  0
 15 52  1  0
 16 17  1  0
 16 53  1  0
 16 54  1  0
 17 18  1  0
 17 55  1  0
 17 56  1  0
 18 28  1  0
 18 19  1  0
 18 57  1  6
 19 20  1  0
 19 30  1  0
 19 58  1  1
 20 21  1  0
 20 59  1  0
 20 60  1  0
 21 22  1  0
 21 61  1  0
 21 62  1  0
 22 28  1  0
 22 23  1  0
 22 63  1  6
 23 24  1  0
 23 64  1  0
 23 65  1  0
 24 25  1  0
 24 26  1  0
 24 66  1  1
 25 67  1  0
 26 27  1  0
 26 68  1  0
 26 69  1  0
 27 28  1  0
 27 70  1  0
 27 71  1  0
 28 29  1  6
 29 72  1  0
 29 73  1  0
 29 74  1  0
 30 31  1  0
 30 75  1  1
 31 32  1  0
 31 76  1  0
 31 77  1  0
 32 78  1  1
M  END
>  <i_m_ct_stereo_status>  (114) 
1

>  <s_m_source_file>  (114) 
/var/tmp/pbs.5076255.sched01/tmp0glzbzrw/400n8fk_jm.sdf

>  <i_m_source_file_index>  (114) 
5

>  <i_lp_mmshare_version>  (114) 
48012

>  <i_f3d_flags>  (114) 
0

>  <s_epik_input>  (114) 
W0NIM11bQ0BIXShbT0hdKVtDQEBdMTJbQ0BASF0zW0NASF0oW0NIM10pW0NIMl1bQ0gyXVtDQEBIXShPMSlbQ0BASF0oW0NAQEhdMltPSF0pW0NAQF00KFtDSDNdKVtDQEBIXShbQ0gyXTMpW0NAQEhdNVtDQEBIXShbQ0gyXVtDSDJdNClbQ0BdNihbQ0gzXSlbQ0BIXShbQ0gyXVtDSDJdNSlbQ0gyXVtDQEBIXShbT0hdKVtDSDJdW0NIMl02

>  <s_epik_cmdline>  (114) 
J2VwaWtfcHl0aG9uJywgJy1waHQnLCAnMi4wJywgJy1waCcsICc3LjAnLCAnLXRuJywgJzgnLCAnLW1hJywgJzIwMCcsICctaW1hZScsICc8aW5maWxlLm1hZT4nLCAnLW9tYWUnLCAnPG91dGZpbGUubWFlPic=

>  <r_lp_tautomer_probability>  (114) 
1

>  <r_epik_Ionization_Penalty>  (114) 
3.30126e-06

>  <r_epik_Ionization_Penalty_Charging>  (114) 
0

>  <r_epik_Ionization_Penalty_Neutral>  (114) 
3.30126e-06

>  <r_epik_State_Penalty>  (114) 
-0

>  <r_epik_Charging_Adjusted_Penalty>  (114) 
0

>  <i_epik_Tot_Q>  (114) 
0

>  <i_epik_Tot_abs_Q>  (114) 
0

>  <s_lp_Force_Field>  (114) 
OPLS3e

>  <r_lp_Energy>  (114) 
136.201

>  <b_lp_Chiralities_Consistent>  (114) 
1

>  <s_lp_Variant>  (114) 
32:0-1

>  <s_i_glide_gridfile>  (114) 
pfpi4k_grid

>  <i_i_glide_lignum>  (114) 
5

>  <i_i_glide_rotatable_bonds>  (114) 
4

>  <r_i_docking_score>  (114) 
-2.9829

>  <r_i_glide_ligand_efficiency>  (114) 
-0.0932156

>  <r_i_glide_ligand_efficiency_sa>  (114) 
-0.295941

>  <r_i_glide_ligand_efficiency_ln>  (114) 
-0.667952

>  <r_i_glide_gscore>  (114) 
-2.9829

>  <r_i_glide_lipo>  (114) 
-0.526562

>  <r_i_glide_hbond>  (114) 
-0.0262222

>  <r_i_glide_metal>  (114) 
-0

>  <r_i_glide_rewards>  (114) 
-0.363665

>  <r_i_glide_evdw>  (114) 
-28.5615

>  <r_i_glide_ecoul>  (114) 
-4.92475

>  <r_i_glide_erotb>  (114) 
0.100338

>  <r_i_glide_esite>  (114) 
0

>  <r_i_glide_emodel>  (114) 
-39.2529

>  <r_i_glide_energy>  (114) 
-33.4863

>  <r_i_glide_einternal>  (114) 
1.9232

>  <r_i_glide_intrahb_reward>  (114) 
-0

>  <i_i_glide_confnum>  (114) 
4

>  <i_i_glide_posenum>  (114) 
9

>  <r_i_glide_eff_state_penalty>  (114) 
0

>  <ligand_id>  (114) 
32

>  <original_smiles>  (114) 
CC1CCC2OC3(C(C)O)C(O)C2C2(C)CCC4C(CCC5CC(O)CCC54C)C2CC13

>  <smiles>  (114) 
[H]OC1([H])C([H])([H])C([H])([H])C2(C([H])([H])[H])C([H])(C([H])([H])C([H])([H])C3([H])C2([H])C([H])([H])C([H])([H])C2(C([H])([H])[H])C4([H])C5([H])OC(C([H])(O[H])C([H])([H])[H])(C4([H])O[H])C([H])(C([H])([H])C32[H])C([H])(C([H])([H])[H])C([H])([H])C5([H])[H])C1([H])[H]

$$$$
32:0:1
     RDKit          3D

 78 83  0  0  1  0  0  0  0  0999 V2000
    3.9670   -7.0973    6.7794 C   0  0  0  0  0  0  0  0  0  0  0  0
    3.6003   -8.2477    5.8221 C   0  0  2  0  0  0  0  0  0  0  0  0
    4.9038   -8.8774    5.2003 C   0  0  0  0  0  0  0  0  0  0  0  0
    5.2149   -8.6690    3.6618 C   0  0  0  0  0  0  0  0  0  0  0  0
    4.0491   -9.0101    2.6642 C   0  0  1  0  0  0  0  0  0  0  0  0
    3.2175   -9.8333    3.4767 O   0  0  0  0  0  0  0  0  0  0  0  0
    2.0710   -9.0845    3.8395 C   0  0  2  0  0  0  0  0  0  0  0  0
    1.0920  -10.0387    4.5905 C   0  0  2  0  0  0  0  0  0  0  0  0
    0.9143  -11.4229    3.9441 C   0  0  0  0  0  0  0  0  0  0  0  0
   -0.1838   -9.4424    4.7095 O   0  0  0  0  0  0  0  0  0  0  0  0
    1.7410   -8.7659    2.3707 C   0  0  1  0  0  0  0  0  0  0  0  0
    0.4789   -8.2152    2.0515 O   0  0  0  0  0  0  0  0  0  0  0  0
    3.0092   -8.0163    1.9502 C   0  0  1  0  0  0  0  0  0  0  0  0
    2.8884   -6.4077    2.1125 C   0  0  2  0  0  0  0  0  0  0  0  0
    2.3963   -5.9300    0.7105 C   0  0  0  0  0  0  0  0  0  0  0  0
    4.2601   -5.7252    2.3567 C   0  0  0  0  0  0  0  0  0  0  0  0
    4.2121   -4.1943    2.4031 C   0  0  0  0  0  0  0  0  0  0  0  0
    3.2472   -3.6626    3.4929 C   0  0  2  0  0  0  0  0  0  0  0  0
    1.8393   -4.2838    3.2965 C   0  0  2  0  0  0  0  0  0  0  0  0
    0.8275   -3.7426    4.3279 C   0  0  0  0  0  0  0  0  0  0  0  0
    0.7782   -2.2154    4.3347 C   0  0  0  0  0  0  0  0  0  0  0  0
    2.1686   -1.6219    4.6431 C   0  0  2  0  0  0  0  0  0  0  0  0
    2.0866   -0.0809    4.7749 C   0  0  0  0  0  0  0  0  0  0  0  0
    1.9036    0.6297    3.4223 C   0  0  1  0  0  0  0  0  0  0  0  0
    2.0441    2.0188    3.6283 O   0  0  0  0  0  0  0  0  0  0  0  0
    2.9224    0.1634    2.3712 C   0  0  0  0  0  0  0  0  0  0  0  0
    2.9835   -1.3732    2.2586 C   0  0  0  0  0  0  0  0  0  0  0  0
    3.2542   -2.0892    3.6174 C   0  0  2  0  0  0  0  0  0  0  0  0
    4.6544   -1.6746    4.1429 C   0  0  0  0  0  0  0  0  0  0  0  0
    1.8504   -5.8513    3.2075 C   0  0  2  0  0  0  0  0  0  0  0  0
    1.8266   -6.5417    4.6269 C   0  0  0  0  0  0  0  0  0  0  0  0
    2.6022   -7.8636    4.7011 C   0  0  1  0  0  0  0  0  0  0  0  0
    4.4511   -6.2725    6.2525 H   0  0  0  0  0  0  0  0  0  0  0  0
    4.6530   -7.4439    7.5534 H   0  0  0  0  0  0  0  0  0  0  0  0
    3.0814   -6.7133    7.2883 H   0  0  0  0  0  0  0  0  0  0  0  0
    3.1315   -9.0066    6.4468 H   0  0  0  0  0  0  0  0  0  0  0  0
    5.7763   -8.5631    5.7768 H   0  0  0  0  0  0  0  0  0  0  0  0
    4.8431   -9.9543    5.3748 H   0  0  0  0  0  0  0  0  0  0  0  0
    5.7004   -7.7215    3.4589 H   0  0  0  0  0  0  0  0  0  0  0  0
    6.0063   -9.3884    3.4462 H   0  0  0  0  0  0  0  0  0  0  0  0
    4.4686   -9.6512    1.8883 H   0  0  0  0  0  0  0  0  0  0  0  0
    1.4571  -10.2157    5.6030 H   0  0  0  0  0  0  0  0  0  0  0  0
    1.8612  -11.9513    3.8638 H   0  0  0  0  0  0  0  0  0  0  0  0
    0.4788  -11.3584    2.9493 H   0  0  0  0  0  0  0  0  0  0  0  0
    0.2581  -12.0464    4.5521 H   0  0  0  0  0  0  0  0  0  0  0  0
   -0.8483  -10.1172    4.8810 H   0  0  0  0  0  0  0  0  0  0  0  0
    1.7134   -9.7097    1.8186 H   0  0  0  0  0  0  0  0  0  0  0  0
    0.0797   -8.7798    1.4005 H   0  0  0  0  0  0  0  0  0  0  0  0
    3.1562   -8.2073    0.8835 H   0  0  0  0  0  0  0  0  0  0  0  0
    2.2363   -4.8564    0.6231 H   0  0  0  0  0  0  0  0  0  0  0  0
    1.4549   -6.4075    0.4244 H   0  0  0  0  0  0  0  0  0  0  0  0
    3.1302   -6.1804   -0.0610 H   0  0  0  0  0  0  0  0  0  0  0  0
    4.6529   -5.9842    3.3294 H   0  0  0  0  0  0  0  0  0  0  0  0
    4.9879   -6.0643    1.6184 H   0  0  0  0  0  0  0  0  0  0  0  0
    5.2262   -3.8592    2.6083 H   0  0  0  0  0  0  0  0  0  0  0  0
    3.9588   -3.8033    1.4197 H   0  0  0  0  0  0  0  0  0  0  0  0
    3.6135   -4.0420    4.4477 H   0  0  0  0  0  0  0  0  0  0  0  0
    1.4660   -3.9163    2.3453 H   0  0  0  0  0  0  0  0  0  0  0  0
   -0.1661   -4.1235    4.0976 H   0  0  0  0  0  0  0  0  0  0  0  0
    1.0612   -4.0721    5.3388 H   0  0  0  0  0  0  0  0  0  0  0  0
    0.4001   -1.8550    3.3765 H   0  0  0  0  0  0  0  0  0  0  0  0
    0.0603   -1.8863    5.0885 H   0  0  0  0  0  0  0  0  0  0  0  0
    2.4477   -2.0032    5.6272 H   0  0  0  0  0  0  0  0  0  0  0  0
    1.2666    0.1899    5.4414 H   0  0  0  0  0  0  0  0  0  0  0  0
    2.9794    0.2915    5.2751 H   0  0  0  0  0  0  0  0  0  0  0  0
    0.8952    0.4432    3.0553 H   0  0  0  0  0  0  0  0  0  0  0  0
    1.8017    2.4771    2.8358 H   0  0  0  0  0  0  0  0  0  0  0  0
    2.6597    0.5844    1.4000 H   0  0  0  0  0  0  0  0  0  0  0  0
    3.9124    0.5514    2.6084 H   0  0  0  0  0  0  0  0  0  0  0  0
    2.0441   -1.7205    1.8294 H   0  0  0  0  0  0  0  0  0  0  0  0
    3.7526   -1.6257    1.5296 H   0  0  0  0  0  0  0  0  0  0  0  0
    4.7263   -0.6147    4.3802 H   0  0  0  0  0  0  0  0  0  0  0  0
    5.4320   -1.8621    3.4042 H   0  0  0  0  0  0  0  0  0  0  0  0
    4.9176   -2.2205    5.0509 H   0  0  0  0  0  0  0  0  0  0  0  0
    0.8543   -6.0376    2.8199 H   0  0  0  0  0  0  0  0  0  0  0  0
    2.2895   -5.8534    5.3261 H   0  0  0  0  0  0  0  0  0  0  0  0
    0.8036   -6.6883    4.9735 H   0  0  0  0  0  0  0  0  0  0  0  0
    3.3934   -7.3393    4.2329 H   0  0  0  0  0  0  0  0  0  0  0  0
  1  2  1  0
  1 33  1  0
  1 34  1  0
  1 35  1  0
  2 32  1  0
  2  3  1  0
  2 36  1  1
  3  4  1  0
  3 37  1  0
  3 38  1  0
  4  5  1  0
  4 39  1  0
  4 40  1  0
  5 13  1  0
  5  6  1  0
  5 41  1  6
  7  6  1  6
  7 32  1  0
  7  8  1  0
  7 11  1  0
  8  9  1  0
  8 10  1  0
  8 42  1  1
  9 43  1  0
  9 44  1  0
  9 45  1  0
 10 46  1  0
 11 12  1  0
 11 13  1  0
 11 47  1  6
 12 48  1  0
 13 14  1  0
 13 49  1  6
 14 30  1  0
 14 15  1  6
 14 16  1  0
 15 50  1  0
 15 51  1  0
 15 52  1  0
 16 17  1  0
 16 53  1  0
 16 54  1  0
 17 18  1  0
 17 55  1  0
 17 56  1  0
 18 28  1  0
 18 19  1  0
 18 57  1  1
 19 20  1  0
 19 30  1  0
 19 58  1  6
 20 21  1  0
 20 59  1  0
 20 60  1  0
 21 22  1  0
 21 61  1  0
 21 62  1  0
 22 28  1  0
 22 23  1  0
 22 63  1  1
 23 24  1  0
 23 64  1  0
 23 65  1  0
 24 25  1  0
 24 26  1  0
 24 66  1  6
 25 67  1  0
 26 27  1  0
 26 68  1  0
 26 69  1  0
 27 28  1  0
 27 70  1  0
 27 71  1  0
 28 29  1  1
 29 72  1  0
 29 73  1  0
 29 74  1  0
 30 31  1  0
 30 75  1  6
 31 32  1  0
 31 76  1  0
 31 77  1  0
 32 78  1  6
M  END
>  <i_m_ct_stereo_status>  (115) 
1

>  <s_m_source_file>  (115) 
/var/tmp/pbs.5076255.sched01/tmp0glzbzrw/400n8fk_jm.sdf

>  <i_m_source_file_index>  (115) 
5

>  <i_lp_mmshare_version>  (115) 
48012

>  <i_f3d_flags>  (115) 
0

>  <s_epik_input>  (115) 
W0NIM11bQ0BIXShbT0hdKVtDQEBdMTJbQ0BASF0zW0NASF0oW0NIM10pW0NIMl1bQ0gyXVtDQEBIXShPMSlbQ0BASF0oW0NAQEhdMltPSF0pW0NAQF00KFtDSDNdKVtDQEBIXShbQ0gyXTMpW0NAQEhdNVtDQEBIXShbQ0gyXVtDSDJdNClbQ0BdNihbQ0gzXSlbQ0BIXShbQ0gyXVtDSDJdNSlbQ0gyXVtDQEBIXShbT0hdKVtDSDJdW0NIMl02

>  <s_epik_cmdline>  (115) 
J2VwaWtfcHl0aG9uJywgJy1waHQnLCAnMi4wJywgJy1waCcsICc3LjAnLCAnLXRuJywgJzgnLCAnLW1hJywgJzIwMCcsICctaW1hZScsICc8aW5maWxlLm1hZT4nLCAnLW9tYWUnLCAnPG91dGZpbGUubWFlPic=

>  <r_lp_tautomer_probability>  (115) 
1

>  <r_epik_Ionization_Penalty>  (115) 
3.30126e-06

>  <r_epik_Ionization_Penalty_Charging>  (115) 
0

>  <r_epik_Ionization_Penalty_Neutral>  (115) 
3.30126e-06

>  <r_epik_State_Penalty>  (115) 
-0

>  <r_epik_Charging_Adjusted_Penalty>  (115) 
0

>  <i_epik_Tot_Q>  (115) 
0

>  <i_epik_Tot_abs_Q>  (115) 
0

>  <s_lp_Force_Field>  (115) 
OPLS3e

>  <r_lp_Energy>  (115) 
136.201

>  <b_lp_Chiralities_Consistent>  (115) 
1

>  <s_lp_Variant>  (115) 
32:0-1

>  <s_i_glide_gridfile>  (115) 
pfpi4k_grid

>  <i_i_glide_lignum>  (115) 
5

>  <i_i_glide_rotatable_bonds>  (115) 
4

>  <r_i_docking_score>  (115) 
-2.97702

>  <r_i_glide_ligand_efficiency>  (115) 
-0.0930318

>  <r_i_glide_ligand_efficiency_sa>  (115) 
-0.295358

>  <r_i_glide_ligand_efficiency_ln>  (115) 
-0.666636

>  <r_i_glide_gscore>  (115) 
-2.97702

>  <r_i_glide_lipo>  (115) 
-0.212358

>  <r_i_glide_hbond>  (115) 
0

>  <r_i_glide_metal>  (115) 
-0

>  <r_i_glide_rewards>  (115) 
-0.363665

>  <r_i_glide_evdw>  (115) 
-26.2421

>  <r_i_glide_ecoul>  (115) 
-7.92819

>  <r_i_glide_erotb>  (115) 
0.100338

>  <r_i_glide_esite>  (115) 
0

>  <r_i_glide_emodel>  (115) 
-39.2973

>  <r_i_glide_energy>  (115) 
-34.1703

>  <r_i_glide_einternal>  (115) 
2.93777

>  <r_i_glide_intrahb_reward>  (115) 
-0

>  <i_i_glide_confnum>  (115) 
4

>  <i_i_glide_posenum>  (115) 
22

>  <r_i_glide_eff_state_penalty>  (115) 
0

>  <ligand_id>  (115) 
32

>  <original_smiles>  (115) 
CC1CCC2OC3(C(C)O)C(O)C2C2(C)CCC4C(CCC5CC(O)CCC54C)C2CC13

>  <smiles>  (115) 
[H]OC1([H])C([H])([H])C([H])([H])C2(C([H])([H])[H])C([H])(C([H])([H])C([H])([H])C3([H])C2([H])C([H])([H])C([H])([H])C2(C([H])([H])[H])C4([H])C5([H])OC(C([H])(O[H])C([H])([H])[H])(C4([H])O[H])C([H])(C([H])([H])C32[H])C([H])(C([H])([H])[H])C([H])([H])C5([H])[H])C1([H])[H]

$$$$
32:0:2
     RDKit          3D

 78 83  0  0  1  0  0  0  0  0999 V2000
    3.1462   -3.4467   -1.0201 C   0  0  0  0  0  0  0  0  0  0  0  0
    3.5794   -2.2133   -0.2021 C   0  0  2  0  0  0  0  0  0  0  0  0
    5.1180   -1.9385   -0.3995 C   0  0  0  0  0  0  0  0  0  0  0  0
    6.1087   -2.1750    0.8117 C   0  0  0  0  0  0  0  0  0  0  0  0
    5.7115   -1.5039    2.1744 C   0  0  1  0  0  0  0  0  0  0  0  0
    4.7848   -0.5054    1.7577 O   0  0  0  0  0  0  0  0  0  0  0  0
    3.4862   -0.9461    2.1199 C   0  0  2  0  0  0  0  0  0  0  0  0
    2.4791    0.2012    1.8053 C   0  0  2  0  0  0  0  0  0  0  0  0
    2.4647    1.3884    2.7826 C   0  0  0  0  0  0  0  0  0  0  0  0
    1.1590   -0.2857    1.6935 O   0  0  0  0  0  0  0  0  0  0  0  0
    3.8840   -1.1262    3.5891 C   0  0  1  0  0  0  0  0  0  0  0  0
    2.8591   -1.2998    4.5422 O   0  0  0  0  0  0  0  0  0  0  0  0
    4.9966   -2.1708    3.4597 C   0  0  1  0  0  0  0  0  0  0  0  0
    4.4627   -3.6933    3.6334 C   0  0  2  0  0  0  0  0  0  0  0  0
    4.6595   -3.9591    5.1601 C   0  0  0  0  0  0  0  0  0  0  0  0
    5.3230   -4.7392    2.8721 C   0  0  0  0  0  0  0  0  0  0  0  0
    4.9138   -6.1939    3.1057 C   0  0  0  0  0  0  0  0  0  0  0  0
    3.4433   -6.4693    2.7184 C   0  0  2  0  0  0  0  0  0  0  0  0
    2.5130   -5.4819    3.4704 C   0  0  2  0  0  0  0  0  0  0  0  0
    1.0247   -5.7523    3.1633 C   0  0  0  0  0  0  0  0  0  0  0  0
    0.6383   -7.2132    3.4085 C   0  0  0  0  0  0  0  0  0  0  0  0
    1.5128   -8.1706    2.5700 C   0  0  2  0  0  0  0  0  0  0  0  0
    1.0349   -9.6323    2.7485 C   0  0  0  0  0  0  0  0  0  0  0  0
    1.4057  -10.2213    4.1193 C   0  0  1  0  0  0  0  0  0  0  0  0
    1.1119  -11.6021    4.1107 O   0  0  0  0  0  0  0  0  0  0  0  0
    2.8932  -10.0253    4.4546 C   0  0  0  0  0  0  0  0  0  0  0  0
    3.3457   -8.5615    4.2729 C   0  0  0  0  0  0  0  0  0  0  0  0
    3.0374   -7.9868    2.8567 C   0  0  2  0  0  0  0  0  0  0  0  0
    3.8545   -8.7823    1.8002 C   0  0  0  0  0  0  0  0  0  0  0  0
    2.9251   -3.9790    3.2837 C   0  0  2  0  0  0  0  0  0  0  0  0
    2.3556   -3.3513    1.9601 C   0  0  0  0  0  0  0  0  0  0  0  0
    3.2506   -2.2938    1.3088 C   0  0  1  0  0  0  0  0  0  0  0  0
    3.6321   -4.3611   -0.6677 H   0  0  0  0  0  0  0  0  0  0  0  0
    3.3998   -3.3265   -2.0745 H   0  0  0  0  0  0  0  0  0  0  0  0
    2.0649   -3.5904   -0.9741 H   0  0  0  0  0  0  0  0  0  0  0  0
    3.0302   -1.3689   -0.6173 H   0  0  0  0  0  0  0  0  0  0  0  0
    5.4836   -2.5000   -1.2625 H   0  0  0  0  0  0  0  0  0  0  0  0
    5.2152   -0.8900   -0.6953 H   0  0  0  0  0  0  0  0  0  0  0  0
    6.3943   -3.2145    0.9153 H   0  0  0  0  0  0  0  0  0  0  0  0
    7.0411   -1.6993    0.5065 H   0  0  0  0  0  0  0  0  0  0  0  0
    6.5977   -0.9753    2.5327 H   0  0  0  0  0  0  0  0  0  0  0  0
    2.7481    0.5992    0.8343 H   0  0  0  0  0  0  0  0  0  0  0  0
    3.4533    1.8231    2.8971 H   0  0  0  0  0  0  0  0  0  0  0  0
    2.1089    1.1148    3.7753 H   0  0  0  0  0  0  0  0  0  0  0  0
    1.8115    2.1847    2.4213 H   0  0  0  0  0  0  0  0  0  0  0  0
    1.0115   -0.5213    0.7628 H   0  0  0  0  0  0  0  0  0  0  0  0
    4.3575   -0.2048    3.9352 H   0  0  0  0  0  0  0  0  0  0  0  0
    2.2760   -0.5609    4.4801 H   0  0  0  0  0  0  0  0  0  0  0  0
    5.6929   -1.9911    4.2784 H   0  0  0  0  0  0  0  0  0  0  0  0
    4.3267   -4.9443    5.4868 H   0  0  0  0  0  0  0  0  0  0  0  0
    4.1145   -3.2388    5.7737 H   0  0  0  0  0  0  0  0  0  0  0  0
    5.7126   -3.8933    5.4405 H   0  0  0  0  0  0  0  0  0  0  0  0
    5.2127   -4.6212    1.7981 H   0  0  0  0  0  0  0  0  0  0  0  0
    6.3773   -4.6160    3.0983 H   0  0  0  0  0  0  0  0  0  0  0  0
    5.5827   -6.7944    2.4967 H   0  0  0  0  0  0  0  0  0  0  0  0
    5.1152   -6.4645    4.1392 H   0  0  0  0  0  0  0  0  0  0  0  0
    3.3480   -6.2306    1.6552 H   0  0  0  0  0  0  0  0  0  0  0  0
    2.6030   -5.7022    4.5348 H   0  0  0  0  0  0  0  0  0  0  0  0
    0.3978   -5.1092    3.7817 H   0  0  0  0  0  0  0  0  0  0  0  0
    0.7895   -5.5264    2.1252 H   0  0  0  0  0  0  0  0  0  0  0  0
    0.7237   -7.4344    4.4735 H   0  0  0  0  0  0  0  0  0  0  0  0
   -0.4099   -7.3564    3.1530 H   0  0  0  0  0  0  0  0  0  0  0  0
    1.3313   -7.9146    1.5229 H   0  0  0  0  0  0  0  0  0  0  0  0
   -0.0447   -9.6956    2.6068 H   0  0  0  0  0  0  0  0  0  0  0  0
    1.4525  -10.2522    1.9575 H   0  0  0  0  0  0  0  0  0  0  0  0
    0.7920   -9.7579    4.8895 H   0  0  0  0  0  0  0  0  0  0  0  0
    1.2540  -11.9528    4.9746 H   0  0  0  0  0  0  0  0  0  0  0  0
    3.0726  -10.3336    5.4867 H   0  0  0  0  0  0  0  0  0  0  0  0
    3.5099  -10.6781    3.8356 H   0  0  0  0  0  0  0  0  0  0  0  0
    2.8544   -7.9577    5.0371 H   0  0  0  0  0  0  0  0  0  0  0  0
    4.4086   -8.5088    4.4932 H   0  0  0  0  0  0  0  0  0  0  0  0
    3.5614   -9.8295    1.7290 H   0  0  0  0  0  0  0  0  0  0  0  0
    4.9176   -8.7955    2.0360 H   0  0  0  0  0  0  0  0  0  0  0  0
    3.7398   -8.3549    0.8048 H   0  0  0  0  0  0  0  0  0  0  0  0
    2.3263   -3.5154    4.0656 H   0  0  0  0  0  0  0  0  0  0  0  0
    2.2148   -4.1563    1.2443 H   0  0  0  0  0  0  0  0  0  0  0  0
    1.3871   -2.9123    2.1538 H   0  0  0  0  0  0  0  0  0  0  0  0
    4.0261   -3.0008    1.4046 H   0  0  0  0  0  0  0  0  0  0  0  0
  1  2  1  0
  1 33  1  0
  1 34  1  0
  1 35  1  0
  2 32  1  0
  2  3  1  0
  2 36  1  6
  3  4  1  0
  3 37  1  0
  3 38  1  0
  4  5  1  0
  4 39  1  0
  4 40  1  0
  5 13  1  0
  5  6  1  0
  5 41  1  1
  7  6  1  6
  7 32  1  0
  7  8  1  0
  7 11  1  0
  8  9  1  0
  8 10  1  0
  8 42  1  6
  9 43  1  0
  9 44  1  0
  9 45  1  0
 10 46  1  0
 11 12  1  0
 11 13  1  0
 11 47  1  1
 12 48  1  0
 13 14  1  0
 13 49  1  1
 14 30  1  0
 14 15  1  1
 14 16  1  0
 15 50  1  0
 15 51  1  0
 15 52  1  0
 16 17  1  0
 16 53  1  0
 16 54  1  0
 17 18  1  0
 17 55  1  0
 17 56  1  0
 18 28  1  0
 18 19  1  0
 18 57  1  6
 19 20  1  0
 19 30  1  0
 19 58  1  1
 20 21  1  0
 20 59  1  0
 20 60  1  0
 21 22  1  0
 21 61  1  0
 21 62  1  0
 22 28  1  0
 22 23  1  0
 22 63  1  6
 23 24  1  0
 23 64  1  0
 23 65  1  0
 24 25  1  0
 24 26  1  0
 24 66  1  1
 25 67  1  0
 26 27  1  0
 26 68  1  0
 26 69  1  0
 27 28  1  0
 27 70  1  0
 27 71  1  0
 28 29  1  6
 29 72  1  0
 29 73  1  0
 29 74  1  0
 30 31  1  0
 30 75  1  1
 31 32  1  0
 31 76  1  0
 31 77  1  0
 32 78  1  1
M  END
>  <i_m_ct_stereo_status>  (116) 
1

>  <s_m_source_file>  (116) 
/var/tmp/pbs.5076255.sched01/tmp0glzbzrw/400n8fk_jm.sdf

>  <i_m_source_file_index>  (116) 
5

>  <i_lp_mmshare_version>  (116) 
48012

>  <i_f3d_flags>  (116) 
0

>  <s_epik_input>  (116) 
W0NIM11bQ0BIXShbT0hdKVtDQEBdMTJbQ0BASF0zW0NASF0oW0NIM10pW0NIMl1bQ0gyXVtDQEBIXShPMSlbQ0BASF0oW0NAQEhdMltPSF0pW0NAQF00KFtDSDNdKVtDQEBIXShbQ0gyXTMpW0NAQEhdNVtDQEBIXShbQ0gyXVtDSDJdNClbQ0BdNihbQ0gzXSlbQ0BIXShbQ0gyXVtDSDJdNSlbQ0gyXVtDQEBIXShbT0hdKVtDSDJdW0NIMl02

>  <s_epik_cmdline>  (116) 
J2VwaWtfcHl0aG9uJywgJy1waHQnLCAnMi4wJywgJy1waCcsICc3LjAnLCAnLXRuJywgJzgnLCAnLW1hJywgJzIwMCcsICctaW1hZScsICc8aW5maWxlLm1hZT4nLCAnLW9tYWUnLCAnPG91dGZpbGUubWFlPic=

>  <r_lp_tautomer_probability>  (116) 
1

>  <r_epik_Ionization_Penalty>  (116) 
3.30126e-06

>  <r_epik_Ionization_Penalty_Charging>  (116) 
0

>  <r_epik_Ionization_Penalty_Neutral>  (116) 
3.30126e-06

>  <r_epik_State_Penalty>  (116) 
-0

>  <r_epik_Charging_Adjusted_Penalty>  (116) 
0

>  <i_epik_Tot_Q>  (116) 
0

>  <i_epik_Tot_abs_Q>  (116) 
0

>  <s_lp_Force_Field>  (116) 
OPLS3e

>  <r_lp_Energy>  (116) 
136.201

>  <b_lp_Chiralities_Consistent>  (116) 
1

>  <s_lp_Variant>  (116) 
32:0-1

>  <s_i_glide_gridfile>  (116) 
pfpi4k_grid

>  <i_i_glide_lignum>  (116) 
5

>  <i_i_glide_rotatable_bonds>  (116) 
4

>  <r_i_docking_score>  (116) 
-2.89026

>  <r_i_glide_ligand_efficiency>  (116) 
-0.0903208

>  <r_i_glide_ligand_efficiency_sa>  (116) 
-0.286751

>  <r_i_glide_ligand_efficiency_ln>  (116) 
-0.647209

>  <r_i_glide_gscore>  (116) 
-2.89026

>  <r_i_glide_lipo>  (116) 
-0.46798

>  <r_i_glide_hbond>  (116) 
0

>  <r_i_glide_metal>  (116) 
-0

>  <r_i_glide_rewards>  (116) 
-0.363665

>  <r_i_glide_evdw>  (116) 
-29.8588

>  <r_i_glide_ecoul>  (116) 
-4.44011

>  <r_i_glide_erotb>  (116) 
0.100338

>  <r_i_glide_esite>  (116) 
0

>  <r_i_glide_emodel>  (116) 
-39.297

>  <r_i_glide_energy>  (116) 
-34.2989

>  <r_i_glide_einternal>  (116) 
3.09259

>  <r_i_glide_intrahb_reward>  (116) 
-0

>  <i_i_glide_confnum>  (116) 
1

>  <i_i_glide_posenum>  (116) 
18

>  <r_i_glide_eff_state_penalty>  (116) 
0

>  <ligand_id>  (116) 
32

>  <original_smiles>  (116) 
CC1CCC2OC3(C(C)O)C(O)C2C2(C)CCC4C(CCC5CC(O)CCC54C)C2CC13

>  <smiles>  (116) 
[H]OC1([H])C([H])([H])C([H])([H])C2(C([H])([H])[H])C([H])(C([H])([H])C([H])([H])C3([H])C2([H])C([H])([H])C([H])([H])C2(C([H])([H])[H])C4([H])C5([H])OC(C([H])(O[H])C([H])([H])[H])(C4([H])O[H])C([H])(C([H])([H])C32[H])C([H])(C([H])([H])[H])C([H])([H])C5([H])[H])C1([H])[H]

$$$$
33:0:0
     RDKit          3D

 37 41  0  0  1  0  0  0  0  0999 V2000
    2.0706   -2.8864   -3.6115 C   0  0  0  0  0  0  0  0  0  0  0  0
    3.0273   -2.8873   -2.4384 C   0  0  0  0  0  0  0  0  0  0  0  0
    2.6209   -3.2387   -1.1922 C   0  0  0  0  0  0  0  0  0  0  0  0
    3.5867   -3.4795   -0.0196 C   0  0  1  0  0  0  0  0  0  0  0  0
    2.8393   -4.3453    1.0235 C   0  0  0  0  0  0  0  0  0  0  0  0
    4.8027   -4.1613   -0.6785 C   0  0  2  0  0  0  0  0  0  0  0  0
    5.8326   -4.7362    0.3490 C   0  0  0  0  0  0  0  0  0  0  0  0
    5.9407   -3.9518    1.6560 C   0  0  1  0  0  0  0  0  0  0  0  0
    6.5915   -2.6903    1.6246 O   0  0  0  0  0  0  0  0  0  0  0  0
    5.1624   -2.6535    1.7871 C   0  0  1  0  0  0  0  0  0  0  0  0
    4.3163   -2.2166    0.5838 C   0  0  2  0  0  0  0  0  0  0  0  0
    3.4077   -1.0238    0.9230 C   0  0  0  0  0  0  0  0  0  0  0  0
    5.2982   -1.8455   -0.5273 C   0  0  0  0  0  0  0  0  0  0  0  0
    6.0151   -0.8500   -0.5165 O   0  0  0  0  0  0  0  0  0  0  0  0
    5.3060   -2.9736   -1.4956 C   0  0  1  0  0  0  0  0  0  0  0  0
    5.5774   -3.1392   -2.8891 O   0  0  0  0  0  0  0  0  0  0  0  0
    4.4192   -2.3576   -2.6251 C   0  0  1  0  0  0  0  0  0  0  0  0
    4.5805   -0.9784   -3.2897 C   0  0  0  0  0  0  0  0  0  0  0  0
    3.3943   -0.2391   -3.4194 O   0  0  0  0  0  0  0  0  0  0  0  0
    2.4152   -3.5217   -4.4288 H   0  0  0  0  0  0  0  0  0  0  0  0
    1.8652   -1.9068   -4.0263 H   0  0  0  0  0  0  0  0  0  0  0  0
    1.1221   -3.2447   -3.2356 H   0  0  0  0  0  0  0  0  0  0  0  0
    1.5973   -3.5307   -1.0443 H   0  0  0  0  0  0  0  0  0  0  0  0
    3.4539   -4.6684    1.8660 H   0  0  0  0  0  0  0  0  0  0  0  0
    2.4440   -5.2507    0.5573 H   0  0  0  0  0  0  0  0  0  0  0  0
    2.0011   -3.7879    1.4510 H   0  0  0  0  0  0  0  0  0  0  0  0
    4.5144   -4.9658   -1.3546 H   0  0  0  0  0  0  0  0  0  0  0  0
    5.5152   -5.7491    0.6080 H   0  0  0  0  0  0  0  0  0  0  0  0
    6.8277   -4.8259   -0.0895 H   0  0  0  0  0  0  0  0  0  0  0  0
    6.1630   -4.5284    2.5493 H   0  0  0  0  0  0  0  0  0  0  0  0
    4.8124   -2.3725    2.7783 H   0  0  0  0  0  0  0  0  0  0  0  0
    2.6232   -1.3031    1.6284 H   0  0  0  0  0  0  0  0  0  0  0  0
    2.9279   -0.6362    0.0242 H   0  0  0  0  0  0  0  0  0  0  0  0
    3.9762   -0.1985    1.3599 H   0  0  0  0  0  0  0  0  0  0  0  0
    5.2601   -0.3444   -2.7265 H   0  0  0  0  0  0  0  0  0  0  0  0
    4.9839   -1.1121   -4.2939 H   0  0  0  0  0  0  0  0  0  0  0  0
    2.8621   -0.3397   -2.6386 H   0  0  0  0  0  0  0  0  0  0  0  0
  1  2  1  0
  1 20  1  0
  1 21  1  0
  1 22  1  0
  2 17  1  0
  2  3  2  0
  3  4  1  0
  3 23  1  0
  4 11  1  0
  4  5  1  1
  4  6  1  0
  5 24  1  0
  5 25  1  0
  5 26  1  0
  6 15  1  0
  6  7  1  0
  6 27  1  6
  7  8  1  0
  7 28  1  0
  7 29  1  0
  8 10  1  0
  8  9  1  0
  8 30  1  1
  9 10  1  0
 10 11  1  0
 10 31  1  1
 11 12  1  1
 11 13  1  0
 12 32  1  0
 12 33  1  0
 12 34  1  0
 13 14  2  0
 13 15  1  0
 15 17  1  0
 15 16  1  6
 16 17  1  0
 17 18  1  1
 18 19  1  0
 18 35  1  0
 18 36  1  0
 19 37  1  0
M  END
>  <i_m_ct_stereo_status>  (117) 
1

>  <s_m_source_file>  (117) 
/var/tmp/pbs.5076255.sched01/tmp0glzbzrw/400n8fk_jm.sdf

>  <i_m_source_file_index>  (117) 
6

>  <i_lp_mmshare_version>  (117) 
48012

>  <i_f3d_flags>  (117) 
0

>  <s_epik_input>  (117) 
W09IXVtDSDJdW0NAXTEoTzIpQyhbQ0gzXSk9W0NIXVtDQEBdKFtDSDNdKShbQ0BIXTNbQ0BdMTI0KVtDQF0oW0NIM10pKEM0PU8pW0NASF01W0NASF0oTzUpW0NIMl0z

>  <s_epik_cmdline>  (117) 
J2VwaWtfcHl0aG9uJywgJy1waHQnLCAnMi4wJywgJy1waCcsICc3LjAnLCAnLXRuJywgJzgnLCAnLW1hJywgJzIwMCcsICctaW1hZScsICc8aW5maWxlLm1hZT4nLCAnLW9tYWUnLCAnPG91dGZpbGUubWFlPic=

>  <r_lp_tautomer_probability>  (117) 
1

>  <r_epik_Ionization_Penalty>  (117) 
5.7325e-08

>  <r_epik_Ionization_Penalty_Charging>  (117) 
0

>  <r_epik_Ionization_Penalty_Neutral>  (117) 
5.7325e-08

>  <r_epik_State_Penalty>  (117) 
-0

>  <r_epik_Charging_Adjusted_Penalty>  (117) 
0

>  <i_epik_Tot_Q>  (117) 
0

>  <i_epik_Tot_abs_Q>  (117) 
0

>  <s_lp_Force_Field>  (117) 
OPLS3e

>  <r_lp_Energy>  (117) 
51.2584

>  <b_lp_Chiralities_Consistent>  (117) 
1

>  <s_lp_Variant>  (117) 
33:0-1

>  <s_i_glide_gridfile>  (117) 
pfpi4k_grid

>  <i_i_glide_lignum>  (117) 
6

>  <i_i_glide_rotatable_bonds>  (117) 
2

>  <r_i_docking_score>  (117) 
-3.25398

>  <r_i_glide_ligand_efficiency>  (117) 
-0.171262

>  <r_i_glide_ligand_efficiency_sa>  (117) 
-0.456996

>  <r_i_glide_ligand_efficiency_ln>  (117) 
-0.824953

>  <r_i_glide_gscore>  (117) 
-3.25398

>  <r_i_glide_lipo>  (117) 
-0.742216

>  <r_i_glide_hbond>  (117) 
-0.0474675

>  <r_i_glide_metal>  (117) 
-0

>  <r_i_glide_rewards>  (117) 
-1.62067

>  <r_i_glide_evdw>  (117) 
-17.1767

>  <r_i_glide_ecoul>  (117) 
-1.46417

>  <r_i_glide_erotb>  (117) 
0.257808

>  <r_i_glide_esite>  (117) 
-0.0229652

>  <r_i_glide_emodel>  (117) 
-17.9519

>  <r_i_glide_energy>  (117) 
-18.6409

>  <r_i_glide_einternal>  (117) 
5.64283

>  <r_i_glide_intrahb_reward>  (117) 
-0

>  <i_i_glide_confnum>  (117) 
6

>  <i_i_glide_posenum>  (117) 
9

>  <r_i_glide_eff_state_penalty>  (117) 
0

>  <ligand_id>  (117) 
33

>  <original_smiles>  (117) 
CC1=CC2(C)C3CC4OC4C2(C)C(=O)C32OC12CO

>  <smiles>  (117) 
[H]OC([H])([H])C12OC13C(=O)C1(C([H])([H])[H])C4([H])OC4([H])C([H])([H])C3([H])C1(C([H])([H])[H])C([H])=C2C([H])([H])[H]

$$$$
33:0:1
     RDKit          3D

 37 41  0  0  1  0  0  0  0  0999 V2000
    1.8834   -2.7285   -3.9221 C   0  0  0  0  0  0  0  0  0  0  0  0
    2.8128   -2.7951   -2.7381 C   0  0  0  0  0  0  0  0  0  0  0  0
    2.4192   -3.0776   -1.4883 C   0  0  0  0  0  0  0  0  0  0  0  0
    3.3790   -3.2964   -0.3021 C   0  0  1  0  0  0  0  0  0  0  0  0
    2.6343   -4.1092    0.7667 C   0  0  0  0  0  0  0  0  0  0  0  0
    4.5739   -4.0155   -0.9375 C   0  0  2  0  0  0  0  0  0  0  0  0
    5.5752   -4.5960    0.0987 C   0  0  0  0  0  0  0  0  0  0  0  0
    5.7012   -3.7779    1.3691 C   0  0  1  0  0  0  0  0  0  0  0  0
    6.3925   -2.5361    1.2859 O   0  0  0  0  0  0  0  0  0  0  0  0
    4.9634   -2.4637    1.4633 C   0  0  1  0  0  0  0  0  0  0  0  0
    4.1242   -2.0443    0.2667 C   0  0  2  0  0  0  0  0  0  0  0  0
    3.2767   -0.8072    0.5981 C   0  0  0  0  0  0  0  0  0  0  0  0
    5.0999   -1.7406   -0.8614 C   0  0  0  0  0  0  0  0  0  0  0  0
    5.8321   -0.7800   -0.8454 O   0  0  0  0  0  0  0  0  0  0  0  0
    5.0936   -2.8893   -1.7988 C   0  0  1  0  0  0  0  0  0  0  0  0
    5.3381   -3.1071   -3.1908 O   0  0  0  0  0  0  0  0  0  0  0  0
    4.1817   -2.3139   -2.9468 C   0  0  1  0  0  0  0  0  0  0  0  0
    4.2447   -1.0118   -3.7365 C   0  0  0  0  0  0  0  0  0  0  0  0
    4.0491    0.1373   -3.0124 O   0  0  0  0  0  0  0  0  0  0  0  0
    2.1756   -3.4169   -4.7181 H   0  0  0  0  0  0  0  0  0  0  0  0
    1.8130   -1.7295   -4.3225 H   0  0  0  0  0  0  0  0  0  0  0  0
    0.8969   -3.0090   -3.5834 H   0  0  0  0  0  0  0  0  0  0  0  0
    1.3921   -3.3200   -1.3338 H   0  0  0  0  0  0  0  0  0  0  0  0
    3.2424   -4.4367    1.6092 H   0  0  0  0  0  0  0  0  0  0  0  0
    2.1568   -4.9850    0.3204 H   0  0  0  0  0  0  0  0  0  0  0  0
    1.9010   -3.4472    1.2056 H   0  0  0  0  0  0  0  0  0  0  0  0
    4.2258   -4.8203   -1.5623 H   0  0  0  0  0  0  0  0  0  0  0  0
    5.2112   -5.5835    0.3817 H   0  0  0  0  0  0  0  0  0  0  0  0
    6.5710   -4.7165   -0.3196 H   0  0  0  0  0  0  0  0  0  0  0  0
    5.8979   -4.3244    2.2808 H   0  0  0  0  0  0  0  0  0  0  0  0
    4.6291   -2.1381    2.4438 H   0  0  0  0  0  0  0  0  0  0  0  0
    2.4799   -1.0391    1.3023 H   0  0  0  0  0  0  0  0  0  0  0  0
    2.7902   -0.4523   -0.2960 H   0  0  0  0  0  0  0  0  0  0  0  0
    3.8709    0.0305    0.9735 H   0  0  0  0  0  0  0  0  0  0  0  0
    5.1973   -0.9736   -4.1729 H   0  0  0  0  0  0  0  0  0  0  0  0
    3.6205   -0.9454   -4.6264 H   0  0  0  0  0  0  0  0  0  0  0  0
    3.1697    0.1682   -2.6664 H   0  0  0  0  0  0  0  0  0  0  0  0
  1  2  1  0
  1 20  1  0
  1 21  1  0
  1 22  1  0
  2 17  1  0
  2  3  2  0
  3  4  1  0
  3 23  1  0
  4 11  1  0
  4  5  1  1
  4  6  1  0
  5 24  1  0
  5 25  1  0
  5 26  1  0
  6 15  1  0
  6  7  1  0
  6 27  1  6
  7  8  1  0
  7 28  1  0
  7 29  1  0
  8 10  1  0
  8  9  1  0
  8 30  1  1
  9 10  1  0
 10 11  1  0
 10 31  1  1
 11 12  1  1
 11 13  1  0
 12 32  1  0
 12 33  1  0
 12 34  1  0
 13 14  2  0
 13 15  1  0
 15 17  1  0
 15 16  1  6
 16 17  1  0
 17 18  1  6
 18 19  1  0
 18 35  1  0
 18 36  1  0
 19 37  1  0
M  END
>  <i_m_ct_stereo_status>  (118) 
1

>  <s_m_source_file>  (118) 
/var/tmp/pbs.5076255.sched01/tmp0glzbzrw/400n8fk_jm.sdf

>  <i_m_source_file_index>  (118) 
6

>  <i_lp_mmshare_version>  (118) 
48012

>  <i_f3d_flags>  (118) 
0

>  <s_epik_input>  (118) 
W09IXVtDSDJdW0NAXTEoTzIpQyhbQ0gzXSk9W0NIXVtDQEBdKFtDSDNdKShbQ0BIXTNbQ0BdMTI0KVtDQF0oW0NIM10pKEM0PU8pW0NASF01W0NASF0oTzUpW0NIMl0z

>  <s_epik_cmdline>  (118) 
J2VwaWtfcHl0aG9uJywgJy1waHQnLCAnMi4wJywgJy1waCcsICc3LjAnLCAnLXRuJywgJzgnLCAnLW1hJywgJzIwMCcsICctaW1hZScsICc8aW5maWxlLm1hZT4nLCAnLW9tYWUnLCAnPG91dGZpbGUubWFlPic=

>  <r_lp_tautomer_probability>  (118) 
1

>  <r_epik_Ionization_Penalty>  (118) 
5.7325e-08

>  <r_epik_Ionization_Penalty_Charging>  (118) 
0

>  <r_epik_Ionization_Penalty_Neutral>  (118) 
5.7325e-08

>  <r_epik_State_Penalty>  (118) 
-0

>  <r_epik_Charging_Adjusted_Penalty>  (118) 
0

>  <i_epik_Tot_Q>  (118) 
0

>  <i_epik_Tot_abs_Q>  (118) 
0

>  <s_lp_Force_Field>  (118) 
OPLS3e

>  <r_lp_Energy>  (118) 
51.2584

>  <b_lp_Chiralities_Consistent>  (118) 
1

>  <s_lp_Variant>  (118) 
33:0-1

>  <s_i_glide_gridfile>  (118) 
pfpi4k_grid

>  <i_i_glide_lignum>  (118) 
6

>  <i_i_glide_rotatable_bonds>  (118) 
2

>  <r_i_docking_score>  (118) 
-2.93199

>  <r_i_glide_ligand_efficiency>  (118) 
-0.154315

>  <r_i_glide_ligand_efficiency_sa>  (118) 
-0.411775

>  <r_i_glide_ligand_efficiency_ln>  (118) 
-0.743322

>  <r_i_glide_gscore>  (118) 
-2.93199

>  <r_i_glide_lipo>  (118) 
-0.70771

>  <r_i_glide_hbond>  (118) 
-0.0414855

>  <r_i_glide_metal>  (118) 
-0

>  <r_i_glide_rewards>  (118) 
-1.62067

>  <r_i_glide_evdw>  (118) 
-9.69345

>  <r_i_glide_ecoul>  (118) 
-2.05081

>  <r_i_glide_erotb>  (118) 
0.257808

>  <r_i_glide_esite>  (118) 
-0.0276313

>  <r_i_glide_emodel>  (118) 
-10.7745

>  <r_i_glide_energy>  (118) 
-11.7443

>  <r_i_glide_einternal>  (118) 
4.09738

>  <r_i_glide_intrahb_reward>  (118) 
-0

>  <i_i_glide_confnum>  (118) 
6

>  <i_i_glide_posenum>  (118) 
1

>  <r_i_glide_eff_state_penalty>  (118) 
0

>  <ligand_id>  (118) 
33

>  <original_smiles>  (118) 
CC1=CC2(C)C3CC4OC4C2(C)C(=O)C32OC12CO

>  <smiles>  (118) 
[H]OC([H])([H])C12OC13C(=O)C1(C([H])([H])[H])C4([H])OC4([H])C([H])([H])C3([H])C1(C([H])([H])[H])C([H])=C2C([H])([H])[H]

$$$$
33:0:2
     RDKit          3D

 37 41  0  0  1  0  0  0  0  0999 V2000
    4.1771   -4.9403    1.4953 C   0  0  0  0  0  0  0  0  0  0  0  0
    4.2469   -4.0643    0.2654 C   0  0  0  0  0  0  0  0  0  0  0  0
    3.3231   -4.1675   -0.7193 C   0  0  0  0  0  0  0  0  0  0  0  0
    3.1951   -3.1949   -1.9014 C   0  0  1  0  0  0  0  0  0  0  0  0
    1.7655   -3.2695   -2.4279 C   0  0  0  0  0  0  0  0  0  0  0  0
    3.5218   -1.8429   -1.2920 C   0  0  2  0  0  0  0  0  0  0  0  0
    3.2595   -0.6364   -2.2634 C   0  0  0  0  0  0  0  0  0  0  0  0
    3.3000   -0.9783   -3.7475 C   0  0  1  0  0  0  0  0  0  0  0  0
    4.6002   -1.0703   -4.3037 O   0  0  0  0  0  0  0  0  0  0  0  0
    3.8891   -2.2993   -4.1518 C   0  0  1  0  0  0  0  0  0  0  0  0
    4.3169   -3.2383   -3.0181 C   0  0  2  0  0  0  0  0  0  0  0  0
    4.6700   -4.6049   -3.6051 C   0  0  0  0  0  0  0  0  0  0  0  0
    5.5103   -2.6602   -2.2429 C   0  0  0  0  0  0  0  0  0  0  0  0
    6.6878   -2.7529   -2.5277 O   0  0  0  0  0  0  0  0  0  0  0  0
    4.9896   -2.0831   -0.9749 C   0  0  1  0  0  0  0  0  0  0  0  0
    5.5299   -1.7579    0.2888 O   0  0  0  0  0  0  0  0  0  0  0  0
    5.4419   -3.1535    0.0571 C   0  0  1  0  0  0  0  0  0  0  0  0
    6.8289   -3.8275    0.1476 C   0  0  0  0  0  0  0  0  0  0  0  0
    7.1132   -4.3955    1.4015 O   0  0  0  0  0  0  0  0  0  0  0  0
    4.2531   -4.3292    2.3943 H   0  0  0  0  0  0  0  0  0  0  0  0
    4.9528   -5.7041    1.5012 H   0  0  0  0  0  0  0  0  0  0  0  0
    3.2274   -5.4754    1.5303 H   0  0  0  0  0  0  0  0  0  0  0  0
    2.4992   -4.8548   -0.5988 H   0  0  0  0  0  0  0  0  0  0  0  0
    1.5037   -2.6002   -3.2455 H   0  0  0  0  0  0  0  0  0  0  0  0
    1.0270   -3.1345   -1.6439 H   0  0  0  0  0  0  0  0  0  0  0  0
    1.6768   -4.2627   -2.8065 H   0  0  0  0  0  0  0  0  0  0  0  0
    3.0013   -1.6672   -0.3509 H   0  0  0  0  0  0  0  0  0  0  0  0
    2.2252   -0.2850   -2.1361 H   0  0  0  0  0  0  0  0  0  0  0  0
    4.0189    0.1276   -2.0693 H   0  0  0  0  0  0  0  0  0  0  0  0
    2.6633   -0.3626   -4.3960 H   0  0  0  0  0  0  0  0  0  0  0  0
    3.5028   -2.7565   -5.0558 H   0  0  0  0  0  0  0  0  0  0  0  0
    3.8353   -5.0188   -4.1756 H   0  0  0  0  0  0  0  0  0  0  0  0
    5.0340   -5.2580   -2.8157 H   0  0  0  0  0  0  0  0  0  0  0  0
    5.4212   -4.5237   -4.3700 H   0  0  0  0  0  0  0  0  0  0  0  0
    6.8802   -4.6305   -0.5765 H   0  0  0  0  0  0  0  0  0  0  0  0
    7.6116   -3.1010   -0.0881 H   0  0  0  0  0  0  0  0  0  0  0  0
    6.4387   -5.0355    1.5923 H   0  0  0  0  0  0  0  0  0  0  0  0
  1  2  1  0
  1 20  1  0
  1 21  1  0
  1 22  1  0
  2 17  1  0
  2  3  2  0
  3  4  1  0
  3 23  1  0
  4 11  1  0
  4  5  1  6
  4  6  1  0
  5 24  1  0
  5 25  1  0
  5 26  1  0
  6 15  1  0
  6  7  1  0
  6 27  1  1
  7  8  1  0
  7 28  1  0
  7 29  1  0
  8 10  1  0
  8  9  1  0
  8 30  1  6
  9 10  1  0
 10 11  1  0
 10 31  1  6
 11 12  1  6
 11 13  1  0
 12 32  1  0
 12 33  1  0
 12 34  1  0
 13 14  2  0
 13 15  1  0
 15 17  1  0
 15 16  1  1
 16 17  1  0
 17 18  1  6
 18 19  1  0
 18 35  1  0
 18 36  1  0
 19 37  1  0
M  END
>  <i_m_ct_stereo_status>  (119) 
1

>  <s_m_source_file>  (119) 
/var/tmp/pbs.5076255.sched01/tmp0glzbzrw/400n8fk_jm.sdf

>  <i_m_source_file_index>  (119) 
6

>  <i_lp_mmshare_version>  (119) 
48012

>  <i_f3d_flags>  (119) 
0

>  <s_epik_input>  (119) 
W09IXVtDSDJdW0NAXTEoTzIpQyhbQ0gzXSk9W0NIXVtDQEBdKFtDSDNdKShbQ0BIXTNbQ0BdMTI0KVtDQF0oW0NIM10pKEM0PU8pW0NASF01W0NASF0oTzUpW0NIMl0z

>  <s_epik_cmdline>  (119) 
J2VwaWtfcHl0aG9uJywgJy1waHQnLCAnMi4wJywgJy1waCcsICc3LjAnLCAnLXRuJywgJzgnLCAnLW1hJywgJzIwMCcsICctaW1hZScsICc8aW5maWxlLm1hZT4nLCAnLW9tYWUnLCAnPG91dGZpbGUubWFlPic=

>  <r_lp_tautomer_probability>  (119) 
1

>  <r_epik_Ionization_Penalty>  (119) 
5.7325e-08

>  <r_epik_Ionization_Penalty_Charging>  (119) 
0

>  <r_epik_Ionization_Penalty_Neutral>  (119) 
5.7325e-08

>  <r_epik_State_Penalty>  (119) 
-0

>  <r_epik_Charging_Adjusted_Penalty>  (119) 
0

>  <i_epik_Tot_Q>  (119) 
0

>  <i_epik_Tot_abs_Q>  (119) 
0

>  <s_lp_Force_Field>  (119) 
OPLS3e

>  <r_lp_Energy>  (119) 
51.2584

>  <b_lp_Chiralities_Consistent>  (119) 
1

>  <s_lp_Variant>  (119) 
33:0-1

>  <s_i_glide_gridfile>  (119) 
pfpi4k_grid

>  <i_i_glide_lignum>  (119) 
6

>  <i_i_glide_rotatable_bonds>  (119) 
2

>  <r_i_docking_score>  (119) 
-2.65844

>  <r_i_glide_ligand_efficiency>  (119) 
-0.139918

>  <r_i_glide_ligand_efficiency_sa>  (119) 
-0.373357

>  <r_i_glide_ligand_efficiency_ln>  (119) 
-0.673971

>  <r_i_glide_gscore>  (119) 
-2.65844

>  <r_i_glide_lipo>  (119) 
-0.600825

>  <r_i_glide_hbond>  (119) 
-0.101182

>  <r_i_glide_metal>  (119) 
-0

>  <r_i_glide_rewards>  (119) 
-1.71656

>  <r_i_glide_evdw>  (119) 
-6.08672

>  <r_i_glide_ecoul>  (119) 
-1.28897

>  <r_i_glide_erotb>  (119) 
0.257808

>  <r_i_glide_esite>  (119) 
0

>  <r_i_glide_emodel>  (119) 
-9.51617

>  <r_i_glide_energy>  (119) 
-7.37569

>  <r_i_glide_einternal>  (119) 
0.00341113

>  <r_i_glide_intrahb_reward>  (119) 
-0

>  <i_i_glide_confnum>  (119) 
6

>  <i_i_glide_posenum>  (119) 
18

>  <r_i_glide_eff_state_penalty>  (119) 
0

>  <ligand_id>  (119) 
33

>  <original_smiles>  (119) 
CC1=CC2(C)C3CC4OC4C2(C)C(=O)C32OC12CO

>  <smiles>  (119) 
[H]OC([H])([H])C12OC13C(=O)C1(C([H])([H])[H])C4([H])OC4([H])C([H])([H])C3([H])C1(C([H])([H])[H])C([H])=C2C([H])([H])[H]

$$$$
34:0:0
     RDKit          3D

 49 52  0  0  1  0  0  0  0  0999 V2000
    3.4594   -2.5729    1.7331 C   0  0  0  0  0  0  0  0  0  0  0  0
    3.5147   -3.8079    2.2690 C   0  0  0  0  0  0  0  0  0  0  0  0
    2.9719   -3.9719    3.6471 C   0  0  0  0  0  0  0  0  0  0  0  0
    3.0922   -3.0608    4.4650 O   0  0  0  0  0  0  0  0  0  0  0  0
    2.2010   -5.2164    4.1313 C   0  0  1  0  0  0  0  0  0  0  0  0
    0.6958   -5.2967    3.7812 C   0  0  0  0  0  0  0  0  0  0  0  0
    0.5351   -6.6778    3.0917 C   0  0  1  0  0  0  0  0  0  0  0  0
   -0.0158   -7.7452    4.0754 C   0  0  0  0  0  0  0  0  0  0  0  0
   -0.4770   -6.6537    2.0939 O   0  0  0  0  0  0  0  0  0  0  0  0
    1.9626   -6.8893    2.5177 C   0  0  2  0  0  0  0  0  0  0  0  0
    2.0080   -6.1280    1.1644 C   0  0  0  0  0  0  0  0  0  0  0  0
    3.3444   -5.6700    0.5529 C   0  0  0  0  0  0  0  0  0  0  0  0
    4.2578   -4.9415    1.5428 C   0  0  2  0  0  0  0  0  0  0  0  0
    5.1671   -5.9237    2.3287 C   0  0  1  0  0  0  0  0  0  0  0  0
    5.8254   -5.3860    3.6124 C   0  0  0  0  0  0  0  0  0  0  0  0
    4.6499   -7.3850    2.4231 C   0  0  0  0  0  0  0  0  0  0  0  0
    3.2143   -7.6304    2.9074 C   0  0  2  0  0  0  0  0  0  0  0  0
    3.0063   -9.1387    3.1585 C   0  0  0  0  0  0  0  0  0  0  0  0
    3.9295   -9.7642    4.2220 C   0  0  0  0  0  0  0  0  0  0  0  0
    2.9842   -9.9783    1.8756 C   0  0  0  0  0  0  0  0  0  0  0  0
    2.7335   -6.6122    3.8828 C   0  0  1  0  0  0  0  0  0  0  0  0
    3.8864   -2.3559    0.7613 H   0  0  0  0  0  0  0  0  0  0  0  0
    2.9892   -1.7464    2.2506 H   0  0  0  0  0  0  0  0  0  0  0  0
    2.2427   -5.1110    5.2174 H   0  0  0  0  0  0  0  0  0  0  0  0
    0.0737   -5.2163    4.6751 H   0  0  0  0  0  0  0  0  0  0  0  0
    0.4362   -4.4632    3.1330 H   0  0  0  0  0  0  0  0  0  0  0  0
    0.5837   -7.8862    4.9738 H   0  0  0  0  0  0  0  0  0  0  0  0
   -0.1372   -8.7215    3.6020 H   0  0  0  0  0  0  0  0  0  0  0  0
   -1.0062   -7.4548    4.4324 H   0  0  0  0  0  0  0  0  0  0  0  0
   -0.5617   -7.5368    1.7548 H   0  0  0  0  0  0  0  0  0  0  0  0
    1.4915   -6.7331    0.4205 H   0  0  0  0  0  0  0  0  0  0  0  0
    1.4133   -5.2219    1.2541 H   0  0  0  0  0  0  0  0  0  0  0  0
    3.8672   -6.4837    0.0545 H   0  0  0  0  0  0  0  0  0  0  0  0
    3.1044   -4.9698   -0.2475 H   0  0  0  0  0  0  0  0  0  0  0  0
    4.9725   -4.3989    0.9120 H   0  0  0  0  0  0  0  0  0  0  0  0
    6.0270   -6.0401    1.6693 H   0  0  0  0  0  0  0  0  0  0  0  0
    5.1591   -5.3837    4.4761 H   0  0  0  0  0  0  0  0  0  0  0  0
    6.1858   -4.3687    3.4594 H   0  0  0  0  0  0  0  0  0  0  0  0
    6.6895   -5.9939    3.8818 H   0  0  0  0  0  0  0  0  0  0  0  0
    4.7820   -7.8906    1.4690 H   0  0  0  0  0  0  0  0  0  0  0  0
    5.3340   -7.8949    3.0956 H   0  0  0  0  0  0  0  0  0  0  0  0
    2.0139   -9.2465    3.5784 H   0  0  0  0  0  0  0  0  0  0  0  0
    4.9470   -9.9143    3.8549 H   0  0  0  0  0  0  0  0  0  0  0  0
    3.5599  -10.7509    4.5113 H   0  0  0  0  0  0  0  0  0  0  0  0
    3.9719   -9.1609    5.1312 H   0  0  0  0  0  0  0  0  0  0  0  0
    3.9625  -10.0135    1.3943 H   0  0  0  0  0  0  0  0  0  0  0  0
    2.2561   -9.6049    1.1560 H   0  0  0  0  0  0  0  0  0  0  0  0
    2.7099  -11.0089    2.1071 H   0  0  0  0  0  0  0  0  0  0  0  0
    2.5556   -7.1663    4.7981 H   0  0  0  0  0  0  0  0  0  0  0  0
  1  2  2  0
  1 22  1  0
  1 23  1  0
  2 13  1  0
  2  3  1  0
  3  4  2  0
  3  5  1  0
  5 21  1  0
  5  6  1  0
  5 24  1  1
  6  7  1  0
  6 25  1  0
  6 26  1  0
  7  8  1  0
  7  9  1  6
  7 10  1  0
  8 27  1  0
  8 28  1  0
  8 29  1  0
  9 30  1  0
 10 17  1  0
 10 21  1  0
 10 11  1  6
 11 12  1  0
 11 31  1  0
 11 32  1  0
 12 13  1  0
 12 33  1  0
 12 34  1  0
 13 14  1  0
 13 35  1  6
 14 15  1  0
 14 16  1  0
 14 36  1  6
 15 37  1  0
 15 38  1  0
 15 39  1  0
 16 17  1  0
 16 40  1  0
 16 41  1  0
 17 18  1  1
 17 21  1  0
 18 19  1  0
 18 20  1  0
 18 42  1  0
 19 43  1  0
 19 44  1  0
 19 45  1  0
 20 46  1  0
 20 47  1  0
 20 48  1  0
 21 49  1  1
M  END
>  <i_m_ct_stereo_status>  (120) 
1

>  <s_m_source_file>  (120) 
/var/tmp/pbs.5076255.sched01/tmp0glzbzrw/400n8fk_jm.sdf

>  <i_m_source_file_index>  (120) 
7

>  <i_lp_mmshare_version>  (120) 
48012

>  <i_f3d_flags>  (120) 
0

>  <s_epik_input>  (120) 
W0NIMl0xW0NIMl1bQ0BIXShbQ0BASF0oW0NIM10pW0NIMl0yKUMoPVtDSDJdKUMoPU8pW0NAQEhdKFtDSDJdW0NAQF0zKFtDSDNdKVtPSF0pW0NAQEhdNFtDQF0yKFtDQEBdMTM0KVtDSF0oW0NIM10pW0NIM10=

>  <s_epik_cmdline>  (120) 
J2VwaWtfcHl0aG9uJywgJy1waHQnLCAnMi4wJywgJy1waCcsICc3LjAnLCAnLXRuJywgJzgnLCAnLW1hJywgJzIwMCcsICctaW1hZScsICc8aW5maWxlLm1hZT4nLCAnLW9tYWUnLCAnPG91dGZpbGUubWFlPic=

>  <r_lp_tautomer_probability>  (120) 
1

>  <r_epik_Ionization_Penalty>  (120) 
5.20074e-07

>  <r_epik_Ionization_Penalty_Charging>  (120) 
0

>  <r_epik_Ionization_Penalty_Neutral>  (120) 
5.20074e-07

>  <r_epik_State_Penalty>  (120) 
-0

>  <r_epik_Charging_Adjusted_Penalty>  (120) 
0

>  <i_epik_Tot_Q>  (120) 
0

>  <i_epik_Tot_abs_Q>  (120) 
0

>  <s_lp_Force_Field>  (120) 
OPLS3e

>  <r_lp_Energy>  (120) 
103.563

>  <b_lp_Chiralities_Consistent>  (120) 
1

>  <s_lp_Variant>  (120) 
34:0-1

>  <s_i_glide_gridfile>  (120) 
pfpi4k_grid

>  <i_i_glide_lignum>  (120) 
7

>  <i_i_glide_rotatable_bonds>  (120) 
2

>  <r_i_docking_score>  (120) 
-3.08331

>  <r_i_glide_ligand_efficiency>  (120) 
-0.146824

>  <r_i_glide_ligand_efficiency_sa>  (120) 
-0.405077

>  <r_i_glide_ligand_efficiency_ln>  (120) 
-0.762342

>  <r_i_glide_gscore>  (120) 
-3.08331

>  <r_i_glide_lipo>  (120) 
-0.0308258

>  <r_i_glide_hbond>  (120) 
-0.16

>  <r_i_glide_metal>  (120) 
-0

>  <r_i_glide_rewards>  (120) 
-1.44279

>  <r_i_glide_evdw>  (120) 
-12.7452

>  <r_i_glide_ecoul>  (120) 
-5.41624

>  <r_i_glide_erotb>  (120) 
0

>  <r_i_glide_esite>  (120) 
0

>  <r_i_glide_emodel>  (120) 
-22.3291

>  <r_i_glide_energy>  (120) 
-18.1614

>  <r_i_glide_einternal>  (120) 
0.00794721

>  <r_i_glide_intrahb_reward>  (120) 
-0

>  <i_i_glide_confnum>  (120) 
1

>  <i_i_glide_posenum>  (120) 
1

>  <r_i_glide_eff_state_penalty>  (120) 
0

>  <ligand_id>  (120) 
34

>  <original_smiles>  (120) 
C=C1C(=O)C2CC(C)(O)C34CCC1C(C)CC3(C(C)C)C24

>  <smiles>  (120) 
[H]OC1(C([H])([H])[H])C([H])([H])C2([H])C(=O)C(=C([H])[H])C3([H])C([H])([H])C([H])([H])C14C2([H])C4(C([H])(C([H])([H])[H])C([H])([H])[H])C([H])([H])C3([H])C([H])([H])[H]

$$$$
34:0:1
     RDKit          3D

 49 52  0  0  1  0  0  0  0  0999 V2000
    3.8768   -1.4907   -1.1187 C   0  0  0  0  0  0  0  0  0  0  0  0
    4.5129   -2.2762   -0.2274 C   0  0  0  0  0  0  0  0  0  0  0  0
    4.3436   -1.9466    1.2078 C   0  0  0  0  0  0  0  0  0  0  0  0
    4.2778   -0.7681    1.5650 O   0  0  0  0  0  0  0  0  0  0  0  0
    4.2099   -3.0021    2.3281 C   0  0  1  0  0  0  0  0  0  0  0  0
    2.8154   -3.6291    2.5537 C   0  0  0  0  0  0  0  0  0  0  0  0
    3.0755   -5.1537    2.4989 C   0  0  1  0  0  0  0  0  0  0  0  0
    3.1803   -5.7814    3.9125 C   0  0  0  0  0  0  0  0  0  0  0  0
    1.9455   -5.8246    1.9546 O   0  0  0  0  0  0  0  0  0  0  0  0
    4.3371   -5.2115    1.5939 C   0  0  2  0  0  0  0  0  0  0  0  0
    3.8241   -5.1574    0.1247 C   0  0  0  0  0  0  0  0  0  0  0  0
    4.7403   -4.6627   -0.9980 C   0  0  0  0  0  0  0  0  0  0  0  0
    5.4814   -3.3666   -0.7070 C   0  0  2  0  0  0  0  0  0  0  0  0
    6.8299   -3.6152    0.0116 C   0  0  1  0  0  0  0  0  0  0  0  0
    7.4538   -2.3935    0.7111 C   0  0  0  0  0  0  0  0  0  0  0  0
    6.9417   -4.9535    0.7870 C   0  0  0  0  0  0  0  0  0  0  0  0
    5.8278   -5.3378    1.7734 C   0  0  2  0  0  0  0  0  0  0  0  0
    6.2757   -6.5725    2.5915 C   0  0  0  0  0  0  0  0  0  0  0  0
    7.5539   -6.3799    3.4297 C   0  0  0  0  0  0  0  0  0  0  0  0
    6.3469   -7.8731    1.7734 C   0  0  0  0  0  0  0  0  0  0  0  0
    5.1866   -4.1609    2.4313 C   0  0  1  0  0  0  0  0  0  0  0  0
    3.9897   -1.6281   -2.1871 H   0  0  0  0  0  0  0  0  0  0  0  0
    3.2170   -0.6930   -0.7956 H   0  0  0  0  0  0  0  0  0  0  0  0
    4.4099   -2.4177    3.2234 H   0  0  0  0  0  0  0  0  0  0  0  0
    2.3903   -3.3365    3.5179 H   0  0  0  0  0  0  0  0  0  0  0  0
    2.1107   -3.3009    1.7870 H   0  0  0  0  0  0  0  0  0  0  0  0
    3.9492   -5.3381    4.5416 H   0  0  0  0  0  0  0  0  0  0  0  0
    3.3615   -6.8560    3.8780 H   0  0  0  0  0  0  0  0  0  0  0  0
    2.2449   -5.6415    4.4564 H   0  0  0  0  0  0  0  0  0  0  0  0
    2.1330   -6.7503    1.9506 H   0  0  0  0  0  0  0  0  0  0  0  0
    3.4873   -6.1600   -0.1431 H   0  0  0  0  0  0  0  0  0  0  0  0
    2.9342   -4.5359    0.0725 H   0  0  0  0  0  0  0  0  0  0  0  0
    5.4047   -5.4609   -1.3062 H   0  0  0  0  0  0  0  0  0  0  0  0
    4.1426   -4.4443   -1.8805 H   0  0  0  0  0  0  0  0  0  0  0  0
    5.7906   -3.0086   -1.6887 H   0  0  0  0  0  0  0  0  0  0  0  0
    7.5241   -3.7795   -0.8166 H   0  0  0  0  0  0  0  0  0  0  0  0
    7.0053   -2.1886    1.6792 H   0  0  0  0  0  0  0  0  0  0  0  0
    7.3559   -1.4974    0.1005 H   0  0  0  0  0  0  0  0  0  0  0  0
    8.5164   -2.5653    0.8763 H   0  0  0  0  0  0  0  0  0  0  0  0
    7.0735   -5.7789    0.0861 H   0  0  0  0  0  0  0  0  0  0  0  0
    7.8823   -4.9041    1.3249 H   0  0  0  0  0  0  0  0  0  0  0  0
    5.4999   -6.7410    3.3283 H   0  0  0  0  0  0  0  0  0  0  0  0
    8.4656   -6.3847    2.8272 H   0  0  0  0  0  0  0  0  0  0  0  0
    7.6571   -7.1898    4.1536 H   0  0  0  0  0  0  0  0  0  0  0  0
    7.5264   -5.4574    4.0079 H   0  0  0  0  0  0  0  0  0  0  0  0
    7.1580   -7.8630    1.0439 H   0  0  0  0  0  0  0  0  0  0  0  0
    5.4091   -8.0651    1.2527 H   0  0  0  0  0  0  0  0  0  0  0  0
    6.5264   -8.7216    2.4359 H   0  0  0  0  0  0  0  0  0  0  0  0
    5.4188   -4.2664    3.4875 H   0  0  0  0  0  0  0  0  0  0  0  0
  1  2  2  0
  1 22  1  0
  1 23  1  0
  2 13  1  0
  2  3  1  0
  3  4  2  0
  3  5  1  0
  5 21  1  0
  5  6  1  0
  5 24  1  1
  6  7  1  0
  6 25  1  0
  6 26  1  0
  7  8  1  0
  7  9  1  6
  7 10  1  0
  8 27  1  0
  8 28  1  0
  8 29  1  0
  9 30  1  0
 10 17  1  0
 10 21  1  0
 10 11  1  6
 11 12  1  0
 11 31  1  0
 11 32  1  0
 12 13  1  0
 12 33  1  0
 12 34  1  0
 13 14  1  0
 13 35  1  6
 14 15  1  0
 14 16  1  0
 14 36  1  6
 15 37  1  0
 15 38  1  0
 15 39  1  0
 16 17  1  0
 16 40  1  0
 16 41  1  0
 17 18  1  1
 17 21  1  0
 18 19  1  0
 18 20  1  0
 18 42  1  0
 19 43  1  0
 19 44  1  0
 19 45  1  0
 20 46  1  0
 20 47  1  0
 20 48  1  0
 21 49  1  1
M  END
>  <i_m_ct_stereo_status>  (121) 
1

>  <s_m_source_file>  (121) 
/var/tmp/pbs.5076255.sched01/tmp0glzbzrw/400n8fk_jm.sdf

>  <i_m_source_file_index>  (121) 
7

>  <i_lp_mmshare_version>  (121) 
48012

>  <i_f3d_flags>  (121) 
0

>  <s_epik_input>  (121) 
W0NIMl0xW0NIMl1bQ0BIXShbQ0BASF0oW0NIM10pW0NIMl0yKUMoPVtDSDJdKUMoPU8pW0NAQEhdKFtDSDJdW0NAQF0zKFtDSDNdKVtPSF0pW0NAQEhdNFtDQF0yKFtDQEBdMTM0KVtDSF0oW0NIM10pW0NIM10=

>  <s_epik_cmdline>  (121) 
J2VwaWtfcHl0aG9uJywgJy1waHQnLCAnMi4wJywgJy1waCcsICc3LjAnLCAnLXRuJywgJzgnLCAnLW1hJywgJzIwMCcsICctaW1hZScsICc8aW5maWxlLm1hZT4nLCAnLW9tYWUnLCAnPG91dGZpbGUubWFlPic=

>  <r_lp_tautomer_probability>  (121) 
1

>  <r_epik_Ionization_Penalty>  (121) 
5.20074e-07

>  <r_epik_Ionization_Penalty_Charging>  (121) 
0

>  <r_epik_Ionization_Penalty_Neutral>  (121) 
5.20074e-07

>  <r_epik_State_Penalty>  (121) 
-0

>  <r_epik_Charging_Adjusted_Penalty>  (121) 
0

>  <i_epik_Tot_Q>  (121) 
0

>  <i_epik_Tot_abs_Q>  (121) 
0

>  <s_lp_Force_Field>  (121) 
OPLS3e

>  <r_lp_Energy>  (121) 
103.563

>  <b_lp_Chiralities_Consistent>  (121) 
1

>  <s_lp_Variant>  (121) 
34:0-1

>  <s_i_glide_gridfile>  (121) 
pfpi4k_grid

>  <i_i_glide_lignum>  (121) 
7

>  <i_i_glide_rotatable_bonds>  (121) 
2

>  <r_i_docking_score>  (121) 
-2.98032

>  <r_i_glide_ligand_efficiency>  (121) 
-0.14192

>  <r_i_glide_ligand_efficiency_sa>  (121) 
-0.391546

>  <r_i_glide_ligand_efficiency_ln>  (121) 
-0.736877

>  <r_i_glide_gscore>  (121) 
-2.98032

>  <r_i_glide_lipo>  (121) 
-0.642632

>  <r_i_glide_hbond>  (121) 
0

>  <r_i_glide_metal>  (121) 
-0

>  <r_i_glide_rewards>  (121) 
-1.44285

>  <r_i_glide_evdw>  (121) 
-15.5102

>  <r_i_glide_ecoul>  (121) 
-0.795507

>  <r_i_glide_erotb>  (121) 
0

>  <r_i_glide_esite>  (121) 
0

>  <r_i_glide_emodel>  (121) 
-20.3245

>  <r_i_glide_energy>  (121) 
-16.3057

>  <r_i_glide_einternal>  (121) 
0.000309758

>  <r_i_glide_intrahb_reward>  (121) 
-0

>  <i_i_glide_confnum>  (121) 
1

>  <i_i_glide_posenum>  (121) 
17

>  <r_i_glide_eff_state_penalty>  (121) 
0

>  <ligand_id>  (121) 
34

>  <original_smiles>  (121) 
C=C1C(=O)C2CC(C)(O)C34CCC1C(C)CC3(C(C)C)C24

>  <smiles>  (121) 
[H]OC1(C([H])([H])[H])C([H])([H])C2([H])C(=O)C(=C([H])[H])C3([H])C([H])([H])C([H])([H])C14C2([H])C4(C([H])(C([H])([H])[H])C([H])([H])[H])C([H])([H])C3([H])C([H])([H])[H]

$$$$
34:0:2
     RDKit          3D

 49 52  0  0  1  0  0  0  0  0999 V2000
    2.6480   -1.9275   -3.3187 C   0  0  0  0  0  0  0  0  0  0  0  0
    3.4313   -2.2047   -2.2482 C   0  0  0  0  0  0  0  0  0  0  0  0
    4.2059   -1.1064   -1.6573 C   0  0  0  0  0  0  0  0  0  0  0  0
    4.7234   -0.2928   -2.4123 O   0  0  0  0  0  0  0  0  0  0  0  0
    4.4593   -0.9384   -0.1484 C   0  0  1  0  0  0  0  0  0  0  0  0
    3.3526   -0.4170    0.7899 C   0  0  0  0  0  0  0  0  0  0  0  0
    3.1999   -1.5156    1.8642 C   0  0  1  0  0  0  0  0  0  0  0  0
    3.9182   -1.1378    3.1713 C   0  0  0  0  0  0  0  0  0  0  0  0
    1.8412   -1.6158    2.2579 O   0  0  0  0  0  0  0  0  0  0  0  0
    3.7317   -2.7732    1.1061 C   0  0  2  0  0  0  0  0  0  0  0  0
    2.5464   -3.3773    0.3564 C   0  0  0  0  0  0  0  0  0  0  0  0
    2.7432   -4.2116   -0.9120 C   0  0  0  0  0  0  0  0  0  0  0  0
    3.7557   -3.6430   -1.9105 C   0  0  2  0  0  0  0  0  0  0  0  0
    5.2026   -4.0578   -1.5744 C   0  0  1  0  0  0  0  0  0  0  0  0
    6.3561   -3.2623   -2.2181 C   0  0  0  0  0  0  0  0  0  0  0  0
    5.4339   -4.5158   -0.1271 C   0  0  0  0  0  0  0  0  0  0  0  0
    5.0164   -3.5507    1.0028 C   0  0  2  0  0  0  0  0  0  0  0  0
    5.5462   -4.0443    2.3728 C   0  0  0  0  0  0  0  0  0  0  0  0
    6.7853   -4.9658    2.3662 C   0  0  0  0  0  0  0  0  0  0  0  0
    4.4686   -4.6899    3.2769 C   0  0  0  0  0  0  0  0  0  0  0  0
    5.0756   -2.1019    0.6096 C   0  0  1  0  0  0  0  0  0  0  0  0
    2.1385   -2.6973   -3.8929 H   0  0  0  0  0  0  0  0  0  0  0  0
    2.5205   -0.8996   -3.6373 H   0  0  0  0  0  0  0  0  0  0  0  0
    5.2392   -0.1734   -0.1134 H   0  0  0  0  0  0  0  0  0  0  0  0
    3.5986    0.5437    1.2474 H   0  0  0  0  0  0  0  0  0  0  0  0
    2.4395   -0.2453    0.2406 H   0  0  0  0  0  0  0  0  0  0  0  0
    4.9711   -0.9039    3.0540 H   0  0  0  0  0  0  0  0  0  0  0  0
    3.8291   -1.8916    3.9490 H   0  0  0  0  0  0  0  0  0  0  0  0
    3.4632   -0.2359    3.5741 H   0  0  0  0  0  0  0  0  0  0  0  0
    1.2937   -1.5125    1.4679 H   0  0  0  0  0  0  0  0  0  0  0  0
    1.9547   -3.9661    1.0566 H   0  0  0  0  0  0  0  0  0  0  0  0
    1.8891   -2.5844    0.0302 H   0  0  0  0  0  0  0  0  0  0  0  0
    2.9817   -5.2321   -0.6499 H   0  0  0  0  0  0  0  0  0  0  0  0
    1.7980   -4.2520   -1.4446 H   0  0  0  0  0  0  0  0  0  0  0  0
    3.6155   -4.1238   -2.8901 H   0  0  0  0  0  0  0  0  0  0  0  0
    5.2686   -4.9909   -2.1072 H   0  0  0  0  0  0  0  0  0  0  0  0
    6.5778   -2.3212   -1.7202 H   0  0  0  0  0  0  0  0  0  0  0  0
    6.1499   -3.0501   -3.2619 H   0  0  0  0  0  0  0  0  0  0  0  0
    7.2788   -3.8398   -2.2062 H   0  0  0  0  0  0  0  0  0  0  0  0
    5.0014   -5.5046    0.0698 H   0  0  0  0  0  0  0  0  0  0  0  0
    6.5118   -4.6647   -0.1157 H   0  0  0  0  0  0  0  0  0  0  0  0
    5.8348   -3.1402    2.8924 H   0  0  0  0  0  0  0  0  0  0  0  0
    6.5527   -5.9565    1.9672 H   0  0  0  0  0  0  0  0  0  0  0  0
    7.1552   -5.1367    3.3775 H   0  0  0  0  0  0  0  0  0  0  0  0
    7.6307   -4.5465    1.8160 H   0  0  0  0  0  0  0  0  0  0  0  0
    4.1092   -5.6403    2.8746 H   0  0  0  0  0  0  0  0  0  0  0  0
    3.5982   -4.0560    3.4404 H   0  0  0  0  0  0  0  0  0  0  0  0
    4.8839   -4.8803    4.2719 H   0  0  0  0  0  0  0  0  0  0  0  0
    5.8000   -1.6785    1.2555 H   0  0  0  0  0  0  0  0  0  0  0  0
  1  2  2  0
  1 22  1  0
  1 23  1  0
  2 13  1  0
  2  3  1  0
  3  4  2  0
  3  5  1  0
  5 21  1  0
  5  6  1  0
  5 24  1  6
  6  7  1  0
  6 25  1  0
  6 26  1  0
  7  8  1  0
  7  9  1  1
  7 10  1  0
  8 27  1  0
  8 28  1  0
  8 29  1  0
  9 30  1  0
 10 17  1  0
 10 21  1  0
 10 11  1  6
 11 12  1  0
 11 31  1  0
 11 32  1  0
 12 13  1  0
 12 33  1  0
 12 34  1  0
 13 14  1  0
 13 35  1  6
 14 15  1  0
 14 16  1  0
 14 36  1  6
 15 37  1  0
 15 38  1  0
 15 39  1  0
 16 17  1  0
 16 40  1  0
 16 41  1  0
 17 18  1  1
 17 21  1  0
 18 19  1  0
 18 20  1  0
 18 42  1  0
 19 43  1  0
 19 44  1  0
 19 45  1  0
 20 46  1  0
 20 47  1  0
 20 48  1  0
 21 49  1  1
M  END
>  <i_m_ct_stereo_status>  (122) 
1

>  <s_m_source_file>  (122) 
/var/tmp/pbs.5076255.sched01/tmp0glzbzrw/400n8fk_jm.sdf

>  <i_m_source_file_index>  (122) 
7

>  <i_lp_mmshare_version>  (122) 
48012

>  <i_f3d_flags>  (122) 
0

>  <s_epik_input>  (122) 
W0NIMl0xW0NIMl1bQ0BIXShbQ0BASF0oW0NIM10pW0NIMl0yKUMoPVtDSDJdKUMoPU8pW0NAQEhdKFtDSDJdW0NAQF0zKFtDSDNdKVtPSF0pW0NAQEhdNFtDQF0yKFtDQEBdMTM0KVtDSF0oW0NIM10pW0NIM10=

>  <s_epik_cmdline>  (122) 
J2VwaWtfcHl0aG9uJywgJy1waHQnLCAnMi4wJywgJy1waCcsICc3LjAnLCAnLXRuJywgJzgnLCAnLW1hJywgJzIwMCcsICctaW1hZScsICc8aW5maWxlLm1hZT4nLCAnLW9tYWUnLCAnPG91dGZpbGUubWFlPic=

>  <r_lp_tautomer_probability>  (122) 
1

>  <r_epik_Ionization_Penalty>  (122) 
5.20074e-07

>  <r_epik_Ionization_Penalty_Charging>  (122) 
0

>  <r_epik_Ionization_Penalty_Neutral>  (122) 
5.20074e-07

>  <r_epik_State_Penalty>  (122) 
-0

>  <r_epik_Charging_Adjusted_Penalty>  (122) 
0

>  <i_epik_Tot_Q>  (122) 
0

>  <i_epik_Tot_abs_Q>  (122) 
0

>  <s_lp_Force_Field>  (122) 
OPLS3e

>  <r_lp_Energy>  (122) 
103.563

>  <b_lp_Chiralities_Consistent>  (122) 
1

>  <s_lp_Variant>  (122) 
34:0-1

>  <s_i_glide_gridfile>  (122) 
pfpi4k_grid

>  <i_i_glide_lignum>  (122) 
7

>  <i_i_glide_rotatable_bonds>  (122) 
2

>  <r_i_docking_score>  (122) 
-2.95847

>  <r_i_glide_ligand_efficiency>  (122) 
-0.14088

>  <r_i_glide_ligand_efficiency_sa>  (122) 
-0.388676

>  <r_i_glide_ligand_efficiency_ln>  (122) 
-0.731476

>  <r_i_glide_gscore>  (122) 
-2.95847

>  <r_i_glide_lipo>  (122) 
-0.431313

>  <r_i_glide_hbond>  (122) 
-0.0251303

>  <r_i_glide_metal>  (122) 
-0

>  <r_i_glide_rewards>  (122) 
-1.44256

>  <r_i_glide_evdw>  (122) 
-13.6724

>  <r_i_glide_ecoul>  (122) 
-2.2172

>  <r_i_glide_erotb>  (122) 
0

>  <r_i_glide_esite>  (122) 
-0.0432681

>  <r_i_glide_emodel>  (122) 
-16.7571

>  <r_i_glide_energy>  (122) 
-15.8896

>  <r_i_glide_einternal>  (122) 
4.69236

>  <r_i_glide_intrahb_reward>  (122) 
-0

>  <i_i_glide_confnum>  (122) 
1

>  <i_i_glide_posenum>  (122) 
15

>  <r_i_glide_eff_state_penalty>  (122) 
0

>  <ligand_id>  (122) 
34

>  <original_smiles>  (122) 
C=C1C(=O)C2CC(C)(O)C34CCC1C(C)CC3(C(C)C)C24

>  <smiles>  (122) 
[H]OC1(C([H])([H])[H])C([H])([H])C2([H])C(=O)C(=C([H])[H])C3([H])C([H])([H])C([H])([H])C14C2([H])C4(C([H])(C([H])([H])[H])C([H])([H])[H])C([H])([H])C3([H])C([H])([H])[H]

$$$$
36:0:0
     RDKit          3D

 20 21  0  0  1  0  0  0  0  0999 V2000
    1.8444   -7.4650    1.7688 O   0  0  0  0  0  0  0  0  0  0  0  0
    1.2053   -6.4164    1.5542 C   0  0  0  0  0  0  0  0  0  0  0  0
   -0.0350   -6.2563    1.5685 O   0  0  0  0  0  0  0  0  0  0  0  0
    2.0383   -5.1453    1.2533 C   0  0  0  0  0  0  0  0  0  0  0  0
    2.2204   -4.6258    0.0220 C   0  0  0  0  0  0  0  0  0  0  0  0
    3.0206   -3.4279   -0.2984 C   0  0  0  0  0  0  0  0  0  0  0  0
    3.8164   -2.6606    0.5887 C   0  0  0  0  0  0  0  0  0  0  0  0
    4.4291   -1.6505    0.0103 N   0  0  0  0  0  0  0  0  0  0  0  0
    4.0104   -1.7286   -1.2971 N   0  0  0  0  0  0  0  0  0  0  0  0
    4.3660   -0.8824   -2.3070 C   0  0  0  0  0  0  0  0  0  0  0  0
    3.8640   -1.1259   -3.5618 C   0  0  0  0  0  0  0  0  0  0  0  0
    2.9942   -2.2299   -3.7180 C   0  0  0  0  0  0  0  0  0  0  0  0
    2.6295   -3.0562   -2.7459 N   0  0  0  0  0  0  0  0  0  0  0  0
    3.1309   -2.8165   -1.5255 C   0  0  0  0  0  0  0  0  0  0  0  0
    2.4840   -4.6628    2.1081 H   0  0  0  0  0  0  0  0  0  0  0  0
    1.7454   -5.1225   -0.8121 H   0  0  0  0  0  0  0  0  0  0  0  0
    3.9688   -2.8349    1.6449 H   0  0  0  0  0  0  0  0  0  0  0  0
    5.0214   -0.0569   -2.0600 H   0  0  0  0  0  0  0  0  0  0  0  0
    4.1076   -0.4729   -4.3919 H   0  0  0  0  0  0  0  0  0  0  0  0
    2.5763   -2.4451   -4.6861 H   0  0  0  0  0  0  0  0  0  0  0  0
  1  2  2  0
  2  3  1  0
  2  4  1  0
  4  5  2  3
  4 15  1  0
  5  6  1  0
  5 16  1  0
  6 14  2  0
  6  7  1  0
  7  8  2  0
  7 17  1  0
  8  9  1  0
  9 14  1  0
  9 10  1  0
 10 11  2  0
 10 18  1  0
 11 12  1  0
 11 19  1  0
 12 13  2  0
 12 20  1  0
 13 14  1  0
M  CHG  1   3  -1
M  END
>  <i_m_ct_stereo_status>  (123) 
1

>  <s_m_source_file>  (123) 
/var/tmp/pbs.5076255.sched01/tmp0glzbzrw/400n8fk_jm.sdf

>  <i_m_source_file_index>  (123) 
9

>  <i_lp_mmshare_version>  (123) 
48012

>  <i_f3d_flags>  (123) 
0

>  <s_epik_input>  (123) 
Tz1DKFtPSF0pL1tDSF09W0NIXS9jKFtjSF1uMSljKG4xMiluW2NIXVtjSF1bY0hdMg==

>  <s_epik_cmdline>  (123) 
J2VwaWtfcHl0aG9uJywgJy1waHQnLCAnMi4wJywgJy1waCcsICc3LjAnLCAnLXRuJywgJzgnLCAnLW1hJywgJzIwMCcsICctaW1hZScsICc8aW5maWxlLm1hZT4nLCAnLW9tYWUnLCAnPG91dGZpbGUubWFlPic=

>  <r_lp_tautomer_probability>  (123) 
1

>  <r_epik_Ionization_Penalty>  (123) 
1.56799e-06

>  <r_epik_Ionization_Penalty_Charging>  (123) 
1.39855e-06

>  <r_epik_Ionization_Penalty_Neutral>  (123) 
1.69438e-07

>  <r_epik_State_Penalty>  (123) 
-0

>  <r_epik_Charging_Adjusted_Penalty>  (123) 
1.39855e-06

>  <i_epik_Tot_Q>  (123) 
-1

>  <i_epik_Tot_abs_Q>  (123) 
1

>  <s_lp_Force_Field>  (123) 
OPLS3e

>  <r_lp_Energy>  (123) 
22.2213

>  <b_lp_Chiralities_Consistent>  (123) 
1

>  <s_lp_Variant>  (123) 
36:0-1

>  <s_i_glide_gridfile>  (123) 
pfpi4k_grid

>  <i_i_glide_lignum>  (123) 
9

>  <i_i_glide_rotatable_bonds>  (123) 
2

>  <r_i_docking_score>  (123) 
-3.21632

>  <r_i_glide_ligand_efficiency>  (123) 
-0.229737

>  <r_i_glide_ligand_efficiency_sa>  (123) 
-0.553699

>  <r_i_glide_ligand_efficiency_ln>  (123) 
-0.883832

>  <r_i_glide_gscore>  (123) 
-3.21632

>  <r_i_glide_lipo>  (123) 
-0.441518

>  <r_i_glide_hbond>  (123) 
-0.365344

>  <r_i_glide_metal>  (123) 
-0

>  <r_i_glide_rewards>  (123) 
-2.12616

>  <r_i_glide_evdw>  (123) 
-18.9608

>  <r_i_glide_ecoul>  (123) 
-0.692243

>  <r_i_glide_erotb>  (123) 
0.9037

>  <r_i_glide_esite>  (123) 
-0.135117

>  <r_i_glide_emodel>  (123) 
-26.4712

>  <r_i_glide_energy>  (123) 
-19.653

>  <r_i_glide_einternal>  (123) 
0.073732

>  <r_i_glide_intrahb_reward>  (123) 
-0

>  <i_i_glide_confnum>  (123) 
6

>  <i_i_glide_posenum>  (123) 
9

>  <r_i_glide_eff_state_penalty>  (123) 
0

>  <ligand_id>  (123) 
36

>  <original_smiles>  (123) 
O=C(O)C=Cc1cnn2cccnc12

>  <smiles>  (123) 
[H]C(C(=O)[O-])=C([H])c1c([H])nn2c([H])c([H])c([H])nc12

$$$$
36:0:1
     RDKit          3D

 20 21  0  0  1  0  0  0  0  0999 V2000
   -1.6183   -3.0587    6.4750 O   0  0  0  0  0  0  0  0  0  0  0  0
   -0.9792   -3.7254    7.3164 C   0  0  0  0  0  0  0  0  0  0  0  0
   -0.9360   -3.5028    8.5465 O   0  0  0  0  0  0  0  0  0  0  0  0
   -0.1737   -4.9360    6.7975 C   0  0  0  0  0  0  0  0  0  0  0  0
   -0.7002   -5.8831    6.0031 C   0  0  0  0  0  0  0  0  0  0  0  0
    0.0094   -7.0588    5.4814 C   0  0  0  0  0  0  0  0  0  0  0  0
    1.2482   -7.5776    5.9237 C   0  0  0  0  0  0  0  0  0  0  0  0
    1.6482   -8.6252    5.2393 N   0  0  0  0  0  0  0  0  0  0  0  0
    0.6557   -8.8133    4.3136 N   0  0  0  0  0  0  0  0  0  0  0  0
    0.6185   -9.7853    3.3636 C   0  0  0  0  0  0  0  0  0  0  0  0
   -0.4545   -9.7879    2.5042 C   0  0  0  0  0  0  0  0  0  0  0  0
   -1.4515   -8.7956    2.6530 C   0  0  0  0  0  0  0  0  0  0  0  0
   -1.4197   -7.8331    3.5717 N   0  0  0  0  0  0  0  0  0  0  0  0
   -0.3722   -7.8435    4.4237 C   0  0  0  0  0  0  0  0  0  0  0  0
    0.8633   -4.9962    7.0975 H   0  0  0  0  0  0  0  0  0  0  0  0
   -1.7428   -5.8069    5.7325 H   0  0  0  0  0  0  0  0  0  0  0  0
    1.8532   -7.2097    6.7403 H   0  0  0  0  0  0  0  0  0  0  0  0
    1.4372  -10.4974    3.3315 H   0  0  0  0  0  0  0  0  0  0  0  0
   -0.5268  -10.5438    1.7303 H   0  0  0  0  0  0  0  0  0  0  0  0
   -2.3085   -8.8017    1.9843 H   0  0  0  0  0  0  0  0  0  0  0  0
  1  2  2  0
  2  3  1  0
  2  4  1  0
  4  5  2  3
  4 15  1  0
  5  6  1  0
  5 16  1  0
  6 14  2  0
  6  7  1  0
  7  8  2  0
  7 17  1  0
  8  9  1  0
  9 14  1  0
  9 10  1  0
 10 11  2  0
 10 18  1  0
 11 12  1  0
 11 19  1  0
 12 13  2  0
 12 20  1  0
 13 14  1  0
M  CHG  1   3  -1
M  END
>  <i_m_ct_stereo_status>  (124) 
1

>  <s_m_source_file>  (124) 
/var/tmp/pbs.5076255.sched01/tmp0glzbzrw/400n8fk_jm.sdf

>  <i_m_source_file_index>  (124) 
9

>  <i_lp_mmshare_version>  (124) 
48012

>  <i_f3d_flags>  (124) 
0

>  <s_epik_input>  (124) 
Tz1DKFtPSF0pL1tDSF09W0NIXS9jKFtjSF1uMSljKG4xMiluW2NIXVtjSF1bY0hdMg==

>  <s_epik_cmdline>  (124) 
J2VwaWtfcHl0aG9uJywgJy1waHQnLCAnMi4wJywgJy1waCcsICc3LjAnLCAnLXRuJywgJzgnLCAnLW1hJywgJzIwMCcsICctaW1hZScsICc8aW5maWxlLm1hZT4nLCAnLW9tYWUnLCAnPG91dGZpbGUubWFlPic=

>  <r_lp_tautomer_probability>  (124) 
1

>  <r_epik_Ionization_Penalty>  (124) 
1.56799e-06

>  <r_epik_Ionization_Penalty_Charging>  (124) 
1.39855e-06

>  <r_epik_Ionization_Penalty_Neutral>  (124) 
1.69438e-07

>  <r_epik_State_Penalty>  (124) 
-0

>  <r_epik_Charging_Adjusted_Penalty>  (124) 
1.39855e-06

>  <i_epik_Tot_Q>  (124) 
-1

>  <i_epik_Tot_abs_Q>  (124) 
1

>  <s_lp_Force_Field>  (124) 
OPLS3e

>  <r_lp_Energy>  (124) 
22.2213

>  <b_lp_Chiralities_Consistent>  (124) 
1

>  <s_lp_Variant>  (124) 
36:0-1

>  <s_i_glide_gridfile>  (124) 
pfpi4k_grid

>  <i_i_glide_lignum>  (124) 
9

>  <i_i_glide_rotatable_bonds>  (124) 
2

>  <r_i_docking_score>  (124) 
-2.94735

>  <r_i_glide_ligand_efficiency>  (124) 
-0.210525

>  <r_i_glide_ligand_efficiency_sa>  (124) 
-0.507394

>  <r_i_glide_ligand_efficiency_ln>  (124) 
-0.80992

>  <r_i_glide_gscore>  (124) 
-2.94735

>  <r_i_glide_lipo>  (124) 
-0.126051

>  <r_i_glide_hbond>  (124) 
-0.149042

>  <r_i_glide_metal>  (124) 
-0

>  <r_i_glide_rewards>  (124) 
-2.12616

>  <r_i_glide_evdw>  (124) 
-14.2034

>  <r_i_glide_ecoul>  (124) 
-4.12652

>  <r_i_glide_erotb>  (124) 
0.9037

>  <r_i_glide_esite>  (124) 
-0.120641

>  <r_i_glide_emodel>  (124) 
-24.0765

>  <r_i_glide_energy>  (124) 
-18.3299

>  <r_i_glide_einternal>  (124) 
0.960526

>  <r_i_glide_intrahb_reward>  (124) 
-0

>  <i_i_glide_confnum>  (124) 
2

>  <i_i_glide_posenum>  (124) 
33

>  <r_i_glide_eff_state_penalty>  (124) 
0

>  <ligand_id>  (124) 
36

>  <original_smiles>  (124) 
O=C(O)C=Cc1cnn2cccnc12

>  <smiles>  (124) 
[H]C(C(=O)[O-])=C([H])c1c([H])nn2c([H])c([H])c([H])nc12

$$$$
36:0:2
     RDKit          3D

 20 21  0  0  1  0  0  0  0  0999 V2000
    0.9501   -7.0245    3.3487 O   0  0  0  0  0  0  0  0  0  0  0  0
    0.8727   -6.4711    2.2350 C   0  0  0  0  0  0  0  0  0  0  0  0
   -0.1702   -6.2759    1.5676 O   0  0  0  0  0  0  0  0  0  0  0  0
    2.1910   -5.8731    1.6616 C   0  0  0  0  0  0  0  0  0  0  0  0
    2.2951   -5.1465    0.5287 C   0  0  0  0  0  0  0  0  0  0  0  0
    3.5383   -4.5764   -0.0146 C   0  0  0  0  0  0  0  0  0  0  0  0
    4.8671   -4.8401    0.3999 C   0  0  0  0  0  0  0  0  0  0  0  0
    5.7708   -4.1907   -0.3006 N   0  0  0  0  0  0  0  0  0  0  0  0
    5.0237   -3.4781   -1.2061 N   0  0  0  0  0  0  0  0  0  0  0  0
    5.5123   -2.6424   -2.1627 C   0  0  0  0  0  0  0  0  0  0  0  0
    4.6074   -1.9916   -2.9727 C   0  0  0  0  0  0  0  0  0  0  0  0
    3.2277   -2.2363   -2.7765 C   0  0  0  0  0  0  0  0  0  0  0  0
    2.7429   -3.0570   -1.8470 N   0  0  0  0  0  0  0  0  0  0  0  0
    3.6315   -3.6801   -1.0514 C   0  0  0  0  0  0  0  0  0  0  0  0
    3.0793   -6.0535    2.2495 H   0  0  0  0  0  0  0  0  0  0  0  0
    1.4158   -4.9657   -0.0639 H   0  0  0  0  0  0  0  0  0  0  0  0
    5.1789   -5.5174    1.1855 H   0  0  0  0  0  0  0  0  0  0  0  0
    6.5900   -2.5348   -2.2280 H   0  0  0  0  0  0  0  0  0  0  0  0
    4.9426   -1.3002   -3.7368 H   0  0  0  0  0  0  0  0  0  0  0  0
    2.4949   -1.7356   -3.4056 H   0  0  0  0  0  0  0  0  0  0  0  0
  1  2  2  0
  2  3  1  0
  2  4  1  0
  4  5  2  3
  4 15  1  0
  5  6  1  0
  5 16  1  0
  6 14  2  0
  6  7  1  0
  7  8  2  0
  7 17  1  0
  8  9  1  0
  9 14  1  0
  9 10  1  0
 10 11  2  0
 10 18  1  0
 11 12  1  0
 11 19  1  0
 12 13  2  0
 12 20  1  0
 13 14  1  0
M  CHG  1   3  -1
M  END
>  <i_m_ct_stereo_status>  (125) 
1

>  <s_m_source_file>  (125) 
/var/tmp/pbs.5076255.sched01/tmp0glzbzrw/400n8fk_jm.sdf

>  <i_m_source_file_index>  (125) 
9

>  <i_lp_mmshare_version>  (125) 
48012

>  <i_f3d_flags>  (125) 
0

>  <s_epik_input>  (125) 
Tz1DKFtPSF0pL1tDSF09W0NIXS9jKFtjSF1uMSljKG4xMiluW2NIXVtjSF1bY0hdMg==

>  <s_epik_cmdline>  (125) 
J2VwaWtfcHl0aG9uJywgJy1waHQnLCAnMi4wJywgJy1waCcsICc3LjAnLCAnLXRuJywgJzgnLCAnLW1hJywgJzIwMCcsICctaW1hZScsICc8aW5maWxlLm1hZT4nLCAnLW9tYWUnLCAnPG91dGZpbGUubWFlPic=

>  <r_lp_tautomer_probability>  (125) 
1

>  <r_epik_Ionization_Penalty>  (125) 
1.56799e-06

>  <r_epik_Ionization_Penalty_Charging>  (125) 
1.39855e-06

>  <r_epik_Ionization_Penalty_Neutral>  (125) 
1.69438e-07

>  <r_epik_State_Penalty>  (125) 
-0

>  <r_epik_Charging_Adjusted_Penalty>  (125) 
1.39855e-06

>  <i_epik_Tot_Q>  (125) 
-1

>  <i_epik_Tot_abs_Q>  (125) 
1

>  <s_lp_Force_Field>  (125) 
OPLS3e

>  <r_lp_Energy>  (125) 
22.2213

>  <b_lp_Chiralities_Consistent>  (125) 
1

>  <s_lp_Variant>  (125) 
36:0-1

>  <s_i_glide_gridfile>  (125) 
pfpi4k_grid

>  <i_i_glide_lignum>  (125) 
9

>  <i_i_glide_rotatable_bonds>  (125) 
2

>  <r_i_docking_score>  (125) 
-2.84098

>  <r_i_glide_ligand_efficiency>  (125) 
-0.202927

>  <r_i_glide_ligand_efficiency_sa>  (125) 
-0.489084

>  <r_i_glide_ligand_efficiency_ln>  (125) 
-0.780692

>  <r_i_glide_gscore>  (125) 
-2.84098

>  <r_i_glide_lipo>  (125) 
-0.1749

>  <r_i_glide_hbond>  (125) 
-0.3645

>  <r_i_glide_metal>  (125) 
-0

>  <r_i_glide_rewards>  (125) 
-2.19793

>  <r_i_glide_evdw>  (125) 
-16.2962

>  <r_i_glide_ecoul>  (125) 
-0.816467

>  <r_i_glide_erotb>  (125) 
0.9037

>  <r_i_glide_esite>  (125) 
-0.0700761

>  <r_i_glide_emodel>  (125) 
-22.5733

>  <r_i_glide_energy>  (125) 
-17.1126

>  <r_i_glide_einternal>  (125) 
1.08785

>  <r_i_glide_intrahb_reward>  (125) 
-0

>  <i_i_glide_confnum>  (125) 
6

>  <i_i_glide_posenum>  (125) 
27

>  <r_i_glide_eff_state_penalty>  (125) 
0

>  <ligand_id>  (125) 
36

>  <original_smiles>  (125) 
O=C(O)C=Cc1cnn2cccnc12

>  <smiles>  (125) 
[H]C(C(=O)[O-])=C([H])c1c([H])nn2c([H])c([H])c([H])nc12

$$$$
36:1:0
     RDKit          3D

 20 21  0  0  1  0  0  0  0  0999 V2000
   -3.3669    4.7941    2.4781 O   0  0  0  0  0  0  0  0  0  0  0  0
   -4.4386    4.2939    2.0789 C   0  0  0  0  0  0  0  0  0  0  0  0
   -4.5895    3.1803    1.5509 O   0  0  0  0  0  0  0  0  0  0  0  0
   -5.7171    5.1495    2.2780 C   0  0  0  0  0  0  0  0  0  0  0  0
   -6.1529    6.2447    1.6132 C   0  0  0  0  0  0  0  0  0  0  0  0
   -5.5443    6.8918    0.4267 C   0  0  0  0  0  0  0  0  0  0  0  0
   -4.5869    6.3477   -0.4687 C   0  0  0  0  0  0  0  0  0  0  0  0
   -4.2546    7.1605   -1.4441 N   0  0  0  0  0  0  0  0  0  0  0  0
   -4.9723    8.3018   -1.1619 N   0  0  0  0  0  0  0  0  0  0  0  0
   -4.9470    9.4521   -1.8882 C   0  0  0  0  0  0  0  0  0  0  0  0
   -5.7270   10.4886   -1.4394 C   0  0  0  0  0  0  0  0  0  0  0  0
   -6.5043   10.2985   -0.2722 C   0  0  0  0  0  0  0  0  0  0  0  0
   -6.5333    9.1800    0.4451 N   0  0  0  0  0  0  0  0  0  0  0  0
   -5.7728    8.1727   -0.0002 C   0  0  0  0  0  0  0  0  0  0  0  0
   -6.3322    4.7867    3.0853 H   0  0  0  0  0  0  0  0  0  0  0  0
   -7.0706    6.6742    1.9816 H   0  0  0  0  0  0  0  0  0  0  0  0
   -4.1944    5.3501   -0.4507 H   0  0  0  0  0  0  0  0  0  0  0  0
   -4.3328    9.4701   -2.7784 H   0  0  0  0  0  0  0  0  0  0  0  0
   -5.7651   11.4203   -1.9923 H   0  0  0  0  0  0  0  0  0  0  0  0
   -7.1521   11.0973    0.0701 H   0  0  0  0  0  0  0  0  0  0  0  0
  1  2  2  0
  2  3  1  0
  2  4  1  0
  4  5  2  3
  4 15  1  0
  5  6  1  0
  5 16  1  0
  6 14  2  0
  6  7  1  0
  7  8  2  0
  7 17  1  0
  8  9  1  0
  9 14  1  0
  9 10  1  0
 10 11  2  0
 10 18  1  0
 11 12  1  0
 11 19  1  0
 12 13  2  0
 12 20  1  0
 13 14  1  0
M  CHG  1   3  -1
M  END
>  <i_m_ct_stereo_status>  (126) 
1

>  <s_m_source_file>  (126) 
/var/tmp/pbs.5076255.sched01/tmp0glzbzrw/400n8fk_jm.sdf

>  <i_m_source_file_index>  (126) 
10

>  <i_lp_mmshare_version>  (126) 
48012

>  <i_f3d_flags>  (126) 
0

>  <s_epik_input>  (126) 
Tz1DKFtPSF0pL1tDSF09W0NIXS9jKFtjSF1uMSljKG4xMiluW2NIXVtjSF1bY0hdMg==

>  <s_epik_cmdline>  (126) 
J2VwaWtfcHl0aG9uJywgJy1waHQnLCAnMi4wJywgJy1waCcsICc3LjAnLCAnLXRuJywgJzgnLCAnLW1hJywgJzIwMCcsICctaW1hZScsICc8aW5maWxlLm1hZT4nLCAnLW9tYWUnLCAnPG91dGZpbGUubWFlPic=

>  <r_lp_tautomer_probability>  (126) 
1

>  <r_epik_Ionization_Penalty>  (126) 
1.56799e-06

>  <r_epik_Ionization_Penalty_Charging>  (126) 
1.39855e-06

>  <r_epik_Ionization_Penalty_Neutral>  (126) 
1.69438e-07

>  <r_epik_State_Penalty>  (126) 
-0

>  <r_epik_Charging_Adjusted_Penalty>  (126) 
1.39855e-06

>  <i_epik_Tot_Q>  (126) 
-1

>  <i_epik_Tot_abs_Q>  (126) 
1

>  <s_lp_Force_Field>  (126) 
OPLS3e

>  <r_lp_Energy>  (126) 
24.6264

>  <b_lp_Chiralities_Consistent>  (126) 
1

>  <s_lp_Variant>  (126) 
36:0-2

>  <s_i_glide_gridfile>  (126) 
pfpi4k_grid

>  <i_i_glide_lignum>  (126) 
10

>  <i_i_glide_rotatable_bonds>  (126) 
2

>  <r_i_docking_score>  (126) 
-4.62279

>  <r_i_glide_ligand_efficiency>  (126) 
-0.330199

>  <r_i_glide_ligand_efficiency_sa>  (126) 
-0.795827

>  <r_i_glide_ligand_efficiency_ln>  (126) 
-1.27033

>  <r_i_glide_gscore>  (126) 
-4.62279

>  <r_i_glide_lipo>  (126) 
-0.783834

>  <r_i_glide_hbond>  (126) 
-0.0734722

>  <r_i_glide_metal>  (126) 
-0

>  <r_i_glide_rewards>  (126) 
-2.99637

>  <r_i_glide_evdw>  (126) 
-22.8409

>  <r_i_glide_ecoul>  (126) 
-0.526134

>  <r_i_glide_erotb>  (126) 
0.45185

>  <r_i_glide_esite>  (126) 
0

>  <r_i_glide_emodel>  (126) 
-32.7369

>  <r_i_glide_energy>  (126) 
-23.3671

>  <r_i_glide_einternal>  (126) 
0.690894

>  <r_i_glide_intrahb_reward>  (126) 
-0

>  <i_i_glide_confnum>  (126) 
4

>  <i_i_glide_posenum>  (126) 
35

>  <r_i_glide_eff_state_penalty>  (126) 
0

>  <ligand_id>  (126) 
36

>  <original_smiles>  (126) 
O=C(O)C=Cc1cnn2cccnc12

>  <smiles>  (126) 
[H]C(C(=O)[O-])=C([H])c1c([H])nn2c([H])c([H])c([H])nc12

$$$$
36:1:1
     RDKit          3D

 20 21  0  0  1  0  0  0  0  0999 V2000
    0.5056   -5.8753    2.4541 O   0  0  0  0  0  0  0  0  0  0  0  0
    1.4179   -6.1469    1.6399 C   0  0  0  0  0  0  0  0  0  0  0  0
    2.5823   -6.5295    1.8645 O   0  0  0  0  0  0  0  0  0  0  0  0
    1.0190   -5.9574    0.1548 C   0  0  0  0  0  0  0  0  0  0  0  0
    1.4155   -5.0315   -0.7463 C   0  0  0  0  0  0  0  0  0  0  0  0
    2.3705   -3.9129   -0.5720 C   0  0  0  0  0  0  0  0  0  0  0  0
    3.0623   -3.5251    0.6046 C   0  0  0  0  0  0  0  0  0  0  0  0
    3.8714   -2.5071    0.4260 N   0  0  0  0  0  0  0  0  0  0  0  0
    3.7254   -2.2045   -0.9024 N   0  0  0  0  0  0  0  0  0  0  0  0
    4.3689   -1.2048   -1.5627 C   0  0  0  0  0  0  0  0  0  0  0  0
    4.1105   -1.0562   -2.9041 C   0  0  0  0  0  0  0  0  0  0  0  0
    3.1873   -1.9437   -3.5133 C   0  0  0  0  0  0  0  0  0  0  0  0
    2.5595   -2.9282   -2.8759 N   0  0  0  0  0  0  0  0  0  0  0  0
    2.8096   -3.0630   -1.5581 C   0  0  0  0  0  0  0  0  0  0  0  0
    0.3138   -6.6957   -0.1807 H   0  0  0  0  0  0  0  0  0  0  0  0
    1.0005   -5.1016   -1.7441 H   0  0  0  0  0  0  0  0  0  0  0  0
    3.0025   -3.9651    1.5869 H   0  0  0  0  0  0  0  0  0  0  0  0
    5.0376   -0.5743   -0.9888 H   0  0  0  0  0  0  0  0  0  0  0  0
    4.5814   -0.2623   -3.4709 H   0  0  0  0  0  0  0  0  0  0  0  0
    2.9598   -1.8285   -4.5716 H   0  0  0  0  0  0  0  0  0  0  0  0
  1  2  2  0
  2  3  1  0
  2  4  1  0
  4  5  2  3
  4 15  1  0
  5  6  1  0
  5 16  1  0
  6 14  2  0
  6  7  1  0
  7  8  2  0
  7 17  1  0
  8  9  1  0
  9 14  1  0
  9 10  1  0
 10 11  2  0
 10 18  1  0
 11 12  1  0
 11 19  1  0
 12 13  2  0
 12 20  1  0
 13 14  1  0
M  CHG  1   3  -1
M  END
>  <i_m_ct_stereo_status>  (127) 
1

>  <s_m_source_file>  (127) 
/var/tmp/pbs.5076255.sched01/tmp0glzbzrw/400n8fk_jm.sdf

>  <i_m_source_file_index>  (127) 
10

>  <i_lp_mmshare_version>  (127) 
48012

>  <i_f3d_flags>  (127) 
0

>  <s_epik_input>  (127) 
Tz1DKFtPSF0pL1tDSF09W0NIXS9jKFtjSF1uMSljKG4xMiluW2NIXVtjSF1bY0hdMg==

>  <s_epik_cmdline>  (127) 
J2VwaWtfcHl0aG9uJywgJy1waHQnLCAnMi4wJywgJy1waCcsICc3LjAnLCAnLXRuJywgJzgnLCAnLW1hJywgJzIwMCcsICctaW1hZScsICc8aW5maWxlLm1hZT4nLCAnLW9tYWUnLCAnPG91dGZpbGUubWFlPic=

>  <r_lp_tautomer_probability>  (127) 
1

>  <r_epik_Ionization_Penalty>  (127) 
1.56799e-06

>  <r_epik_Ionization_Penalty_Charging>  (127) 
1.39855e-06

>  <r_epik_Ionization_Penalty_Neutral>  (127) 
1.69438e-07

>  <r_epik_State_Penalty>  (127) 
-0

>  <r_epik_Charging_Adjusted_Penalty>  (127) 
1.39855e-06

>  <i_epik_Tot_Q>  (127) 
-1

>  <i_epik_Tot_abs_Q>  (127) 
1

>  <s_lp_Force_Field>  (127) 
OPLS3e

>  <r_lp_Energy>  (127) 
24.6264

>  <b_lp_Chiralities_Consistent>  (127) 
1

>  <s_lp_Variant>  (127) 
36:0-2

>  <s_i_glide_gridfile>  (127) 
pfpi4k_grid

>  <i_i_glide_lignum>  (127) 
10

>  <i_i_glide_rotatable_bonds>  (127) 
2

>  <r_i_docking_score>  (127) 
-3.23482

>  <r_i_glide_ligand_efficiency>  (127) 
-0.231059

>  <r_i_glide_ligand_efficiency_sa>  (127) 
-0.556884

>  <r_i_glide_ligand_efficiency_ln>  (127) 
-0.888917

>  <r_i_glide_gscore>  (127) 
-3.23482

>  <r_i_glide_lipo>  (127) 
-0.251021

>  <r_i_glide_hbond>  (127) 
-0.180828

>  <r_i_glide_metal>  (127) 
-0

>  <r_i_glide_rewards>  (127) 
-2.14898

>  <r_i_glide_evdw>  (127) 
-17.3577

>  <r_i_glide_ecoul>  (127) 
-0.80989

>  <r_i_glide_erotb>  (127) 
0.45185

>  <r_i_glide_esite>  (127) 
-0.116479

>  <r_i_glide_emodel>  (127) 
-24.8465

>  <r_i_glide_energy>  (127) 
-18.1676

>  <r_i_glide_einternal>  (127) 
0.15163

>  <r_i_glide_intrahb_reward>  (127) 
-0

>  <i_i_glide_confnum>  (127) 
4

>  <i_i_glide_posenum>  (127) 
25

>  <r_i_glide_eff_state_penalty>  (127) 
0

>  <ligand_id>  (127) 
36

>  <original_smiles>  (127) 
O=C(O)C=Cc1cnn2cccnc12

>  <smiles>  (127) 
[H]C(C(=O)[O-])=C([H])c1c([H])nn2c([H])c([H])c([H])nc12

$$$$
36:1:2
     RDKit          3D

 20 21  0  0  1  0  0  0  0  0999 V2000
   -2.2111   -1.8519    5.6764 O   0  0  0  0  0  0  0  0  0  0  0  0
   -0.9863   -1.6158    5.6563 C   0  0  0  0  0  0  0  0  0  0  0  0
   -0.1304   -1.9246    6.5173 O   0  0  0  0  0  0  0  0  0  0  0  0
   -0.4925   -0.8625    4.4026 C   0  0  0  0  0  0  0  0  0  0  0  0
   -0.6836    0.4330    4.0830 C   0  0  0  0  0  0  0  0  0  0  0  0
   -1.3282    1.4894    4.8856 C   0  0  0  0  0  0  0  0  0  0  0  0
   -2.0945    2.5445    4.3404 C   0  0  0  0  0  0  0  0  0  0  0  0
   -2.5854    3.3539    5.2529 N   0  0  0  0  0  0  0  0  0  0  0  0
   -2.1527    2.8221    6.4420 N   0  0  0  0  0  0  0  0  0  0  0  0
   -2.4008    3.3209    7.6878 C   0  0  0  0  0  0  0  0  0  0  0  0
   -1.8612    2.6491    8.7656 C   0  0  0  0  0  0  0  0  0  0  0  0
   -1.0732    1.5010    8.5183 C   0  0  0  0  0  0  0  0  0  0  0  0
   -0.8485    1.0096    7.3080 N   0  0  0  0  0  0  0  0  0  0  0  0
   -1.3726    1.6587    6.2505 C   0  0  0  0  0  0  0  0  0  0  0  0
    0.0418   -1.4706    3.6897 H   0  0  0  0  0  0  0  0  0  0  0  0
   -0.3124    0.7630    3.1218 H   0  0  0  0  0  0  0  0  0  0  0  0
   -2.3030    2.7242    3.2929 H   0  0  0  0  0  0  0  0  0  0  0  0
   -2.9939    4.2230    7.7735 H   0  0  0  0  0  0  0  0  0  0  0  0
   -2.0388    2.9892    9.7817 H   0  0  0  0  0  0  0  0  0  0  0  0
   -0.6494    0.9367    9.3500 H   0  0  0  0  0  0  0  0  0  0  0  0
  1  2  2  0
  2  3  1  0
  2  4  1  0
  4  5  2  3
  4 15  1  0
  5  6  1  0
  5 16  1  0
  6 14  2  0
  6  7  1  0
  7  8  2  0
  7 17  1  0
  8  9  1  0
  9 14  1  0
  9 10  1  0
 10 11  2  0
 10 18  1  0
 11 12  1  0
 11 19  1  0
 12 13  2  0
 12 20  1  0
 13 14  1  0
M  CHG  1   3  -1
M  END
>  <i_m_ct_stereo_status>  (128) 
1

>  <s_m_source_file>  (128) 
/var/tmp/pbs.5076255.sched01/tmp0glzbzrw/400n8fk_jm.sdf

>  <i_m_source_file_index>  (128) 
10

>  <i_lp_mmshare_version>  (128) 
48012

>  <i_f3d_flags>  (128) 
0

>  <s_epik_input>  (128) 
Tz1DKFtPSF0pL1tDSF09W0NIXS9jKFtjSF1uMSljKG4xMiluW2NIXVtjSF1bY0hdMg==

>  <s_epik_cmdline>  (128) 
J2VwaWtfcHl0aG9uJywgJy1waHQnLCAnMi4wJywgJy1waCcsICc3LjAnLCAnLXRuJywgJzgnLCAnLW1hJywgJzIwMCcsICctaW1hZScsICc8aW5maWxlLm1hZT4nLCAnLW9tYWUnLCAnPG91dGZpbGUubWFlPic=

>  <r_lp_tautomer_probability>  (128) 
1

>  <r_epik_Ionization_Penalty>  (128) 
1.56799e-06

>  <r_epik_Ionization_Penalty_Charging>  (128) 
1.39855e-06

>  <r_epik_Ionization_Penalty_Neutral>  (128) 
1.69438e-07

>  <r_epik_State_Penalty>  (128) 
-0

>  <r_epik_Charging_Adjusted_Penalty>  (128) 
1.39855e-06

>  <i_epik_Tot_Q>  (128) 
-1

>  <i_epik_Tot_abs_Q>  (128) 
1

>  <s_lp_Force_Field>  (128) 
OPLS3e

>  <r_lp_Energy>  (128) 
24.6264

>  <b_lp_Chiralities_Consistent>  (128) 
1

>  <s_lp_Variant>  (128) 
36:0-2

>  <s_i_glide_gridfile>  (128) 
pfpi4k_grid

>  <i_i_glide_lignum>  (128) 
10

>  <i_i_glide_rotatable_bonds>  (128) 
2

>  <r_i_docking_score>  (128) 
-3.17089

>  <r_i_glide_ligand_efficiency>  (128) 
-0.226492

>  <r_i_glide_ligand_efficiency_sa>  (128) 
-0.545878

>  <r_i_glide_ligand_efficiency_ln>  (128) 
-0.871349

>  <r_i_glide_gscore>  (128) 
-3.17089

>  <r_i_glide_lipo>  (128) 
-0.0883008

>  <r_i_glide_hbond>  (128) 
-0.00150933

>  <r_i_glide_metal>  (128) 
-0

>  <r_i_glide_rewards>  (128) 
-2.26692

>  <r_i_glide_evdw>  (128) 
-14.4006

>  <r_i_glide_ecoul>  (128) 
-3.21252

>  <r_i_glide_erotb>  (128) 
0.45185

>  <r_i_glide_esite>  (128) 
-0.0640943

>  <r_i_glide_emodel>  (128) 
-23.0103

>  <r_i_glide_energy>  (128) 
-17.6132

>  <r_i_glide_einternal>  (128) 
2.56612

>  <r_i_glide_intrahb_reward>  (128) 
-0

>  <i_i_glide_confnum>  (128) 
4

>  <i_i_glide_posenum>  (128) 
29

>  <r_i_glide_eff_state_penalty>  (128) 
0

>  <ligand_id>  (128) 
36

>  <original_smiles>  (128) 
O=C(O)C=Cc1cnn2cccnc12

>  <smiles>  (128) 
[H]C(C(=O)[O-])=C([H])c1c([H])nn2c([H])c([H])c([H])nc12

$$$$
38:0:0
     RDKit          3D

 35 38  0  0  1  0  0  0  0  0999 V2000
    4.8579   -1.9797    3.0951 C   0  0  0  0  0  0  0  0  0  0  0  0
    4.6911   -2.2239    1.5802 C   0  0  2  0  0  0  0  0  0  0  0  0
    3.6912   -3.3719    1.3593 C   0  0  0  0  0  0  0  0  0  0  0  0
    2.9716   -3.3063   -0.0043 C   0  0  0  0  0  0  0  0  0  0  0  0
    3.9081   -3.4335   -1.2193 C   0  0  1  0  0  0  0  0  0  0  0  0
    3.4828   -2.6898   -2.4868 C   0  0  2  0  0  0  0  0  0  0  0  0
    2.0925   -3.0395   -3.0128 C   0  0  0  0  0  0  0  0  0  0  0  0
    4.5932   -3.1383   -3.4540 C   0  0  0  0  0  0  0  0  0  0  0  0
    5.8243   -3.2250   -2.5359 C   0  0  0  0  0  0  0  0  0  0  0  0
    5.2793   -2.7703   -1.1669 C   0  0  2  0  0  0  0  0  0  0  0  0
    6.0404   -3.3321   -0.1060 O   0  0  0  0  0  0  0  0  0  0  0  0
    6.0292   -2.4414    1.1114 O   0  0  0  0  0  0  0  0  0  0  0  0
    5.0295   -1.2379   -1.2694 C   0  0  2  0  0  0  0  0  0  0  0  0
    5.0766   -0.5394   -0.0246 O   0  0  0  0  0  0  0  0  0  0  0  0
    4.1084   -1.1028    0.9612 O   0  0  0  0  0  0  0  0  0  0  0  0
    3.6933   -1.1967   -2.0773 C   0  0  1  0  0  0  0  0  0  0  0  0
    3.7771   -0.3487   -3.2113 O   0  0  0  0  0  0  0  0  0  0  0  0
    5.6090   -1.2217    3.3018 H   0  0  0  0  0  0  0  0  0  0  0  0
    5.1690   -2.9004    3.5988 H   0  0  0  0  0  0  0  0  0  0  0  0
    3.9143   -1.6653    3.5545 H   0  0  0  0  0  0  0  0  0  0  0  0
    4.1188   -4.3625    1.5476 H   0  0  0  0  0  0  0  0  0  0  0  0
    2.8824   -3.2546    2.0936 H   0  0  0  0  0  0  0  0  0  0  0  0
    2.2227   -4.0926   -0.0634 H   0  0  0  0  0  0  0  0  0  0  0  0
    2.3840   -2.3933   -0.0423 H   0  0  0  0  0  0  0  0  0  0  0  0
    4.0470   -4.5043   -1.3850 H   0  0  0  0  0  0  0  0  0  0  0  0
    1.8858   -2.5433   -3.9574 H   0  0  0  0  0  0  0  0  0  0  0  0
    1.3222   -2.7414   -2.3101 H   0  0  0  0  0  0  0  0  0  0  0  0
    1.9860   -4.1080   -3.1743 H   0  0  0  0  0  0  0  0  0  0  0  0
    4.3794   -4.1245   -3.8638 H   0  0  0  0  0  0  0  0  0  0  0  0
    4.7014   -2.4548   -4.2940 H   0  0  0  0  0  0  0  0  0  0  0  0
    6.1466   -4.2635   -2.4726 H   0  0  0  0  0  0  0  0  0  0  0  0
    6.6734   -2.6581   -2.9021 H   0  0  0  0  0  0  0  0  0  0  0  0
    5.8141   -0.7766   -1.8780 H   0  0  0  0  0  0  0  0  0  0  0  0
    2.8715   -0.8411   -1.4565 H   0  0  0  0  0  0  0  0  0  0  0  0
    3.1423    0.3611   -3.0959 H   0  0  0  0  0  0  0  0  0  0  0  0
  2  1  1  1
  1 18  1  0
  1 19  1  0
  1 20  1  0
  2 12  1  0
  2 15  1  0
  2  3  1  0
  3  4  1  0
  3 21  1  0
  3 22  1  0
  4  5  1  0
  4 23  1  0
  4 24  1  0
  5 10  1  0
  5  6  1  0
  5 25  1  6
  6 16  1  0
  6  7  1  6
  6  8  1  0
  7 26  1  0
  7 27  1  0
  7 28  1  0
  8  9  1  0
  8 29  1  0
  8 30  1  0
 10  9  1  6
  9 31  1  0
  9 32  1  0
 10 11  1  0
 10 13  1  0
 11 12  1  0
 13 14  1  0
 13 16  1  0
 13 33  1  6
 14 15  1  0
 16 17  1  0
 16 34  1  1
 17 35  1  0
M  END
>  <i_m_ct_stereo_status>  (129) 
1

>  <s_m_source_file>  (129) 
/var/tmp/pbs.5076255.sched01/tmp0glzbzrw/400n8fk_jm.sdf

>  <i_m_source_file_index>  (129) 
12

>  <i_lp_mmshare_version>  (129) 
48012

>  <i_f3d_flags>  (129) 
0

>  <s_epik_input>  (129) 
W0NIMl0xW0NIMl1bQ0BAXShbQ0gzXSkoT08yKU9PW0NAQEhdM1tDQEBIXShbT0hdKVtDQEBdKFtDQEhdMVtDQF0yMzQpKFtDSDNdKVtDSDJdW0NIMl00

>  <s_epik_cmdline>  (129) 
J2VwaWtfcHl0aG9uJywgJy1waHQnLCAnMi4wJywgJy1waCcsICc3LjAnLCAnLXRuJywgJzgnLCAnLW1hJywgJzIwMCcsICctaW1hZScsICc8aW5maWxlLm1hZT4nLCAnLW9tYWUnLCAnPG91dGZpbGUubWFlPic=

>  <r_lp_tautomer_probability>  (129) 
1

>  <r_epik_Ionization_Penalty>  (129) 
2.09967e-07

>  <r_epik_Ionization_Penalty_Charging>  (129) 
0

>  <r_epik_Ionization_Penalty_Neutral>  (129) 
2.09967e-07

>  <r_epik_State_Penalty>  (129) 
-0

>  <r_epik_Charging_Adjusted_Penalty>  (129) 
0

>  <i_epik_Tot_Q>  (129) 
0

>  <i_epik_Tot_abs_Q>  (129) 
0

>  <s_lp_Force_Field>  (129) 
OPLS3e

>  <r_lp_Energy>  (129) 
37.4593

>  <b_lp_Chiralities_Consistent>  (129) 
1

>  <s_lp_Variant>  (129) 
38:0-1

>  <s_i_glide_gridfile>  (129) 
pfpi4k_grid

>  <i_i_glide_lignum>  (129) 
12

>  <i_i_glide_rotatable_bonds>  (129) 
1

>  <r_i_docking_score>  (129) 
-4.00472

>  <r_i_glide_ligand_efficiency>  (129) 
-0.235572

>  <r_i_glide_ligand_efficiency_sa>  (129) 
-0.605721

>  <r_i_glide_ligand_efficiency_ln>  (129) 
-1.04474

>  <r_i_glide_gscore>  (129) 
-4.00472

>  <r_i_glide_lipo>  (129) 
-0.689802

>  <r_i_glide_hbond>  (129) 
0

>  <r_i_glide_metal>  (129) 
-0

>  <r_i_glide_rewards>  (129) 
-1.79647

>  <r_i_glide_evdw>  (129) 
-21.9084

>  <r_i_glide_ecoul>  (129) 
-2.82019

>  <r_i_glide_erotb>  (129) 
0

>  <r_i_glide_esite>  (129) 
0

>  <r_i_glide_emodel>  (129) 
-29.603

>  <r_i_glide_energy>  (129) 
-24.7286

>  <r_i_glide_einternal>  (129) 
1.44423

>  <r_i_glide_intrahb_reward>  (129) 
-0

>  <i_i_glide_confnum>  (129) 
1

>  <i_i_glide_posenum>  (129) 
8

>  <r_i_glide_eff_state_penalty>  (129) 
0

>  <ligand_id>  (129) 
38

>  <original_smiles>  (129) 
CC12CCC3C4(C)CCC3(OO1)C(OO2)C4O

>  <smiles>  (129) 
[H]OC1([H])C2([H])OOC3(C([H])([H])[H])OOC24C([H])([H])C([H])([H])C1(C([H])([H])[H])C4([H])C([H])([H])C3([H])[H]

$$$$
38:0:1
     RDKit          3D

 35 38  0  0  1  0  0  0  0  0999 V2000
    3.8882   -1.5021   -4.0329 C   0  0  0  0  0  0  0  0  0  0  0  0
    4.2299   -1.9249   -2.5870 C   0  0  2  0  0  0  0  0  0  0  0  0
    3.0809   -2.7993   -2.0491 C   0  0  0  0  0  0  0  0  0  0  0  0
    3.4977   -3.7551   -0.9143 C   0  0  0  0  0  0  0  0  0  0  0  0
    4.0140   -3.0560    0.3544 C   0  0  1  0  0  0  0  0  0  0  0  0
    5.0762   -3.8197    1.1490 C   0  0  2  0  0  0  0  0  0  0  0  0
    4.6679   -5.2357    1.5860 C   0  0  0  0  0  0  0  0  0  0  0  0
    5.2609   -2.8477    2.3395 C   0  0  0  0  0  0  0  0  0  0  0  0
    5.1104   -1.4577    1.6900 C   0  0  0  0  0  0  0  0  0  0  0  0
    4.8861   -1.8073    0.1995 C   0  0  2  0  0  0  0  0  0  0  0  0
    4.1565   -0.7732   -0.4420 O   0  0  0  0  0  0  0  0  0  0  0  0
    4.4877   -0.6838   -1.9134 O   0  0  0  0  0  0  0  0  0  0  0  0
    6.2573   -2.2981   -0.3512 C   0  0  2  0  0  0  0  0  0  0  0  0
    6.4603   -2.1256   -1.7584 O   0  0  0  0  0  0  0  0  0  0  0  0
    5.3643   -2.7694   -2.5756 O   0  0  0  0  0  0  0  0  0  0  0  0
    6.3113   -3.7545    0.1968 C   0  0  1  0  0  0  0  0  0  0  0  0
    7.5221   -4.0212    0.8719 O   0  0  0  0  0  0  0  0  0  0  0  0
    4.6412   -0.8380   -4.4463 H   0  0  0  0  0  0  0  0  0  0  0  0
    2.9343   -0.9730   -4.0692 H   0  0  0  0  0  0  0  0  0  0  0  0
    3.7985   -2.3753   -4.6803 H   0  0  0  0  0  0  0  0  0  0  0  0
    2.2118   -2.2121   -1.7709 H   0  0  0  0  0  0  0  0  0  0  0  0
    2.7391   -3.4562   -2.8593 H   0  0  0  0  0  0  0  0  0  0  0  0
    2.6433   -4.3717   -0.6434 H   0  0  0  0  0  0  0  0  0  0  0  0
    4.2112   -4.4705   -1.3072 H   0  0  0  0  0  0  0  0  0  0  0  0
    3.1374   -2.8063    0.9548 H   0  0  0  0  0  0  0  0  0  0  0  0
    5.4292   -5.6826    2.2193 H   0  0  0  0  0  0  0  0  0  0  0  0
    4.5157   -5.8920    0.7312 H   0  0  0  0  0  0  0  0  0  0  0  0
    3.7407   -5.2168    2.1555 H   0  0  0  0  0  0  0  0  0  0  0  0
    4.4805   -2.9918    3.0860 H   0  0  0  0  0  0  0  0  0  0  0  0
    6.2163   -2.9723    2.8444 H   0  0  0  0  0  0  0  0  0  0  0  0
    4.2343   -0.9478    2.1007 H   0  0  0  0  0  0  0  0  0  0  0  0
    5.9835   -0.8239    1.8682 H   0  0  0  0  0  0  0  0  0  0  0  0
    7.0633   -1.7104    0.1002 H   0  0  0  0  0  0  0  0  0  0  0  0
    6.2235   -4.4789   -0.6129 H   0  0  0  0  0  0  0  0  0  0  0  0
    7.4662   -4.9026    1.2327 H   0  0  0  0  0  0  0  0  0  0  0  0
  2  1  1  6
  1 18  1  0
  1 19  1  0
  1 20  1  0
  2 12  1  0
  2 15  1  0
  2  3  1  0
  3  4  1  0
  3 21  1  0
  3 22  1  0
  4  5  1  0
  4 23  1  0
  4 24  1  0
  5 10  1  0
  5  6  1  0
  5 25  1  1
  6 16  1  0
  6  7  1  1
  6  8  1  0
  7 26  1  0
  7 27  1  0
  7 28  1  0
  8  9  1  0
  8 29  1  0
  8 30  1  0
 10  9  1  1
  9 31  1  0
  9 32  1  0
 10 11  1  0
 10 13  1  0
 11 12  1  0
 13 14  1  0
 13 16  1  0
 13 33  1  1
 14 15  1  0
 16 17  1  0
 16 34  1  6
 17 35  1  0
M  END
>  <i_m_ct_stereo_status>  (130) 
1

>  <s_m_source_file>  (130) 
/var/tmp/pbs.5076255.sched01/tmp0glzbzrw/400n8fk_jm.sdf

>  <i_m_source_file_index>  (130) 
12

>  <i_lp_mmshare_version>  (130) 
48012

>  <i_f3d_flags>  (130) 
0

>  <s_epik_input>  (130) 
W0NIMl0xW0NIMl1bQ0BAXShbQ0gzXSkoT08yKU9PW0NAQEhdM1tDQEBIXShbT0hdKVtDQEBdKFtDQEhdMVtDQF0yMzQpKFtDSDNdKVtDSDJdW0NIMl00

>  <s_epik_cmdline>  (130) 
J2VwaWtfcHl0aG9uJywgJy1waHQnLCAnMi4wJywgJy1waCcsICc3LjAnLCAnLXRuJywgJzgnLCAnLW1hJywgJzIwMCcsICctaW1hZScsICc8aW5maWxlLm1hZT4nLCAnLW9tYWUnLCAnPG91dGZpbGUubWFlPic=

>  <r_lp_tautomer_probability>  (130) 
1

>  <r_epik_Ionization_Penalty>  (130) 
2.09967e-07

>  <r_epik_Ionization_Penalty_Charging>  (130) 
0

>  <r_epik_Ionization_Penalty_Neutral>  (130) 
2.09967e-07

>  <r_epik_State_Penalty>  (130) 
-0

>  <r_epik_Charging_Adjusted_Penalty>  (130) 
0

>  <i_epik_Tot_Q>  (130) 
0

>  <i_epik_Tot_abs_Q>  (130) 
0

>  <s_lp_Force_Field>  (130) 
OPLS3e

>  <r_lp_Energy>  (130) 
37.4593

>  <b_lp_Chiralities_Consistent>  (130) 
1

>  <s_lp_Variant>  (130) 
38:0-1

>  <s_i_glide_gridfile>  (130) 
pfpi4k_grid

>  <i_i_glide_lignum>  (130) 
12

>  <i_i_glide_rotatable_bonds>  (130) 
1

>  <r_i_docking_score>  (130) 
-3.48193

>  <r_i_glide_ligand_efficiency>  (130) 
-0.204819

>  <r_i_glide_ligand_efficiency_sa>  (130) 
-0.526648

>  <r_i_glide_ligand_efficiency_ln>  (130) 
-0.908358

>  <r_i_glide_gscore>  (130) 
-3.48193

>  <r_i_glide_lipo>  (130) 
-0.316696

>  <r_i_glide_hbond>  (130) 
-0.16

>  <r_i_glide_metal>  (130) 
-0

>  <r_i_glide_rewards>  (130) 
-1.76607

>  <r_i_glide_evdw>  (130) 
-22.2704

>  <r_i_glide_ecoul>  (130) 
-0.837586

>  <r_i_glide_erotb>  (130) 
0

>  <r_i_glide_esite>  (130) 
0

>  <r_i_glide_emodel>  (130) 
-27.7121

>  <r_i_glide_energy>  (130) 
-23.108

>  <r_i_glide_einternal>  (130) 
0.319141

>  <r_i_glide_intrahb_reward>  (130) 
-0

>  <i_i_glide_confnum>  (130) 
2

>  <i_i_glide_posenum>  (130) 
22

>  <r_i_glide_eff_state_penalty>  (130) 
0

>  <ligand_id>  (130) 
38

>  <original_smiles>  (130) 
CC12CCC3C4(C)CCC3(OO1)C(OO2)C4O

>  <smiles>  (130) 
[H]OC1([H])C2([H])OOC3(C([H])([H])[H])OOC24C([H])([H])C([H])([H])C1(C([H])([H])[H])C4([H])C([H])([H])C3([H])[H]

$$$$
38:0:2
     RDKit          3D

 35 38  0  0  1  0  0  0  0  0999 V2000
    4.1010   -1.1338   -4.3405 C   0  0  0  0  0  0  0  0  0  0  0  0
    4.2446   -1.7198   -2.9180 C   0  0  2  0  0  0  0  0  0  0  0  0
    2.9021   -2.3256   -2.5359 C   0  0  0  0  0  0  0  0  0  0  0  0
    2.9810   -3.4110   -1.4529 C   0  0  0  0  0  0  0  0  0  0  0  0
    3.5357   -2.9471   -0.1009 C   0  0  1  0  0  0  0  0  0  0  0  0
    4.3384   -3.9777    0.6928 C   0  0  2  0  0  0  0  0  0  0  0  0
    3.5930   -5.2869    0.9821 C   0  0  0  0  0  0  0  0  0  0  0  0
    4.6433   -3.1497    1.9681 C   0  0  0  0  0  0  0  0  0  0  0  0
    4.8494   -1.7223    1.4285 C   0  0  0  0  0  0  0  0  0  0  0  0
    4.6709   -1.9186   -0.0970 C   0  0  2  0  0  0  0  0  0  0  0  0
    4.2009   -0.7283   -0.7143 O   0  0  0  0  0  0  0  0  0  0  0  0
    4.7174   -0.6318   -2.1351 O   0  0  0  0  0  0  0  0  0  0  0  0
    5.9451   -2.6604   -0.5911 C   0  0  2  0  0  0  0  0  0  0  0  0
    6.2920   -2.4626   -1.9597 O   0  0  0  0  0  0  0  0  0  0  0  0
    5.1615   -2.7929   -2.9017 O   0  0  0  0  0  0  0  0  0  0  0  0
    5.6315   -4.1232   -0.1700 C   0  0  1  0  0  0  0  0  0  0  0  0
    6.6999   -4.7139    0.5491 O   0  0  0  0  0  0  0  0  0  0  0  0
    5.0096   -0.6622   -4.6739 H   0  0  0  0  0  0  0  0  0  0  0  0
    3.3100   -0.3730   -4.3615 H   0  0  0  0  0  0  0  0  0  0  0  0
    3.8315   -1.9025   -5.0687 H   0  0  0  0  0  0  0  0  0  0  0  0
    2.1962   -1.5314   -2.3081 H   0  0  0  0  0  0  0  0  0  0  0  0
    2.4839   -2.8351   -3.4167 H   0  0  0  0  0  0  0  0  0  0  0  0
    1.9936   -3.8457   -1.3022 H   0  0  0  0  0  0  0  0  0  0  0  0
    3.5595   -4.2392   -1.8484 H   0  0  0  0  0  0  0  0  0  0  0  0
    2.6895   -2.5422    0.4584 H   0  0  0  0  0  0  0  0  0  0  0  0
    4.1825   -5.9345    1.6248 H   0  0  0  0  0  0  0  0  0  0  0  0
    3.3662   -5.8378    0.0707 H   0  0  0  0  0  0  0  0  0  0  0  0
    2.6518   -5.0932    1.4911 H   0  0  0  0  0  0  0  0  0  0  0  0
    3.7850   -3.1594    2.6365 H   0  0  0  0  0  0  0  0  0  0  0  0
    5.4965   -3.5260    2.5284 H   0  0  0  0  0  0  0  0  0  0  0  0
    4.0677   -1.0524    1.8130 H   0  0  0  0  0  0  0  0  0  0  0  0
    5.8279   -1.3111    1.6979 H   0  0  0  0  0  0  0  0  0  0  0  0
    6.8268   -2.2923   -0.0472 H   0  0  0  0  0  0  0  0  0  0  0  0
    5.4595   -4.7559   -1.0446 H   0  0  0  0  0  0  0  0  0  0  0  0
    6.8315   -4.2102    1.3405 H   0  0  0  0  0  0  0  0  0  0  0  0
  2  1  1  6
  1 18  1  0
  1 19  1  0
  1 20  1  0
  2 12  1  0
  2 15  1  0
  2  3  1  0
  3  4  1  0
  3 21  1  0
  3 22  1  0
  4  5  1  0
  4 23  1  0
  4 24  1  0
  5 10  1  0
  5  6  1  0
  5 25  1  1
  6 16  1  0
  6  7  1  1
  6  8  1  0
  7 26  1  0
  7 27  1  0
  7 28  1  0
  8  9  1  0
  8 29  1  0
  8 30  1  0
 10  9  1  1
  9 31  1  0
  9 32  1  0
 10 11  1  0
 10 13  1  0
 11 12  1  0
 13 14  1  0
 13 16  1  0
 13 33  1  1
 14 15  1  0
 16 17  1  0
 16 34  1  6
 17 35  1  0
M  END
>  <i_m_ct_stereo_status>  (131) 
1

>  <s_m_source_file>  (131) 
/var/tmp/pbs.5076255.sched01/tmp0glzbzrw/400n8fk_jm.sdf

>  <i_m_source_file_index>  (131) 
12

>  <i_lp_mmshare_version>  (131) 
48012

>  <i_f3d_flags>  (131) 
0

>  <s_epik_input>  (131) 
W0NIMl0xW0NIMl1bQ0BAXShbQ0gzXSkoT08yKU9PW0NAQEhdM1tDQEBIXShbT0hdKVtDQEBdKFtDQEhdMVtDQF0yMzQpKFtDSDNdKVtDSDJdW0NIMl00

>  <s_epik_cmdline>  (131) 
J2VwaWtfcHl0aG9uJywgJy1waHQnLCAnMi4wJywgJy1waCcsICc3LjAnLCAnLXRuJywgJzgnLCAnLW1hJywgJzIwMCcsICctaW1hZScsICc8aW5maWxlLm1hZT4nLCAnLW9tYWUnLCAnPG91dGZpbGUubWFlPic=

>  <r_lp_tautomer_probability>  (131) 
1

>  <r_epik_Ionization_Penalty>  (131) 
2.09967e-07

>  <r_epik_Ionization_Penalty_Charging>  (131) 
0

>  <r_epik_Ionization_Penalty_Neutral>  (131) 
2.09967e-07

>  <r_epik_State_Penalty>  (131) 
-0

>  <r_epik_Charging_Adjusted_Penalty>  (131) 
0

>  <i_epik_Tot_Q>  (131) 
0

>  <i_epik_Tot_abs_Q>  (131) 
0

>  <s_lp_Force_Field>  (131) 
OPLS3e

>  <r_lp_Energy>  (131) 
37.4593

>  <b_lp_Chiralities_Consistent>  (131) 
1

>  <s_lp_Variant>  (131) 
38:0-1

>  <s_i_glide_gridfile>  (131) 
pfpi4k_grid

>  <i_i_glide_lignum>  (131) 
12

>  <i_i_glide_rotatable_bonds>  (131) 
1

>  <r_i_docking_score>  (131) 
-3.23928

>  <r_i_glide_ligand_efficiency>  (131) 
-0.190546

>  <r_i_glide_ligand_efficiency_sa>  (131) 
-0.489947

>  <r_i_glide_ligand_efficiency_ln>  (131) 
-0.845056

>  <r_i_glide_gscore>  (131) 
-3.23928

>  <r_i_glide_lipo>  (131) 
-0.266694

>  <r_i_glide_hbond>  (131) 
-0.0248063

>  <r_i_glide_metal>  (131) 
-0

>  <r_i_glide_rewards>  (131) 
-1.79461

>  <r_i_glide_evdw>  (131) 
-21.7886

>  <r_i_glide_ecoul>  (131) 
-0.424936

>  <r_i_glide_erotb>  (131) 
0

>  <r_i_glide_esite>  (131) 
0

>  <r_i_glide_emodel>  (131) 
-26.5909

>  <r_i_glide_energy>  (131) 
-22.2135

>  <r_i_glide_einternal>  (131) 
0.00266036

>  <r_i_glide_intrahb_reward>  (131) 
-0

>  <i_i_glide_confnum>  (131) 
2

>  <i_i_glide_posenum>  (131) 
23

>  <r_i_glide_eff_state_penalty>  (131) 
0

>  <ligand_id>  (131) 
38

>  <original_smiles>  (131) 
CC12CCC3C4(C)CCC3(OO1)C(OO2)C4O

>  <smiles>  (131) 
[H]OC1([H])C2([H])OOC3(C([H])([H])[H])OOC24C([H])([H])C([H])([H])C1(C([H])([H])[H])C4([H])C([H])([H])C3([H])[H]

$$$$
39:0:0
     RDKit          3D

 52 56  0  0  1  0  0  0  0  0999 V2000
    2.7795   -2.0809   -3.6333 C   0  0  0  0  0  0  0  0  0  0  0  0
    3.8555   -1.0718   -3.2434 C   0  0  0  0  0  0  0  0  0  0  0  0
    4.5798   -1.7641   -2.2482 O   0  0  0  0  0  0  0  0  0  0  0  0
    4.7388   -3.1004   -2.7029 C   0  0  1  0  0  0  0  0  0  0  0  0
    5.1383   -3.9880   -1.5125 C   0  0  0  0  0  0  0  0  0  0  0  0
    6.3511   -3.5687   -0.8049 N   0  0  0  0  0  0  0  0  0  0  0  0
    7.1704   -2.5909   -1.2983 N   0  0  0  0  0  0  0  0  0  0  0  0
    8.1095   -2.3920   -0.4308 N   0  0  0  0  0  0  0  0  0  0  0  0
    7.9978   -3.2616    0.6212 N   0  0  0  0  0  0  0  0  0  0  0  0
    6.9010   -3.9879    0.3394 C   0  0  0  0  0  0  0  0  0  0  0  0
    6.4483   -5.1085    1.2359 C   0  0  2  0  0  0  0  0  0  0  0  0
    7.3023   -6.3851    1.0692 C   0  0  0  0  0  0  0  0  0  0  0  0
    8.4803   -6.6419    2.0092 C   0  0  0  0  0  0  0  0  0  0  0  0
    8.7384   -6.3836    0.5384 C   0  0  0  0  0  0  0  0  0  0  0  0
    4.9880   -5.3850    1.1442 N   0  0  0  0  0  0  0  0  0  0  0  0
    4.5553   -6.5681    1.8764 C   0  0  0  0  0  0  0  0  0  0  0  0
    3.0883   -6.8604    1.5612 C   0  0  0  0  0  0  0  0  0  0  0  0
    2.2024   -5.6606    1.9644 C   0  0  0  0  0  0  0  0  0  0  0  0
    2.7142   -4.3810    1.3073 C   0  0  0  0  0  0  0  0  0  0  0  0
    4.2188   -4.2170    1.6268 C   0  0  0  0  0  0  0  0  0  0  0  0
    0.8901   -5.8909    1.5638 O   0  0  0  0  0  0  0  0  0  0  0  0
    0.3664   -6.7237    2.5718 C   0  0  0  0  0  0  0  0  0  0  0  0
    1.0901   -6.2008    3.8192 C   0  0  0  0  0  0  0  0  0  0  0  0
    2.2107   -5.4961    3.3353 O   0  0  0  0  0  0  0  0  0  0  0  0
    3.3401   -3.4333   -3.2342 C   0  0  0  0  0  0  0  0  0  0  0  0
    2.5884   -2.0250   -4.6910 H   0  0  0  0  0  0  0  0  0  0  0  0
    1.8482   -1.9099   -3.0930 H   0  0  0  0  0  0  0  0  0  0  0  0
    4.5305   -0.8771   -4.0828 H   0  0  0  0  0  0  0  0  0  0  0  0
    3.4367   -0.1183   -2.9096 H   0  0  0  0  0  0  0  0  0  0  0  0
    5.4670   -3.1050   -3.5266 H   0  0  0  0  0  0  0  0  0  0  0  0
    4.3144   -3.8951   -0.8085 H   0  0  0  0  0  0  0  0  0  0  0  0
    5.2274   -5.0276   -1.8484 H   0  0  0  0  0  0  0  0  0  0  0  0
    6.6427   -4.7703    2.2519 H   0  0  0  0  0  0  0  0  0  0  0  0
    6.7431   -7.2681    0.8097 H   0  0  0  0  0  0  0  0  0  0  0  0
    8.7590   -5.8639    2.7218 H   0  0  0  0  0  0  0  0  0  0  0  0
    8.6141   -7.6632    2.3659 H   0  0  0  0  0  0  0  0  0  0  0  0
    9.0094   -7.2434   -0.0731 H   0  0  0  0  0  0  0  0  0  0  0  0
    9.2610   -5.4578    0.2886 H   0  0  0  0  0  0  0  0  0  0  0  0
    5.0733   -7.4721    1.5800 H   0  0  0  0  0  0  0  0  0  0  0  0
    4.6980   -6.4408    2.9515 H   0  0  0  0  0  0  0  0  0  0  0  0
    2.9562   -7.0345    0.4954 H   0  0  0  0  0  0  0  0  0  0  0  0
    2.7848   -7.7574    2.0872 H   0  0  0  0  0  0  0  0  0  0  0  0
    2.5383   -4.4642    0.2353 H   0  0  0  0  0  0  0  0  0  0  0  0
    2.1428   -3.5154    1.6578 H   0  0  0  0  0  0  0  0  0  0  0  0
    4.3674   -4.0920    2.6956 H   0  0  0  0  0  0  0  0  0  0  0  0
    4.5519   -3.3004    1.1300 H   0  0  0  0  0  0  0  0  0  0  0  0
   -0.7189   -6.6644    2.6471 H   0  0  0  0  0  0  0  0  0  0  0  0
    0.6254   -7.7659    2.3674 H   0  0  0  0  0  0  0  0  0  0  0  0
    0.4748   -5.4965    4.3738 H   0  0  0  0  0  0  0  0  0  0  0  0
    1.4178   -7.0005    4.4808 H   0  0  0  0  0  0  0  0  0  0  0  0
    2.6793   -3.8564   -2.4713 H   0  0  0  0  0  0  0  0  0  0  0  0
    3.3761   -4.1640   -4.0441 H   0  0  0  0  0  0  0  0  0  0  0  0
  1 25  1  0
  1  2  1  0
  1 26  1  0
  1 27  1  0
  2  3  1  0
  2 28  1  0
  2 29  1  0
  3  4  1  0
  4  5  1  0
  4 25  1  0
  4 30  1  6
  5  6  1  0
  5 31  1  0
  5 32  1  0
  6 10  1  0
  6  7  1  0
  7  8  2  0
  8  9  1  0
  9 10  2  0
 10 11  1  0
 11 12  1  0
 11 15  1  0
 11 33  1  1
 12 14  1  0
 12 13  1  0
 12 34  1  0
 13 14  1  0
 13 35  1  0
 13 36  1  0
 14 37  1  0
 14 38  1  0
 15 20  1  0
 15 16  1  0
 16 17  1  0
 16 39  1  0
 16 40  1  0
 17 18  1  0
 17 41  1  0
 17 42  1  0
 18 24  1  0
 18 19  1  0
 18 21  1  0
 19 20  1  0
 19 43  1  0
 19 44  1  0
 20 45  1  0
 20 46  1  0
 21 22  1  0
 22 23  1  0
 22 47  1  0
 22 48  1  0
 23 24  1  0
 23 49  1  0
 23 50  1  0
 25 51  1  0
 25 52  1  0
M  END
>  <i_m_ct_stereo_status>  (132) 
1

>  <s_m_source_file>  (132) 
/var/tmp/pbs.5076255.sched01/tmp0glzbzrw/400n8fk_jm.sdf

>  <i_m_source_file_index>  (132) 
13

>  <i_lp_mmshare_version>  (132) 
48012

>  <i_f3d_flags>  (132) 
0

>  <s_epik_input>  (132) 
W0NIMl0xW0NIMl1bQ0gyXU9bQ0BIXTFbQ0gyXW4ybm5uYzJbQ0BIXShbQ0hdM1tDSDJdW0NIMl0zKU4oW0NIMl1bQ0gyXTQpW0NIMl1bQ0gyXUM0NU9bQ0gyXVtDSDJdTzU=

>  <s_epik_cmdline>  (132) 
J2VwaWtfcHl0aG9uJywgJy1waHQnLCAnMi4wJywgJy1waCcsICc3LjAnLCAnLXRuJywgJzgnLCAnLW1hJywgJzIwMCcsICctaW1hZScsICc8aW5maWxlLm1hZT4nLCAnLW9tYWUnLCAnPG91dGZpbGUubWFlPic=

>  <r_lp_tautomer_probability>  (132) 
1

>  <r_epik_Ionization_Penalty>  (132) 
0.0282922

>  <r_epik_Ionization_Penalty_Charging>  (132) 
0

>  <r_epik_Ionization_Penalty_Neutral>  (132) 
0.0282922

>  <r_epik_State_Penalty>  (132) 
0.0232071

>  <r_epik_Charging_Adjusted_Penalty>  (132) 
0.0232071

>  <i_epik_Tot_Q>  (132) 
0

>  <i_epik_Tot_abs_Q>  (132) 
0

>  <s_lp_Force_Field>  (132) 
OPLS3e

>  <r_lp_Energy>  (132) 
5.03934

>  <b_lp_Chiralities_Consistent>  (132) 
1

>  <s_lp_Variant>  (132) 
39:0-1

>  <s_i_glide_gridfile>  (132) 
pfpi4k_grid

>  <i_i_glide_lignum>  (132) 
13

>  <i_i_glide_rotatable_bonds>  (132) 
5

>  <r_i_docking_score>  (132) 
-3.43044

>  <r_i_glide_ligand_efficiency>  (132) 
-0.137218

>  <r_i_glide_ligand_efficiency_sa>  (132) 
-0.401227

>  <r_i_glide_ligand_efficiency_ln>  (132) 
-0.813118

>  <r_i_glide_gscore>  (132) 
-3.43044

>  <r_i_glide_lipo>  (132) 
-0.765159

>  <r_i_glide_hbond>  (132) 
-0.146612

>  <r_i_glide_metal>  (132) 
-0

>  <r_i_glide_rewards>  (132) 
-1.33111

>  <r_i_glide_evdw>  (132) 
-25.2531

>  <r_i_glide_ecoul>  (132) 
-3.96911

>  <r_i_glide_erotb>  (132) 
0.780043

>  <r_i_glide_esite>  (132) 
-0.109581

>  <r_i_glide_emodel>  (132) 
-30.2896

>  <r_i_glide_energy>  (132) 
-29.2222

>  <r_i_glide_einternal>  (132) 
7.25633

>  <r_i_glide_intrahb_reward>  (132) 
-0

>  <i_i_glide_confnum>  (132) 
4

>  <i_i_glide_posenum>  (132) 
40

>  <r_i_glide_eff_state_penalty>  (132) 
0

>  <ligand_id>  (132) 
39

>  <original_smiles>  (132) 
C1COC(Cn2nnnc2C(C2CC2)N2CCC3(CC2)OCCO3)C1

>  <smiles>  (132) 
[H]C1([H])OC2(OC1([H])[H])C([H])([H])C([H])([H])N(C([H])(c1nnnn1C([H])([H])C1([H])OC([H])([H])C([H])([H])C1([H])[H])C1([H])C([H])([H])C1([H])[H])C([H])([H])C2([H])[H]

$$$$
39:0:1
     RDKit          3D

 52 56  0  0  1  0  0  0  0  0999 V2000
    2.7733   -0.9014   -3.5103 C   0  0  0  0  0  0  0  0  0  0  0  0
    4.2199   -0.4623   -3.5755 C   0  0  0  0  0  0  0  0  0  0  0  0
    4.8536   -1.2626   -2.5931 O   0  0  0  0  0  0  0  0  0  0  0  0
    4.3255   -2.5769   -2.7232 C   0  0  1  0  0  0  0  0  0  0  0  0
    4.6613   -3.4574   -1.5048 C   0  0  0  0  0  0  0  0  0  0  0  0
    6.0067   -3.2174   -0.9728 N   0  0  0  0  0  0  0  0  0  0  0  0
    7.0675   -3.0542   -1.8083 N   0  0  0  0  0  0  0  0  0  0  0  0
    8.1277   -2.8931   -1.0719 N   0  0  0  0  0  0  0  0  0  0  0  0
    7.8088   -2.9451    0.2662 N   0  0  0  0  0  0  0  0  0  0  0  0
    6.4925   -3.1222    0.2811 C   0  0  0  0  0  0  0  0  0  0  0  0
    5.6836   -3.1797    1.5439 C   0  0  2  0  0  0  0  0  0  0  0  0
    5.3819   -4.6264    1.9368 C   0  0  0  0  0  0  0  0  0  0  0  0
    5.5217   -5.0984    3.3753 C   0  0  0  0  0  0  0  0  0  0  0  0
    6.5161   -5.5518    2.3437 C   0  0  0  0  0  0  0  0  0  0  0  0
    4.4638   -2.3514    1.4753 N   0  0  0  0  0  0  0  0  0  0  0  0
    3.6399   -2.4826    2.6718 C   0  0  0  0  0  0  0  0  0  0  0  0
    2.3252   -1.7160    2.5159 C   0  0  0  0  0  0  0  0  0  0  0  0
    2.6120   -0.2267    2.2648 C   0  0  0  0  0  0  0  0  0  0  0  0
    3.5586   -0.0788    1.0661 C   0  0  0  0  0  0  0  0  0  0  0  0
    4.8156   -0.9403    1.2713 C   0  0  0  0  0  0  0  0  0  0  0  0
    1.4252    0.4413    2.0032 O   0  0  0  0  0  0  0  0  0  0  0  0
    0.8744    0.7019    3.2739 C   0  0  0  0  0  0  0  0  0  0  0  0
    2.1275    0.9258    4.1265 C   0  0  0  0  0  0  0  0  0  0  0  0
    3.1845    0.3333    3.3950 O   0  0  0  0  0  0  0  0  0  0  0  0
    2.8283   -2.3094   -2.9276 C   0  0  0  0  0  0  0  0  0  0  0  0
    2.2970   -0.8575   -4.4890 H   0  0  0  0  0  0  0  0  0  0  0  0
    2.2349   -0.2524   -2.8203 H   0  0  0  0  0  0  0  0  0  0  0  0
    4.6256   -0.6744   -4.5670 H   0  0  0  0  0  0  0  0  0  0  0  0
    4.3444    0.6014   -3.3684 H   0  0  0  0  0  0  0  0  0  0  0  0
    4.7496   -3.0153   -3.6338 H   0  0  0  0  0  0  0  0  0  0  0  0
    3.9237   -3.2477   -0.7331 H   0  0  0  0  0  0  0  0  0  0  0  0
    4.5608   -4.5190   -1.7445 H   0  0  0  0  0  0  0  0  0  0  0  0
    6.3253   -2.7714    2.3317 H   0  0  0  0  0  0  0  0  0  0  0  0
    4.6020   -5.0919    1.3402 H   0  0  0  0  0  0  0  0  0  0  0  0
    5.8585   -4.3722    4.1119 H   0  0  0  0  0  0  0  0  0  0  0  0
    4.8074   -5.8410    3.7302 H   0  0  0  0  0  0  0  0  0  0  0  0
    6.4539   -6.5918    2.0251 H   0  0  0  0  0  0  0  0  0  0  0  0
    7.5187   -5.1352    2.4078 H   0  0  0  0  0  0  0  0  0  0  0  0
    3.3497   -3.5193    2.8485 H   0  0  0  0  0  0  0  0  0  0  0  0
    4.1854   -2.1472    3.5548 H   0  0  0  0  0  0  0  0  0  0  0  0
    1.7430   -2.1011    1.6814 H   0  0  0  0  0  0  0  0  0  0  0  0
    1.7370   -1.8556    3.4165 H   0  0  0  0  0  0  0  0  0  0  0  0
    3.0351   -0.3870    0.1596 H   0  0  0  0  0  0  0  0  0  0  0  0
    3.8301    0.9628    0.9380 H   0  0  0  0  0  0  0  0  0  0  0  0
    5.4056   -0.5665    2.1089 H   0  0  0  0  0  0  0  0  0  0  0  0
    5.4260   -0.8196    0.3744 H   0  0  0  0  0  0  0  0  0  0  0  0
    0.1907    1.5492    3.2739 H   0  0  0  0  0  0  0  0  0  0  0  0
    0.3163   -0.1732    3.6141 H   0  0  0  0  0  0  0  0  0  0  0  0
    2.3313    1.9878    4.2593 H   0  0  0  0  0  0  0  0  0  0  0  0
    2.0449    0.4618    5.1091 H   0  0  0  0  0  0  0  0  0  0  0  0
    2.2923   -2.3130   -1.9775 H   0  0  0  0  0  0  0  0  0  0  0  0
    2.3551   -3.0586   -3.5612 H   0  0  0  0  0  0  0  0  0  0  0  0
  1 25  1  0
  1  2  1  0
  1 26  1  0
  1 27  1  0
  2  3  1  0
  2 28  1  0
  2 29  1  0
  3  4  1  0
  4  5  1  0
  4 25  1  0
  4 30  1  6
  5  6  1  0
  5 31  1  0
  5 32  1  0
  6 10  1  0
  6  7  1  0
  7  8  2  0
  8  9  1  0
  9 10  2  0
 10 11  1  0
 11 12  1  0
 11 15  1  0
 11 33  1  1
 12 14  1  0
 12 13  1  0
 12 34  1  0
 13 14  1  0
 13 35  1  0
 13 36  1  0
 14 37  1  0
 14 38  1  0
 15 20  1  0
 15 16  1  0
 16 17  1  0
 16 39  1  0
 16 40  1  0
 17 18  1  0
 17 41  1  0
 17 42  1  0
 18 24  1  0
 18 19  1  0
 18 21  1  0
 19 20  1  0
 19 43  1  0
 19 44  1  0
 20 45  1  0
 20 46  1  0
 21 22  1  0
 22 23  1  0
 22 47  1  0
 22 48  1  0
 23 24  1  0
 23 49  1  0
 23 50  1  0
 25 51  1  0
 25 52  1  0
M  END
>  <i_m_ct_stereo_status>  (133) 
1

>  <s_m_source_file>  (133) 
/var/tmp/pbs.5076255.sched01/tmp0glzbzrw/400n8fk_jm.sdf

>  <i_m_source_file_index>  (133) 
13

>  <i_lp_mmshare_version>  (133) 
48012

>  <i_f3d_flags>  (133) 
0

>  <s_epik_input>  (133) 
W0NIMl0xW0NIMl1bQ0gyXU9bQ0BIXTFbQ0gyXW4ybm5uYzJbQ0BIXShbQ0hdM1tDSDJdW0NIMl0zKU4oW0NIMl1bQ0gyXTQpW0NIMl1bQ0gyXUM0NU9bQ0gyXVtDSDJdTzU=

>  <s_epik_cmdline>  (133) 
J2VwaWtfcHl0aG9uJywgJy1waHQnLCAnMi4wJywgJy1waCcsICc3LjAnLCAnLXRuJywgJzgnLCAnLW1hJywgJzIwMCcsICctaW1hZScsICc8aW5maWxlLm1hZT4nLCAnLW9tYWUnLCAnPG91dGZpbGUubWFlPic=

>  <r_lp_tautomer_probability>  (133) 
1

>  <r_epik_Ionization_Penalty>  (133) 
0.0282922

>  <r_epik_Ionization_Penalty_Charging>  (133) 
0

>  <r_epik_Ionization_Penalty_Neutral>  (133) 
0.0282922

>  <r_epik_State_Penalty>  (133) 
0.0232071

>  <r_epik_Charging_Adjusted_Penalty>  (133) 
0.0232071

>  <i_epik_Tot_Q>  (133) 
0

>  <i_epik_Tot_abs_Q>  (133) 
0

>  <s_lp_Force_Field>  (133) 
OPLS3e

>  <r_lp_Energy>  (133) 
5.03934

>  <b_lp_Chiralities_Consistent>  (133) 
1

>  <s_lp_Variant>  (133) 
39:0-1

>  <s_i_glide_gridfile>  (133) 
pfpi4k_grid

>  <i_i_glide_lignum>  (133) 
13

>  <i_i_glide_rotatable_bonds>  (133) 
5

>  <r_i_docking_score>  (133) 
-2.87918

>  <r_i_glide_ligand_efficiency>  (133) 
-0.115167

>  <r_i_glide_ligand_efficiency_sa>  (133) 
-0.336751

>  <r_i_glide_ligand_efficiency_ln>  (133) 
-0.682453

>  <r_i_glide_gscore>  (133) 
-2.87918

>  <r_i_glide_lipo>  (133) 
-0.687268

>  <r_i_glide_hbond>  (133) 
0

>  <r_i_glide_metal>  (133) 
-0

>  <r_i_glide_rewards>  (133) 
-1.26618

>  <r_i_glide_evdw>  (133) 
-27.6056

>  <r_i_glide_ecoul>  (133) 
-1.68033

>  <r_i_glide_erotb>  (133) 
0.780043

>  <r_i_glide_esite>  (133) 
-0.0734477

>  <r_i_glide_emodel>  (133) 
-33.535

>  <r_i_glide_energy>  (133) 
-29.2859

>  <r_i_glide_einternal>  (133) 
2.33425

>  <r_i_glide_intrahb_reward>  (133) 
-0

>  <i_i_glide_confnum>  (133) 
4

>  <i_i_glide_posenum>  (133) 
32

>  <r_i_glide_eff_state_penalty>  (133) 
0

>  <ligand_id>  (133) 
39

>  <original_smiles>  (133) 
C1COC(Cn2nnnc2C(C2CC2)N2CCC3(CC2)OCCO3)C1

>  <smiles>  (133) 
[H]C1([H])OC2(OC1([H])[H])C([H])([H])C([H])([H])N(C([H])(c1nnnn1C([H])([H])C1([H])OC([H])([H])C([H])([H])C1([H])[H])C1([H])C([H])([H])C1([H])[H])C([H])([H])C2([H])[H]

$$$$
39:0:2
     RDKit          3D

 52 56  0  0  1  0  0  0  0  0999 V2000
    3.2676   -1.8461   -3.2538 C   0  0  0  0  0  0  0  0  0  0  0  0
    4.5934   -1.5787   -2.5479 C   0  0  0  0  0  0  0  0  0  0  0  0
    4.4063   -2.1052   -1.2566 O   0  0  0  0  0  0  0  0  0  0  0  0
    3.6816   -3.3183   -1.3820 C   0  0  1  0  0  0  0  0  0  0  0  0
    3.0776   -3.7665   -0.0392 C   0  0  0  0  0  0  0  0  0  0  0  0
    3.9701   -3.5702    1.0999 N   0  0  0  0  0  0  0  0  0  0  0  0
    4.2901   -2.3020    1.5029 N   0  0  0  0  0  0  0  0  0  0  0  0
    5.1321   -2.4064    2.4869 N   0  0  0  0  0  0  0  0  0  0  0  0
    5.3436   -3.7254    2.8062 N   0  0  0  0  0  0  0  0  0  0  0  0
    4.5570   -4.3917    1.9655 C   0  0  0  0  0  0  0  0  0  0  0  0
    4.3465   -5.8751    2.0395 C   0  0  2  0  0  0  0  0  0  0  0  0
    5.2227   -6.5930    1.0162 C   0  0  0  0  0  0  0  0  0  0  0  0
    5.8356   -7.9514    1.3247 C   0  0  0  0  0  0  0  0  0  0  0  0
    6.7131   -6.7328    1.2788 C   0  0  0  0  0  0  0  0  0  0  0  0
    2.9173   -6.2418    1.9382 N   0  0  0  0  0  0  0  0  0  0  0  0
    2.7389   -7.6900    1.8958 C   0  0  0  0  0  0  0  0  0  0  0  0
    1.2757   -8.0615    1.6855 C   0  0  0  0  0  0  0  0  0  0  0  0
    0.4170   -7.4906    2.8240 C   0  0  0  0  0  0  0  0  0  0  0  0
    0.6662   -5.9841    2.9671 C   0  0  0  0  0  0  0  0  0  0  0  0
    2.1764   -5.7018    3.0871 C   0  0  0  0  0  0  0  0  0  0  0  0
   -0.9282   -7.7107    2.5515 O   0  0  0  0  0  0  0  0  0  0  0  0
   -1.1457   -9.0504    2.9550 C   0  0  0  0  0  0  0  0  0  0  0  0
   -0.2005   -9.1839    4.1555 C   0  0  0  0  0  0  0  0  0  0  0  0
    0.7322   -8.1289    4.0100 O   0  0  0  0  0  0  0  0  0  0  0  0
    2.6506   -3.0054   -2.4796 C   0  0  0  0  0  0  0  0  0  0  0  0
    3.4106   -2.0768   -4.3100 H   0  0  0  0  0  0  0  0  0  0  0  0
    2.6181   -0.9784   -3.1719 H   0  0  0  0  0  0  0  0  0  0  0  0
    5.4140   -2.1059   -3.0314 H   0  0  0  0  0  0  0  0  0  0  0  0
    4.8327   -0.5189   -2.4841 H   0  0  0  0  0  0  0  0  0  0  0  0
    4.3760   -4.0807   -1.7410 H   0  0  0  0  0  0  0  0  0  0  0  0
    2.1577   -3.2329    0.1820 H   0  0  0  0  0  0  0  0  0  0  0  0
    2.8106   -4.8177   -0.1604 H   0  0  0  0  0  0  0  0  0  0  0  0
    4.7026   -6.1790    3.0243 H   0  0  0  0  0  0  0  0  0  0  0  0
    4.9360   -6.4172   -0.0197 H   0  0  0  0  0  0  0  0  0  0  0  0
    5.6402   -8.3841    2.3027 H   0  0  0  0  0  0  0  0  0  0  0  0
    5.8917   -8.6627    0.5025 H   0  0  0  0  0  0  0  0  0  0  0  0
    7.3938   -6.6448    0.4365 H   0  0  0  0  0  0  0  0  0  0  0  0
    7.1026   -6.3820    2.2298 H   0  0  0  0  0  0  0  0  0  0  0  0
    3.2582   -8.1321    1.0479 H   0  0  0  0  0  0  0  0  0  0  0  0
    3.1318   -8.1515    2.8011 H   0  0  0  0  0  0  0  0  0  0  0  0
    0.9075   -7.6772    0.7352 H   0  0  0  0  0  0  0  0  0  0  0  0
    1.2113   -9.1459    1.6594 H   0  0  0  0  0  0  0  0  0  0  0  0
    0.2755   -5.4851    2.0821 H   0  0  0  0  0  0  0  0  0  0  0  0
    0.1282   -5.6010    3.8357 H   0  0  0  0  0  0  0  0  0  0  0  0
    2.5665   -6.1105    4.0200 H   0  0  0  0  0  0  0  0  0  0  0  0
    2.2937   -4.6190    3.1434 H   0  0  0  0  0  0  0  0  0  0  0  0
   -2.1858   -9.2608    3.1980 H   0  0  0  0  0  0  0  0  0  0  0  0
   -0.8584   -9.7301    2.1506 H   0  0  0  0  0  0  0  0  0  0  0  0
   -0.7364   -9.0480    5.0945 H   0  0  0  0  0  0  0  0  0  0  0  0
    0.3062  -10.1490    4.1777 H   0  0  0  0  0  0  0  0  0  0  0  0
    1.6958   -2.7024   -2.0444 H   0  0  0  0  0  0  0  0  0  0  0  0
    2.4353   -3.8565   -3.1256 H   0  0  0  0  0  0  0  0  0  0  0  0
  1 25  1  0
  1  2  1  0
  1 26  1  0
  1 27  1  0
  2  3  1  0
  2 28  1  0
  2 29  1  0
  3  4  1  0
  4  5  1  0
  4 25  1  0
  4 30  1  6
  5  6  1  0
  5 31  1  0
  5 32  1  0
  6 10  1  0
  6  7  1  0
  7  8  2  0
  8  9  1  0
  9 10  2  0
 10 11  1  0
 11 12  1  0
 11 15  1  0
 11 33  1  1
 12 14  1  0
 12 13  1  0
 12 34  1  0
 13 14  1  0
 13 35  1  0
 13 36  1  0
 14 37  1  0
 14 38  1  0
 15 20  1  0
 15 16  1  0
 16 17  1  0
 16 39  1  0
 16 40  1  0
 17 18  1  0
 17 41  1  0
 17 42  1  0
 18 24  1  0
 18 19  1  0
 18 21  1  0
 19 20  1  0
 19 43  1  0
 19 44  1  0
 20 45  1  0
 20 46  1  0
 21 22  1  0
 22 23  1  0
 22 47  1  0
 22 48  1  0
 23 24  1  0
 23 49  1  0
 23 50  1  0
 25 51  1  0
 25 52  1  0
M  END
>  <i_m_ct_stereo_status>  (134) 
1

>  <s_m_source_file>  (134) 
/var/tmp/pbs.5076255.sched01/tmp0glzbzrw/400n8fk_jm.sdf

>  <i_m_source_file_index>  (134) 
13

>  <i_lp_mmshare_version>  (134) 
48012

>  <i_f3d_flags>  (134) 
0

>  <s_epik_input>  (134) 
W0NIMl0xW0NIMl1bQ0gyXU9bQ0BIXTFbQ0gyXW4ybm5uYzJbQ0BIXShbQ0hdM1tDSDJdW0NIMl0zKU4oW0NIMl1bQ0gyXTQpW0NIMl1bQ0gyXUM0NU9bQ0gyXVtDSDJdTzU=

>  <s_epik_cmdline>  (134) 
J2VwaWtfcHl0aG9uJywgJy1waHQnLCAnMi4wJywgJy1waCcsICc3LjAnLCAnLXRuJywgJzgnLCAnLW1hJywgJzIwMCcsICctaW1hZScsICc8aW5maWxlLm1hZT4nLCAnLW9tYWUnLCAnPG91dGZpbGUubWFlPic=

>  <r_lp_tautomer_probability>  (134) 
1

>  <r_epik_Ionization_Penalty>  (134) 
0.0282922

>  <r_epik_Ionization_Penalty_Charging>  (134) 
0

>  <r_epik_Ionization_Penalty_Neutral>  (134) 
0.0282922

>  <r_epik_State_Penalty>  (134) 
0.0232071

>  <r_epik_Charging_Adjusted_Penalty>  (134) 
0.0232071

>  <i_epik_Tot_Q>  (134) 
0

>  <i_epik_Tot_abs_Q>  (134) 
0

>  <s_lp_Force_Field>  (134) 
OPLS3e

>  <r_lp_Energy>  (134) 
5.03934

>  <b_lp_Chiralities_Consistent>  (134) 
1

>  <s_lp_Variant>  (134) 
39:0-1

>  <s_i_glide_gridfile>  (134) 
pfpi4k_grid

>  <i_i_glide_lignum>  (134) 
13

>  <i_i_glide_rotatable_bonds>  (134) 
5

>  <r_i_docking_score>  (134) 
-2.39461

>  <r_i_glide_ligand_efficiency>  (134) 
-0.0957845

>  <r_i_glide_ligand_efficiency_sa>  (134) 
-0.280076

>  <r_i_glide_ligand_efficiency_ln>  (134) 
-0.567595

>  <r_i_glide_gscore>  (134) 
-2.39461

>  <r_i_glide_lipo>  (134) 
-0.422895

>  <r_i_glide_hbond>  (134) 
0

>  <r_i_glide_metal>  (134) 
-0

>  <r_i_glide_rewards>  (134) 
-1.06407

>  <r_i_glide_evdw>  (134) 
-26.0496

>  <r_i_glide_ecoul>  (134) 
-2.28468

>  <r_i_glide_erotb>  (134) 
0.780043

>  <r_i_glide_esite>  (134) 
-0.0425078

>  <r_i_glide_emodel>  (134) 
-30.9559

>  <r_i_glide_energy>  (134) 
-28.3343

>  <r_i_glide_einternal>  (134) 
3.06702

>  <r_i_glide_intrahb_reward>  (134) 
-0

>  <i_i_glide_confnum>  (134) 
3

>  <i_i_glide_posenum>  (134) 
2

>  <r_i_glide_eff_state_penalty>  (134) 
0

>  <ligand_id>  (134) 
39

>  <original_smiles>  (134) 
C1COC(Cn2nnnc2C(C2CC2)N2CCC3(CC2)OCCO3)C1

>  <smiles>  (134) 
[H]C1([H])OC2(OC1([H])[H])C([H])([H])C([H])([H])N(C([H])(c1nnnn1C([H])([H])C1([H])OC([H])([H])C([H])([H])C1([H])[H])C1([H])C([H])([H])C1([H])[H])C([H])([H])C2([H])[H]

$$$$
39:1:0
     RDKit          3D

 53 57  0  0  1  0  0  0  0  0999 V2000
    2.4176   -3.0438   -3.8291 C   0  0  0  0  0  0  0  0  0  0  0  0
    3.9174   -2.7285   -3.8662 C   0  0  0  0  0  0  0  0  0  0  0  0
    4.2360   -2.3448   -2.5536 O   0  0  0  0  0  0  0  0  0  0  0  0
    3.4816   -3.1926   -1.6999 C   0  0  1  0  0  0  0  0  0  0  0  0
    3.3453   -2.6127   -0.2765 C   0  0  0  0  0  0  0  0  0  0  0  0
    4.6378   -2.1617    0.2142 N   0  0  0  0  0  0  0  0  0  0  0  0
    5.0198   -0.8500    0.0017 N   0  0  0  0  0  0  0  0  0  0  0  0
    6.1665   -0.7084    0.5499 N   0  0  0  0  0  0  0  0  0  0  0  0
    6.6224   -1.8851    1.1377 N   0  0  0  0  0  0  0  0  0  0  0  0
    5.6282   -2.7397    0.8888 C   0  0  0  0  0  0  0  0  0  0  0  0
    5.7501   -4.1912    1.4008 C   0  0  2  0  0  0  0  0  0  0  0  0
    6.7005   -5.0290    0.5579 C   0  0  0  0  0  0  0  0  0  0  0  0
    7.7369   -5.9403    1.1954 C   0  0  0  0  0  0  0  0  0  0  0  0
    8.1839   -4.7016    0.4552 C   0  0  0  0  0  0  0  0  0  0  0  0
    4.3957   -4.7706    1.4659 N   0  0  0  0  0  0  0  0  0  0  0  0
    4.3849   -6.2281    1.6258 C   0  0  0  0  0  0  0  0  0  0  0  0
    2.9751   -6.8014    1.4935 C   0  0  0  0  0  0  0  0  0  0  0  0
    2.0331   -6.1550    2.5236 C   0  0  0  0  0  0  0  0  0  0  0  0
    2.0710   -4.6277    2.4219 C   0  0  0  0  0  0  0  0  0  0  0  0
    3.5321   -4.1279    2.5246 C   0  0  0  0  0  0  0  0  0  0  0  0
    2.4150   -6.5236    3.7978 O   0  0  0  0  0  0  0  0  0  0  0  0
    1.6173   -7.6400    4.1325 C   0  0  0  0  0  0  0  0  0  0  0  0
    0.6938   -7.8495    2.9277 C   0  0  0  0  0  0  0  0  0  0  0  0
    0.7387   -6.5847    2.3013 O   0  0  0  0  0  0  0  0  0  0  0  0
    2.1282   -3.3629   -2.3819 C   0  0  0  0  0  0  0  0  0  0  0  0
    2.1689   -3.8774   -4.4786 H   0  0  0  0  0  0  0  0  0  0  0  0
    1.8269   -2.1791   -4.1230 H   0  0  0  0  0  0  0  0  0  0  0  0
    4.5018   -3.6215   -4.1076 H   0  0  0  0  0  0  0  0  0  0  0  0
    4.1691   -1.9122   -4.5449 H   0  0  0  0  0  0  0  0  0  0  0  0
    3.9908   -4.1522   -1.6373 H   0  0  0  0  0  0  0  0  0  0  0  0
    2.6828   -1.7151   -0.2989 H   0  0  0  0  0  0  0  0  0  0  0  0
    2.9450   -3.3678    0.3365 H   0  0  0  0  0  0  0  0  0  0  0  0
    6.1882   -4.1505    2.4075 H   0  0  0  0  0  0  0  0  0  0  0  0
    6.2439   -5.3892   -0.3608 H   0  0  0  0  0  0  0  0  0  0  0  0
    7.8145   -5.9287    2.2822 H   0  0  0  0  0  0  0  0  0  0  0  0
    7.9304   -6.9004    0.7217 H   0  0  0  0  0  0  0  0  0  0  0  0
    8.6579   -4.8304   -0.5155 H   0  0  0  0  0  0  0  0  0  0  0  0
    8.5579   -3.8644    1.0478 H   0  0  0  0  0  0  0  0  0  0  0  0
    4.9678   -6.7610    0.8694 H   0  0  0  0  0  0  0  0  0  0  0  0
    4.8173   -6.5063    2.5926 H   0  0  0  0  0  0  0  0  0  0  0  0
    2.5813   -6.6405    0.4894 H   0  0  0  0  0  0  0  0  0  0  0  0
    3.0342   -7.8858    1.6355 H   0  0  0  0  0  0  0  0  0  0  0  0
    1.6277   -4.3849    1.4659 H   0  0  0  0  0  0  0  0  0  0  0  0
    1.4431   -4.1693    3.1870 H   0  0  0  0  0  0  0  0  0  0  0  0
    3.9269   -4.3197    3.4801 H   0  0  0  0  0  0  0  0  0  0  0  0
    3.5045   -3.0198    2.3726 H   0  0  0  0  0  0  0  0  0  0  0  0
    2.2563   -8.4982    4.3267 H   0  0  0  0  0  0  0  0  0  0  0  0
    1.0503   -7.4061    5.0320 H   0  0  0  0  0  0  0  0  0  0  0  0
    1.0927   -8.6100    2.2551 H   0  0  0  0  0  0  0  0  0  0  0  0
   -0.3133   -8.1538    3.2016 H   0  0  0  0  0  0  0  0  0  0  0  0
    1.4100   -2.6597   -1.9732 H   0  0  0  0  0  0  0  0  0  0  0  0
    1.6748   -4.3305   -2.2083 H   0  0  0  0  0  0  0  0  0  0  0  0
    3.9689   -4.5820    0.5326 H   0  0  0  0  0  0  0  0  0  0  0  0
  1 25  1  0
  1  2  1  0
  1 26  1  0
  1 27  1  0
  2  3  1  0
  2 28  1  0
  2 29  1  0
  3  4  1  0
  4  5  1  0
  4 25  1  0
  4 30  1  1
  5  6  1  0
  5 31  1  0
  5 32  1  0
  6 10  1  0
  6  7  1  0
  7  8  2  0
  8  9  1  0
  9 10  2  0
 10 11  1  0
 11 12  1  0
 11 15  1  0
 11 33  1  1
 12 14  1  0
 12 13  1  0
 12 34  1  0
 13 14  1  0
 13 35  1  0
 13 36  1  0
 14 37  1  0
 14 38  1  0
 15 20  1  0
 15 16  1  0
 15 53  1  0
 16 17  1  0
 16 39  1  0
 16 40  1  0
 17 18  1  0
 17 41  1  0
 17 42  1  0
 18 24  1  0
 18 19  1  0
 18 21  1  0
 19 20  1  0
 19 43  1  0
 19 44  1  0
 20 45  1  0
 20 46  1  0
 21 22  1  0
 22 23  1  0
 22 47  1  0
 22 48  1  0
 23 24  1  0
 23 49  1  0
 23 50  1  0
 25 51  1  0
 25 52  1  0
M  CHG  1  15   1
M  END
>  <i_m_ct_stereo_status>  (135) 
1

>  <s_m_source_file>  (135) 
/var/tmp/pbs.5076255.sched01/tmp0glzbzrw/400n8fk_jm.sdf

>  <i_m_source_file_index>  (135) 
14

>  <i_lp_mmshare_version>  (135) 
48012

>  <i_f3d_flags>  (135) 
0

>  <s_epik_input>  (135) 
W0NIMl0xW0NIMl1bQ0gyXU9bQ0BIXTFbQ0gyXW4ybm5uYzJbQ0BIXShbQ0hdM1tDSDJdW0NIMl0zKU4oW0NIMl1bQ0gyXTQpW0NIMl1bQ0gyXUM0NU9bQ0gyXVtDSDJdTzU=

>  <s_epik_cmdline>  (135) 
J2VwaWtfcHl0aG9uJywgJy1waHQnLCAnMi4wJywgJy1waCcsICc3LjAnLCAnLXRuJywgJzgnLCAnLW1hJywgJzIwMCcsICctaW1hZScsICc8aW5maWxlLm1hZT4nLCAnLW9tYWUnLCAnPG91dGZpbGUubWFlPic=

>  <r_lp_tautomer_probability>  (135) 
1

>  <r_epik_Ionization_Penalty>  (135) 
1.81629

>  <r_epik_Ionization_Penalty_Charging>  (135) 
1.81629

>  <r_epik_Ionization_Penalty_Neutral>  (135) 
3.00909e-11

>  <r_epik_State_Penalty>  (135) 
1.93114

>  <r_epik_Charging_Adjusted_Penalty>  (135) 
3.74743

>  <i_epik_Tot_Q>  (135) 
1

>  <i_epik_Tot_abs_Q>  (135) 
1

>  <s_lp_Force_Field>  (135) 
OPLS3e

>  <r_lp_Energy>  (135) 
10.3467

>  <b_lp_Chiralities_Consistent>  (135) 
1

>  <s_lp_Variant>  (135) 
39:0-2

>  <s_i_glide_gridfile>  (135) 
pfpi4k_grid

>  <i_i_glide_lignum>  (135) 
14

>  <i_i_glide_rotatable_bonds>  (135) 
5

>  <r_i_docking_score>  (135) 
-3.10538

>  <r_i_glide_ligand_efficiency>  (135) 
-0.124215

>  <r_i_glide_ligand_efficiency_sa>  (135) 
-0.363208

>  <r_i_glide_ligand_efficiency_ln>  (135) 
-0.736068

>  <r_i_glide_gscore>  (135) 
-3.10538

>  <r_i_glide_lipo>  (135) 
-0.966845

>  <r_i_glide_hbond>  (135) 
0

>  <r_i_glide_metal>  (135) 
-0

>  <r_i_glide_rewards>  (135) 
-1.10398

>  <r_i_glide_evdw>  (135) 
-23.3236

>  <r_i_glide_ecoul>  (135) 
-4.17545

>  <r_i_glide_erotb>  (135) 
0.776058

>  <r_i_glide_esite>  (135) 
-0.0181178

>  <r_i_glide_emodel>  (135) 
-30.2495

>  <r_i_glide_energy>  (135) 
-27.499

>  <r_i_glide_einternal>  (135) 
4.42763

>  <r_i_glide_intrahb_reward>  (135) 
-0

>  <i_i_glide_confnum>  (135) 
5

>  <i_i_glide_posenum>  (135) 
21

>  <r_i_glide_eff_state_penalty>  (135) 
0

>  <ligand_id>  (135) 
39

>  <original_smiles>  (135) 
C1COC(Cn2nnnc2C(C2CC2)N2CCC3(CC2)OCCO3)C1

>  <smiles>  (135) 
[H]C1([H])OC2(OC1([H])[H])C([H])([H])C([H])([H])[N+]([H])(C([H])(c1nnnn1C([H])([H])C1([H])OC([H])([H])C([H])([H])C1([H])[H])C1([H])C([H])([H])C1([H])[H])C([H])([H])C2([H])[H]

$$$$
39:1:1
     RDKit          3D

 53 57  0  0  1  0  0  0  0  0999 V2000
    3.2966   -1.8896   -2.4751 C   0  0  0  0  0  0  0  0  0  0  0  0
    4.8196   -1.8557   -2.3078 C   0  0  0  0  0  0  0  0  0  0  0  0
    5.0604   -2.7545   -1.2570 O   0  0  0  0  0  0  0  0  0  0  0  0
    4.2510   -3.8868   -1.5065 C   0  0  1  0  0  0  0  0  0  0  0  0
    4.1862   -4.8047   -0.2750 C   0  0  0  0  0  0  0  0  0  0  0  0
    5.4032   -5.0094    0.5316 N   0  0  0  0  0  0  0  0  0  0  0  0
    6.3959   -4.0672    0.5765 N   0  0  0  0  0  0  0  0  0  0  0  0
    7.3142   -4.4936    1.3816 N   0  0  0  0  0  0  0  0  0  0  0  0
    6.9553   -5.6869    1.9541 N   0  0  0  0  0  0  0  0  0  0  0  0
    5.7738   -5.9563    1.4215 C   0  0  0  0  0  0  0  0  0  0  0  0
    5.0526   -7.2171    1.8435 C   0  0  2  0  0  0  0  0  0  0  0  0
    5.5247   -8.4140    1.0475 C   0  0  0  0  0  0  0  0  0  0  0  0
    5.8400   -9.7126    1.7552 C   0  0  0  0  0  0  0  0  0  0  0  0
    6.9617   -8.8903    1.1828 C   0  0  0  0  0  0  0  0  0  0  0  0
    3.5717   -6.9738    1.7116 N   0  0  0  0  0  0  0  0  0  0  0  0
    2.7959   -8.2398    1.8347 C   0  0  0  0  0  0  0  0  0  0  0  0
    1.3159   -8.0188    1.5349 C   0  0  0  0  0  0  0  0  0  0  0  0
    0.7252   -6.9333    2.4454 C   0  0  0  0  0  0  0  0  0  0  0  0
    1.5464   -5.6412    2.3613 C   0  0  0  0  0  0  0  0  0  0  0  0
    3.0396   -5.9353    2.6542 C   0  0  0  0  0  0  0  0  0  0  0  0
    0.7174   -7.3915    3.7472 O   0  0  0  0  0  0  0  0  0  0  0  0
   -0.5576   -7.9629    3.9576 C   0  0  0  0  0  0  0  0  0  0  0  0
   -1.3269   -7.7237    2.6526 C   0  0  0  0  0  0  0  0  0  0  0  0
   -0.5858   -6.6744    2.0631 O   0  0  0  0  0  0  0  0  0  0  0  0
    2.8971   -3.2590   -1.9271 C   0  0  0  0  0  0  0  0  0  0  0  0
    2.9749   -1.7364   -3.5083 H   0  0  0  0  0  0  0  0  0  0  0  0
    2.8470   -1.1190   -1.8506 H   0  0  0  0  0  0  0  0  0  0  0  0
    5.3360   -2.1873   -3.2126 H   0  0  0  0  0  0  0  0  0  0  0  0
    5.1902   -0.8726   -2.0253 H   0  0  0  0  0  0  0  0  0  0  0  0
    4.6667   -4.4514   -2.3518 H   0  0  0  0  0  0  0  0  0  0  0  0
    3.4456   -4.3886    0.3990 H   0  0  0  0  0  0  0  0  0  0  0  0
    3.8213   -5.7728   -0.6258 H   0  0  0  0  0  0  0  0  0  0  0  0
    5.3364   -7.3869    2.8817 H   0  0  0  0  0  0  0  0  0  0  0  0
    5.1068   -8.4848    0.0505 H   0  0  0  0  0  0  0  0  0  0  0  0
    5.7299   -9.7263    2.8367 H   0  0  0  0  0  0  0  0  0  0  0  0
    5.5656  -10.6286    1.2319 H   0  0  0  0  0  0  0  0  0  0  0  0
    7.4413   -9.2607    0.2773 H   0  0  0  0  0  0  0  0  0  0  0  0
    7.6198   -8.3703    1.8779 H   0  0  0  0  0  0  0  0  0  0  0  0
    3.0936   -9.0187    1.1289 H   0  0  0  0  0  0  0  0  0  0  0  0
    2.9175   -8.6535    2.8394 H   0  0  0  0  0  0  0  0  0  0  0  0
    1.1444   -7.7172    0.5050 H   0  0  0  0  0  0  0  0  0  0  0  0
    0.8202   -8.9757    1.6794 H   0  0  0  0  0  0  0  0  0  0  0  0
    1.4219   -5.2178    1.3625 H   0  0  0  0  0  0  0  0  0  0  0  0
    1.1475   -4.9067    3.0598 H   0  0  0  0  0  0  0  0  0  0  0  0
    3.1595   -6.2624    3.6890 H   0  0  0  0  0  0  0  0  0  0  0  0
    3.5722   -4.9837    2.5854 H   0  0  0  0  0  0  0  0  0  0  0  0
   -0.4647   -9.0209    4.2019 H   0  0  0  0  0  0  0  0  0  0  0  0
   -1.0275   -7.4485    4.7948 H   0  0  0  0  0  0  0  0  0  0  0  0
   -1.3049   -8.6080    2.0113 H   0  0  0  0  0  0  0  0  0  0  0  0
   -2.3689   -7.4570    2.8083 H   0  0  0  0  0  0  0  0  0  0  0  0
    2.2292   -3.1440   -1.0710 H   0  0  0  0  0  0  0  0  0  0  0  0
    2.3387   -3.8524   -2.6589 H   0  0  0  0  0  0  0  0  0  0  0  0
    3.4377   -6.6597    0.7697 H   0  0  0  0  0  0  0  0  0  0  0  0
  1 25  1  0
  1  2  1  0
  1 26  1  0
  1 27  1  0
  2  3  1  0
  2 28  1  0
  2 29  1  0
  3  4  1  0
  4  5  1  0
  4 25  1  0
  4 30  1  6
  5  6  1  0
  5 31  1  0
  5 32  1  0
  6 10  1  0
  6  7  1  0
  7  8  2  0
  8  9  1  0
  9 10  2  0
 10 11  1  0
 11 12  1  0
 11 15  1  0
 11 33  1  1
 12 14  1  0
 12 13  1  0
 12 34  1  0
 13 14  1  0
 13 35  1  0
 13 36  1  0
 14 37  1  0
 14 38  1  0
 15 20  1  0
 15 16  1  0
 15 53  1  0
 16 17  1  0
 16 39  1  0
 16 40  1  0
 17 18  1  0
 17 41  1  0
 17 42  1  0
 18 24  1  0
 18 19  1  0
 18 21  1  0
 19 20  1  0
 19 43  1  0
 19 44  1  0
 20 45  1  0
 20 46  1  0
 21 22  1  0
 22 23  1  0
 22 47  1  0
 22 48  1  0
 23 24  1  0
 23 49  1  0
 23 50  1  0
 25 51  1  0
 25 52  1  0
M  CHG  1  15   1
M  END
>  <i_m_ct_stereo_status>  (136) 
1

>  <s_m_source_file>  (136) 
/var/tmp/pbs.5076255.sched01/tmp0glzbzrw/400n8fk_jm.sdf

>  <i_m_source_file_index>  (136) 
14

>  <i_lp_mmshare_version>  (136) 
48012

>  <i_f3d_flags>  (136) 
0

>  <s_epik_input>  (136) 
W0NIMl0xW0NIMl1bQ0gyXU9bQ0BIXTFbQ0gyXW4ybm5uYzJbQ0BIXShbQ0hdM1tDSDJdW0NIMl0zKU4oW0NIMl1bQ0gyXTQpW0NIMl1bQ0gyXUM0NU9bQ0gyXVtDSDJdTzU=

>  <s_epik_cmdline>  (136) 
J2VwaWtfcHl0aG9uJywgJy1waHQnLCAnMi4wJywgJy1waCcsICc3LjAnLCAnLXRuJywgJzgnLCAnLW1hJywgJzIwMCcsICctaW1hZScsICc8aW5maWxlLm1hZT4nLCAnLW9tYWUnLCAnPG91dGZpbGUubWFlPic=

>  <r_lp_tautomer_probability>  (136) 
1

>  <r_epik_Ionization_Penalty>  (136) 
1.81629

>  <r_epik_Ionization_Penalty_Charging>  (136) 
1.81629

>  <r_epik_Ionization_Penalty_Neutral>  (136) 
3.00909e-11

>  <r_epik_State_Penalty>  (136) 
1.93114

>  <r_epik_Charging_Adjusted_Penalty>  (136) 
3.74743

>  <i_epik_Tot_Q>  (136) 
1

>  <i_epik_Tot_abs_Q>  (136) 
1

>  <s_lp_Force_Field>  (136) 
OPLS3e

>  <r_lp_Energy>  (136) 
10.3467

>  <b_lp_Chiralities_Consistent>  (136) 
1

>  <s_lp_Variant>  (136) 
39:0-2

>  <s_i_glide_gridfile>  (136) 
pfpi4k_grid

>  <i_i_glide_lignum>  (136) 
14

>  <i_i_glide_rotatable_bonds>  (136) 
5

>  <r_i_docking_score>  (136) 
-3.08243

>  <r_i_glide_ligand_efficiency>  (136) 
-0.123297

>  <r_i_glide_ligand_efficiency_sa>  (136) 
-0.360523

>  <r_i_glide_ligand_efficiency_ln>  (136) 
-0.730628

>  <r_i_glide_gscore>  (136) 
-3.08243

>  <r_i_glide_lipo>  (136) 
-0.226026

>  <r_i_glide_hbond>  (136) 
-0.16

>  <r_i_glide_metal>  (136) 
-0

>  <r_i_glide_rewards>  (136) 
-1.25181

>  <r_i_glide_evdw>  (136) 
-24.3493

>  <r_i_glide_ecoul>  (136) 
-6.32378

>  <r_i_glide_erotb>  (136) 
0.776058

>  <r_i_glide_esite>  (136) 
-0.0546172

>  <r_i_glide_emodel>  (136) 
-33.3771

>  <r_i_glide_energy>  (136) 
-30.673

>  <r_i_glide_einternal>  (136) 
5.93827

>  <r_i_glide_intrahb_reward>  (136) 
-0

>  <i_i_glide_confnum>  (136) 
5

>  <i_i_glide_posenum>  (136) 
13

>  <r_i_glide_eff_state_penalty>  (136) 
0

>  <ligand_id>  (136) 
39

>  <original_smiles>  (136) 
C1COC(Cn2nnnc2C(C2CC2)N2CCC3(CC2)OCCO3)C1

>  <smiles>  (136) 
[H]C1([H])OC2(OC1([H])[H])C([H])([H])C([H])([H])[N+]([H])(C([H])(c1nnnn1C([H])([H])C1([H])OC([H])([H])C([H])([H])C1([H])[H])C1([H])C([H])([H])C1([H])[H])C([H])([H])C2([H])[H]

$$$$
39:1:2
     RDKit          3D

 53 57  0  0  1  0  0  0  0  0999 V2000
    2.7149   -3.4662   -3.9888 C   0  0  0  0  0  0  0  0  0  0  0  0
    4.2227   -3.6546   -3.8359 C   0  0  0  0  0  0  0  0  0  0  0  0
    4.5282   -2.8232   -2.7328 O   0  0  0  0  0  0  0  0  0  0  0  0
    3.5037   -3.0635   -1.7782 C   0  0  1  0  0  0  0  0  0  0  0  0
    3.5169   -2.0091   -0.6648 C   0  0  0  0  0  0  0  0  0  0  0  0
    4.7907   -2.0014    0.0359 N   0  0  0  0  0  0  0  0  0  0  0  0
    5.7341   -1.1006   -0.3181 N   0  0  0  0  0  0  0  0  0  0  0  0
    6.7767   -1.3378    0.4373 N   0  0  0  0  0  0  0  0  0  0  0  0
    6.5465   -2.4115    1.2718 N   0  0  0  0  0  0  0  0  0  0  0  0
    5.2977   -2.7580    1.0253 C   0  0  0  0  0  0  0  0  0  0  0  0
    4.6000   -3.8794    1.7640 C   0  0  2  0  0  0  0  0  0  0  0  0
    4.2214   -5.0427    0.8615 C   0  0  0  0  0  0  0  0  0  0  0  0
    4.4380   -6.4780    1.2823 C   0  0  0  0  0  0  0  0  0  0  0  0
    5.3302   -5.8628    0.2315 C   0  0  0  0  0  0  0  0  0  0  0  0
    3.4083   -3.2875    2.4461 N   0  0  0  0  0  0  0  0  0  0  0  0
    2.5798   -4.3535    3.0701 C   0  0  0  0  0  0  0  0  0  0  0  0
    1.2829   -3.8142    3.6514 C   0  0  0  0  0  0  0  0  0  0  0  0
    1.5836   -2.7206    4.6870 C   0  0  0  0  0  0  0  0  0  0  0  0
    2.4735   -1.6199    4.0778 C   0  0  0  0  0  0  0  0  0  0  0  0
    3.7446   -2.2294    3.4494 C   0  0  0  0  0  0  0  0  0  0  0  0
    2.2122   -3.2844    5.7816 O   0  0  0  0  0  0  0  0  0  0  0  0
    1.1960   -3.5667    6.7280 C   0  0  0  0  0  0  0  0  0  0  0  0
   -0.0947   -3.0599    6.0805 C   0  0  0  0  0  0  0  0  0  0  0  0
    0.3864   -2.1611    5.1058 O   0  0  0  0  0  0  0  0  0  0  0  0
    2.2353   -3.0267   -2.6179 C   0  0  0  0  0  0  0  0  0  0  0  0
    2.2164   -4.3732   -4.3144 H   0  0  0  0  0  0  0  0  0  0  0  0
    2.5227   -2.6648   -4.6978 H   0  0  0  0  0  0  0  0  0  0  0  0
    4.4756   -4.6893   -3.6040 H   0  0  0  0  0  0  0  0  0  0  0  0
    4.7743   -3.3798   -4.7305 H   0  0  0  0  0  0  0  0  0  0  0  0
    3.6338   -4.0666   -1.3854 H   0  0  0  0  0  0  0  0  0  0  0  0
    3.3539   -1.0031   -1.0503 H   0  0  0  0  0  0  0  0  0  0  0  0
    2.7132   -2.1830    0.0468 H   0  0  0  0  0  0  0  0  0  0  0  0
    5.3272   -4.2415    2.5021 H   0  0  0  0  0  0  0  0  0  0  0  0
    3.3165   -4.8915    0.2774 H   0  0  0  0  0  0  0  0  0  0  0  0
    4.8357   -6.6654    2.2801 H   0  0  0  0  0  0  0  0  0  0  0  0
    3.6748   -7.1714    0.9365 H   0  0  0  0  0  0  0  0  0  0  0  0
    5.1694   -6.1581   -0.8032 H   0  0  0  0  0  0  0  0  0  0  0  0
    6.3672   -5.6720    0.5109 H   0  0  0  0  0  0  0  0  0  0  0  0
    2.2571   -5.1241    2.3678 H   0  0  0  0  0  0  0  0  0  0  0  0
    3.1691   -4.8555    3.8401 H   0  0  0  0  0  0  0  0  0  0  0  0
    0.6389   -3.3956    2.8761 H   0  0  0  0  0  0  0  0  0  0  0  0
    0.7540   -4.6556    4.0950 H   0  0  0  0  0  0  0  0  0  0  0  0
    1.9031   -1.0851    3.3179 H   0  0  0  0  0  0  0  0  0  0  0  0
    2.7353   -0.8940    4.8473 H   0  0  0  0  0  0  0  0  0  0  0  0
    4.3695   -2.6676    4.2275 H   0  0  0  0  0  0  0  0  0  0  0  0
    4.3161   -1.4064    3.0123 H   0  0  0  0  0  0  0  0  0  0  0  0
    1.1525   -4.6352    6.9384 H   0  0  0  0  0  0  0  0  0  0  0  0
    1.4057   -3.0376    7.6567 H   0  0  0  0  0  0  0  0  0  0  0  0
   -0.6252   -3.8778    5.5938 H   0  0  0  0  0  0  0  0  0  0  0  0
   -0.7845   -2.5891    6.7784 H   0  0  0  0  0  0  0  0  0  0  0  0
    1.8334   -2.0167   -2.6814 H   0  0  0  0  0  0  0  0  0  0  0  0
    1.4665   -3.6812   -2.2130 H   0  0  0  0  0  0  0  0  0  0  0  0
    2.8536   -2.8515    1.7287 H   0  0  0  0  0  0  0  0  0  0  0  0
  1 25  1  0
  1  2  1  0
  1 26  1  0
  1 27  1  0
  2  3  1  0
  2 28  1  0
  2 29  1  0
  3  4  1  0
  4  5  1  0
  4 25  1  0
  4 30  1  1
  5  6  1  0
  5 31  1  0
  5 32  1  0
  6 10  1  0
  6  7  1  0
  7  8  2  0
  8  9  1  0
  9 10  2  0
 10 11  1  0
 11 12  1  0
 11 15  1  0
 11 33  1  1
 12 14  1  0
 12 13  1  0
 12 34  1  0
 13 14  1  0
 13 35  1  0
 13 36  1  0
 14 37  1  0
 14 38  1  0
 15 20  1  0
 15 16  1  0
 15 53  1  0
 16 17  1  0
 16 39  1  0
 16 40  1  0
 17 18  1  0
 17 41  1  0
 17 42  1  0
 18 24  1  0
 18 19  1  0
 18 21  1  0
 19 20  1  0
 19 43  1  0
 19 44  1  0
 20 45  1  0
 20 46  1  0
 21 22  1  0
 22 23  1  0
 22 47  1  0
 22 48  1  0
 23 24  1  0
 23 49  1  0
 23 50  1  0
 25 51  1  0
 25 52  1  0
M  CHG  1  15   1
M  END
>  <i_m_ct_stereo_status>  (137) 
1

>  <s_m_source_file>  (137) 
/var/tmp/pbs.5076255.sched01/tmp0glzbzrw/400n8fk_jm.sdf

>  <i_m_source_file_index>  (137) 
14

>  <i_lp_mmshare_version>  (137) 
48012

>  <i_f3d_flags>  (137) 
0

>  <s_epik_input>  (137) 
W0NIMl0xW0NIMl1bQ0gyXU9bQ0BIXTFbQ0gyXW4ybm5uYzJbQ0BIXShbQ0hdM1tDSDJdW0NIMl0zKU4oW0NIMl1bQ0gyXTQpW0NIMl1bQ0gyXUM0NU9bQ0gyXVtDSDJdTzU=

>  <s_epik_cmdline>  (137) 
J2VwaWtfcHl0aG9uJywgJy1waHQnLCAnMi4wJywgJy1waCcsICc3LjAnLCAnLXRuJywgJzgnLCAnLW1hJywgJzIwMCcsICctaW1hZScsICc8aW5maWxlLm1hZT4nLCAnLW9tYWUnLCAnPG91dGZpbGUubWFlPic=

>  <r_lp_tautomer_probability>  (137) 
1

>  <r_epik_Ionization_Penalty>  (137) 
1.81629

>  <r_epik_Ionization_Penalty_Charging>  (137) 
1.81629

>  <r_epik_Ionization_Penalty_Neutral>  (137) 
3.00909e-11

>  <r_epik_State_Penalty>  (137) 
1.93114

>  <r_epik_Charging_Adjusted_Penalty>  (137) 
3.74743

>  <i_epik_Tot_Q>  (137) 
1

>  <i_epik_Tot_abs_Q>  (137) 
1

>  <s_lp_Force_Field>  (137) 
OPLS3e

>  <r_lp_Energy>  (137) 
10.3467

>  <b_lp_Chiralities_Consistent>  (137) 
1

>  <s_lp_Variant>  (137) 
39:0-2

>  <s_i_glide_gridfile>  (137) 
pfpi4k_grid

>  <i_i_glide_lignum>  (137) 
14

>  <i_i_glide_rotatable_bonds>  (137) 
5

>  <r_i_docking_score>  (137) 
-2.56197

>  <r_i_glide_ligand_efficiency>  (137) 
-0.102479

>  <r_i_glide_ligand_efficiency_sa>  (137) 
-0.29965

>  <r_i_glide_ligand_efficiency_ln>  (137) 
-0.607265

>  <r_i_glide_gscore>  (137) 
-2.56197

>  <r_i_glide_lipo>  (137) 
-0.418615

>  <r_i_glide_hbond>  (137) 
0

>  <r_i_glide_metal>  (137) 
-0

>  <r_i_glide_rewards>  (137) 
-1.08684

>  <r_i_glide_evdw>  (137) 
-22.0946

>  <r_i_glide_ecoul>  (137) 
-4.46052

>  <r_i_glide_erotb>  (137) 
0.776058

>  <r_i_glide_esite>  (137) 
-0.0587663

>  <r_i_glide_emodel>  (137) 
-29.8075

>  <r_i_glide_energy>  (137) 
-26.5551

>  <r_i_glide_einternal>  (137) 
2.36526

>  <r_i_glide_intrahb_reward>  (137) 
-0

>  <i_i_glide_confnum>  (137) 
5

>  <i_i_glide_posenum>  (137) 
4

>  <r_i_glide_eff_state_penalty>  (137) 
0

>  <ligand_id>  (137) 
39

>  <original_smiles>  (137) 
C1COC(Cn2nnnc2C(C2CC2)N2CCC3(CC2)OCCO3)C1

>  <smiles>  (137) 
[H]C1([H])OC2(OC1([H])[H])C([H])([H])C([H])([H])[N+]([H])(C([H])(c1nnnn1C([H])([H])C1([H])OC([H])([H])C([H])([H])C1([H])[H])C1([H])C([H])([H])C1([H])[H])C([H])([H])C2([H])[H]

$$$$
41:0:0
     RDKit          3D

 30 33  0  0  1  0  0  0  0  0999 V2000
    8.2168   -3.2842   -1.0963 C   0  0  0  0  0  0  0  0  0  0  0  0
    7.8326   -3.2601    0.3846 C   0  0  0  0  0  0  0  0  0  0  0  0
    6.8390   -4.2767    0.6726 N   0  0  0  0  0  0  0  0  0  0  0  0
    5.4149   -4.3036    0.7024 C   0  0  0  0  0  0  0  0  0  0  0  0
    4.4578   -3.5837    0.5219 O   0  0  0  0  0  0  0  0  0  0  0  0
    5.4870   -5.7284    1.0952 C   0  0  0  0  0  0  0  0  0  0  0  0
    6.8972   -5.6428    1.0562 C   0  0  0  0  0  0  0  0  0  0  0  0
    7.7118   -6.7287    1.3514 C   0  0  0  0  0  0  0  0  0  0  0  0
    7.0706   -7.8845    1.6749 N   0  0  0  0  0  0  0  0  0  0  0  0
    5.6913   -7.9868    1.7096 C   0  0  0  0  0  0  0  0  0  0  0  0
    5.1298   -9.2382    2.0451 C   0  0  0  0  0  0  0  0  0  0  0  0
    3.7423   -9.4371    2.1151 C   0  0  0  0  0  0  0  0  0  0  0  0
    2.8720   -8.3647    1.8487 C   0  0  0  0  0  0  0  0  0  0  0  0
    1.4837   -8.5530    1.9317 C   0  0  0  0  0  0  0  0  0  0  0  0
    0.6419   -7.4697    1.6307 C   0  0  0  0  0  0  0  0  0  0  0  0
    1.0975   -6.2518    1.2709 N   0  0  0  0  0  0  0  0  0  0  0  0
    2.4331   -6.0771    1.2203 C   0  0  0  0  0  0  0  0  0  0  0  0
    3.3774   -7.0907    1.4937 C   0  0  0  0  0  0  0  0  0  0  0  0
    4.7821   -6.9051    1.4258 C   0  0  0  0  0  0  0  0  0  0  0  0
    8.9660   -2.5209   -1.3098 H   0  0  0  0  0  0  0  0  0  0  0  0
    7.3553   -3.1001   -1.7407 H   0  0  0  0  0  0  0  0  0  0  0  0
    8.6440   -4.2478   -1.3826 H   0  0  0  0  0  0  0  0  0  0  0  0
    8.7065   -3.4471    1.0061 H   0  0  0  0  0  0  0  0  0  0  0  0
    7.4389   -2.2834    0.6597 H   0  0  0  0  0  0  0  0  0  0  0  0
    8.7895   -6.6891    1.3255 H   0  0  0  0  0  0  0  0  0  0  0  0
    5.7852  -10.0695    2.2594 H   0  0  0  0  0  0  0  0  0  0  0  0
    3.3623  -10.4195    2.3743 H   0  0  0  0  0  0  0  0  0  0  0  0
    1.0587   -9.5193    2.1748 H   0  0  0  0  0  0  0  0  0  0  0  0
   -0.4334   -7.5818    1.6548 H   0  0  0  0  0  0  0  0  0  0  0  0
    2.7414   -5.0889    0.9527 H   0  0  0  0  0  0  0  0  0  0  0  0
  1  2  1  0
  1 20  1  0
  1 21  1  0
  1 22  1  0
  2  3  1  0
  2 23  1  0
  2 24  1  0
  3  7  1  0
  3  4  1  0
  4  5  2  0
  4  6  1  0
  6 19  2  0
  6  7  1  0
  7  8  2  0
  8  9  1  0
  8 25  1  0
  9 10  2  0
 10 19  1  0
 10 11  1  0
 11 12  2  0
 11 26  1  0
 12 13  1  0
 12 27  1  0
 13 18  2  0
 13 14  1  0
 14 15  2  0
 14 28  1  0
 15 16  1  0
 15 29  1  0
 16 17  2  0
 17 18  1  0
 17 30  1  0
 18 19  1  0
M  END
>  <i_m_ct_stereo_status>  (138) 
1

>  <s_m_source_file>  (138) 
/var/tmp/pbs.5076255.sched01/tmp0glzbzrw/400n8fk_jm.sdf

>  <i_m_source_file_index>  (138) 
16

>  <i_lp_mmshare_version>  (138) 
48012

>  <i_f3d_flags>  (138) 
0

>  <s_epik_input>  (138) 
W0NIM11bQ0gyXU4oQzE9TyljKGMxMilbY0hdbmMzYzJjNGMoW2NIXVtjSF0zKVtjSF1bY0hdbltjSF00

>  <s_epik_cmdline>  (138) 
J2VwaWtfcHl0aG9uJywgJy1waHQnLCAnMi4wJywgJy1waCcsICc3LjAnLCAnLXRuJywgJzgnLCAnLW1hJywgJzIwMCcsICctaW1hZScsICc8aW5maWxlLm1hZT4nLCAnLW9tYWUnLCAnPG91dGZpbGUubWFlPic=

>  <r_lp_tautomer_probability>  (138) 
1

>  <r_epik_Ionization_Penalty>  (138) 
3.56003e-05

>  <r_epik_Ionization_Penalty_Charging>  (138) 
0

>  <r_epik_Ionization_Penalty_Neutral>  (138) 
3.56003e-05

>  <r_epik_State_Penalty>  (138) 
-0

>  <r_epik_Charging_Adjusted_Penalty>  (138) 
0

>  <i_epik_Tot_Q>  (138) 
0

>  <i_epik_Tot_abs_Q>  (138) 
0

>  <s_lp_Force_Field>  (138) 
OPLS3e

>  <r_lp_Energy>  (138) 
38.3963

>  <b_lp_Chiralities_Consistent>  (138) 
1

>  <s_lp_Variant>  (138) 
41:0-1

>  <s_i_glide_gridfile>  (138) 
pfpi4k_grid

>  <i_i_glide_lignum>  (138) 
16

>  <i_i_glide_rotatable_bonds>  (138) 
1

>  <r_i_docking_score>  (138) 
-4.36818

>  <r_i_glide_ligand_efficiency>  (138) 
-0.229904

>  <r_i_glide_ligand_efficiency_sa>  (138) 
-0.613477

>  <r_i_glide_ligand_efficiency_ln>  (138) 
-1.10743

>  <r_i_glide_gscore>  (138) 
-4.36818

>  <r_i_glide_lipo>  (138) 
-0.610039

>  <r_i_glide_hbond>  (138) 
-0.149162

>  <r_i_glide_metal>  (138) 
-0

>  <r_i_glide_rewards>  (138) 
-1.95876

>  <r_i_glide_evdw>  (138) 
-22.9192

>  <r_i_glide_ecoul>  (138) 
-3.36178

>  <r_i_glide_erotb>  (138) 
0

>  <r_i_glide_esite>  (138) 
0

>  <r_i_glide_emodel>  (138) 
-34.2664

>  <r_i_glide_energy>  (138) 
-26.281

>  <r_i_glide_einternal>  (138) 
4.41324e-06

>  <r_i_glide_intrahb_reward>  (138) 
-0

>  <i_i_glide_confnum>  (138) 
1

>  <i_i_glide_posenum>  (138) 
18

>  <r_i_glide_eff_state_penalty>  (138) 
0

>  <ligand_id>  (138) 
41

>  <original_smiles>  (138) 
CCN1C(=O)c2c1cnc1ccc3ccncc3c21

>  <smiles>  (138) 
[H]c1nc2c([H])c([H])c3c([H])c([H])nc([H])c3c2c2c1N(C([H])([H])C([H])([H])[H])C2=O

$$$$
41:0:1
     RDKit          3D

 30 33  0  0  1  0  0  0  0  0999 V2000
    7.2804   -4.9360    0.4940 C   0  0  0  0  0  0  0  0  0  0  0  0
    5.8650   -4.5943    0.0136 C   0  0  0  0  0  0  0  0  0  0  0  0
    4.8859   -5.5209    0.5558 N   0  0  0  0  0  0  0  0  0  0  0  0
    3.4742   -5.4699    0.7659 C   0  0  0  0  0  0  0  0  0  0  0  0
    2.5266   -4.7310    0.6343 O   0  0  0  0  0  0  0  0  0  0  0  0
    3.5393   -6.8441    1.2895 C   0  0  0  0  0  0  0  0  0  0  0  0
    4.9317   -6.8472    1.0655 C   0  0  0  0  0  0  0  0  0  0  0  0
    5.7215   -7.9467    1.3582 C   0  0  0  0  0  0  0  0  0  0  0  0
    5.0672   -9.0279    1.8706 N   0  0  0  0  0  0  0  0  0  0  0  0
    3.7044   -9.0374    2.0928 C   0  0  0  0  0  0  0  0  0  0  0  0
    3.1356  -10.2132    2.6365 C   0  0  0  0  0  0  0  0  0  0  0  0
    1.7625  -10.3233    2.9027 C   0  0  0  0  0  0  0  0  0  0  0  0
    0.9135   -9.2409    2.6255 C   0  0  0  0  0  0  0  0  0  0  0  0
   -0.4642   -9.3352    2.8818 C   0  0  0  0  0  0  0  0  0  0  0  0
   -1.2713   -8.2251    2.5959 C   0  0  0  0  0  0  0  0  0  0  0  0
   -0.7982   -7.0587    2.0984 N   0  0  0  0  0  0  0  0  0  0  0  0
    0.5183   -6.9940    1.8375 C   0  0  0  0  0  0  0  0  0  0  0  0
    1.4313   -8.0349    2.0811 C   0  0  0  0  0  0  0  0  0  0  0  0
    2.8220   -7.9383    1.8208 C   0  0  0  0  0  0  0  0  0  0  0  0
    8.0088   -4.2506    0.0623 H   0  0  0  0  0  0  0  0  0  0  0  0
    7.5700   -5.9501    0.2051 H   0  0  0  0  0  0  0  0  0  0  0  0
    7.3589   -4.8683    1.5823 H   0  0  0  0  0  0  0  0  0  0  0  0
    5.6013   -3.5776    0.3116 H   0  0  0  0  0  0  0  0  0  0  0  0
    5.8055   -4.6401   -1.0734 H   0  0  0  0  0  0  0  0  0  0  0  0
    6.7924   -7.9872    1.1925 H   0  0  0  0  0  0  0  0  0  0  0  0
    3.7769  -11.0561    2.8385 H   0  0  0  0  0  0  0  0  0  0  0  0
    1.3746  -11.2499    3.3121 H   0  0  0  0  0  0  0  0  0  0  0  0
   -0.8951  -10.2407    3.2903 H   0  0  0  0  0  0  0  0  0  0  0  0
   -2.3338   -8.2621    2.7823 H   0  0  0  0  0  0  0  0  0  0  0  0
    0.8390   -6.0594    1.4339 H   0  0  0  0  0  0  0  0  0  0  0  0
  1  2  1  0
  1 20  1  0
  1 21  1  0
  1 22  1  0
  2  3  1  0
  2 23  1  0
  2 24  1  0
  3  7  1  0
  3  4  1  0
  4  5  2  0
  4  6  1  0
  6 19  2  0
  6  7  1  0
  7  8  2  0
  8  9  1  0
  8 25  1  0
  9 10  2  0
 10 19  1  0
 10 11  1  0
 11 12  2  0
 11 26  1  0
 12 13  1  0
 12 27  1  0
 13 18  2  0
 13 14  1  0
 14 15  2  0
 14 28  1  0
 15 16  1  0
 15 29  1  0
 16 17  2  0
 17 18  1  0
 17 30  1  0
 18 19  1  0
M  END
>  <i_m_ct_stereo_status>  (139) 
1

>  <s_m_source_file>  (139) 
/var/tmp/pbs.5076255.sched01/tmp0glzbzrw/400n8fk_jm.sdf

>  <i_m_source_file_index>  (139) 
16

>  <i_lp_mmshare_version>  (139) 
48012

>  <i_f3d_flags>  (139) 
0

>  <s_epik_input>  (139) 
W0NIM11bQ0gyXU4oQzE9TyljKGMxMilbY0hdbmMzYzJjNGMoW2NIXVtjSF0zKVtjSF1bY0hdbltjSF00

>  <s_epik_cmdline>  (139) 
J2VwaWtfcHl0aG9uJywgJy1waHQnLCAnMi4wJywgJy1waCcsICc3LjAnLCAnLXRuJywgJzgnLCAnLW1hJywgJzIwMCcsICctaW1hZScsICc8aW5maWxlLm1hZT4nLCAnLW9tYWUnLCAnPG91dGZpbGUubWFlPic=

>  <r_lp_tautomer_probability>  (139) 
1

>  <r_epik_Ionization_Penalty>  (139) 
3.56003e-05

>  <r_epik_Ionization_Penalty_Charging>  (139) 
0

>  <r_epik_Ionization_Penalty_Neutral>  (139) 
3.56003e-05

>  <r_epik_State_Penalty>  (139) 
-0

>  <r_epik_Charging_Adjusted_Penalty>  (139) 
0

>  <i_epik_Tot_Q>  (139) 
0

>  <i_epik_Tot_abs_Q>  (139) 
0

>  <s_lp_Force_Field>  (139) 
OPLS3e

>  <r_lp_Energy>  (139) 
38.3963

>  <b_lp_Chiralities_Consistent>  (139) 
1

>  <s_lp_Variant>  (139) 
41:0-1

>  <s_i_glide_gridfile>  (139) 
pfpi4k_grid

>  <i_i_glide_lignum>  (139) 
16

>  <i_i_glide_rotatable_bonds>  (139) 
1

>  <r_i_docking_score>  (139) 
-4.1252

>  <r_i_glide_ligand_efficiency>  (139) 
-0.217116

>  <r_i_glide_ligand_efficiency_sa>  (139) 
-0.579353

>  <r_i_glide_ligand_efficiency_ln>  (139) 
-1.04583

>  <r_i_glide_gscore>  (139) 
-4.1252

>  <r_i_glide_lipo>  (139) 
-0.557934

>  <r_i_glide_hbond>  (139) 
-0.16

>  <r_i_glide_metal>  (139) 
-0

>  <r_i_glide_rewards>  (139) 
-1.83257

>  <r_i_glide_evdw>  (139) 
-24.5708

>  <r_i_glide_ecoul>  (139) 
-2.27558

>  <r_i_glide_erotb>  (139) 
0

>  <r_i_glide_esite>  (139) 
-0.0048191

>  <r_i_glide_emodel>  (139) 
-34.2001

>  <r_i_glide_energy>  (139) 
-26.8464

>  <r_i_glide_einternal>  (139) 
0.305725

>  <r_i_glide_intrahb_reward>  (139) 
-0

>  <i_i_glide_confnum>  (139) 
2

>  <i_i_glide_posenum>  (139) 
36

>  <r_i_glide_eff_state_penalty>  (139) 
0

>  <ligand_id>  (139) 
41

>  <original_smiles>  (139) 
CCN1C(=O)c2c1cnc1ccc3ccncc3c21

>  <smiles>  (139) 
[H]c1nc2c([H])c([H])c3c([H])c([H])nc([H])c3c2c2c1N(C([H])([H])C([H])([H])[H])C2=O

$$$$
41:0:2
     RDKit          3D

 30 33  0  0  1  0  0  0  0  0999 V2000
    5.1173   -4.1957   -1.4913 C   0  0  0  0  0  0  0  0  0  0  0  0
    5.5514   -4.6294   -0.0881 C   0  0  0  0  0  0  0  0  0  0  0  0
    4.5922   -5.5425    0.5065 N   0  0  0  0  0  0  0  0  0  0  0  0
    3.2028   -5.4820    0.8154 C   0  0  0  0  0  0  0  0  0  0  0  0
    2.2511   -4.7361    0.7394 O   0  0  0  0  0  0  0  0  0  0  0  0
    3.3003   -6.8569    1.3493 C   0  0  0  0  0  0  0  0  0  0  0  0
    4.6728   -6.8616    1.0252 C   0  0  0  0  0  0  0  0  0  0  0  0
    5.4845   -7.9605    1.2810 C   0  0  0  0  0  0  0  0  0  0  0  0
    4.8802   -9.0373    1.8415 N   0  0  0  0  0  0  0  0  0  0  0  0
    3.5331   -9.0524    2.1565 C   0  0  0  0  0  0  0  0  0  0  0  0
    2.9985  -10.2226    2.7404 C   0  0  0  0  0  0  0  0  0  0  0  0
    1.6452  -10.3250    3.1004 C   0  0  0  0  0  0  0  0  0  0  0  0
    0.7822   -9.2379    2.8748 C   0  0  0  0  0  0  0  0  0  0  0  0
   -0.5728   -9.3291    3.2263 C   0  0  0  0  0  0  0  0  0  0  0  0
   -1.4060   -8.2216    2.9958 C   0  0  0  0  0  0  0  0  0  0  0  0
   -0.9679   -7.0606    2.4579 N   0  0  0  0  0  0  0  0  0  0  0  0
    0.3305   -7.0009    2.1077 C   0  0  0  0  0  0  0  0  0  0  0  0
    1.2624   -8.0420    2.2920 C   0  0  0  0  0  0  0  0  0  0  0  0
    2.6309   -7.9518    1.9363 C   0  0  0  0  0  0  0  0  0  0  0  0
    5.8489   -3.5198   -1.9326 H   0  0  0  0  0  0  0  0  0  0  0  0
    4.1550   -3.6819   -1.4729 H   0  0  0  0  0  0  0  0  0  0  0  0
    5.0149   -5.0548   -2.1576 H   0  0  0  0  0  0  0  0  0  0  0  0
    6.5162   -5.1310   -0.1279 H   0  0  0  0  0  0  0  0  0  0  0  0
    5.6682   -3.7629    0.5594 H   0  0  0  0  0  0  0  0  0  0  0  0
    6.5353   -7.9983    1.0364 H   0  0  0  0  0  0  0  0  0  0  0  0
    3.6515  -11.0662    2.9071 H   0  0  0  0  0  0  0  0  0  0  0  0
    1.2844  -11.2463    3.5441 H   0  0  0  0  0  0  0  0  0  0  0  0
   -0.9728  -10.2283    3.6754 H   0  0  0  0  0  0  0  0  0  0  0  0
   -2.4555   -8.2612    3.2552 H   0  0  0  0  0  0  0  0  0  0  0  0
    0.6183   -6.0690    1.6733 H   0  0  0  0  0  0  0  0  0  0  0  0
  1  2  1  0
  1 20  1  0
  1 21  1  0
  1 22  1  0
  2  3  1  0
  2 23  1  0
  2 24  1  0
  3  7  1  0
  3  4  1  0
  4  5  2  0
  4  6  1  0
  6 19  2  0
  6  7  1  0
  7  8  2  0
  8  9  1  0
  8 25  1  0
  9 10  2  0
 10 19  1  0
 10 11  1  0
 11 12  2  0
 11 26  1  0
 12 13  1  0
 12 27  1  0
 13 18  2  0
 13 14  1  0
 14 15  2  0
 14 28  1  0
 15 16  1  0
 15 29  1  0
 16 17  2  0
 17 18  1  0
 17 30  1  0
 18 19  1  0
M  END
>  <i_m_ct_stereo_status>  (140) 
1

>  <s_m_source_file>  (140) 
/var/tmp/pbs.5076255.sched01/tmp0glzbzrw/400n8fk_jm.sdf

>  <i_m_source_file_index>  (140) 
16

>  <i_lp_mmshare_version>  (140) 
48012

>  <i_f3d_flags>  (140) 
0

>  <s_epik_input>  (140) 
W0NIM11bQ0gyXU4oQzE9TyljKGMxMilbY0hdbmMzYzJjNGMoW2NIXVtjSF0zKVtjSF1bY0hdbltjSF00

>  <s_epik_cmdline>  (140) 
J2VwaWtfcHl0aG9uJywgJy1waHQnLCAnMi4wJywgJy1waCcsICc3LjAnLCAnLXRuJywgJzgnLCAnLW1hJywgJzIwMCcsICctaW1hZScsICc8aW5maWxlLm1hZT4nLCAnLW9tYWUnLCAnPG91dGZpbGUubWFlPic=

>  <r_lp_tautomer_probability>  (140) 
1

>  <r_epik_Ionization_Penalty>  (140) 
3.56003e-05

>  <r_epik_Ionization_Penalty_Charging>  (140) 
0

>  <r_epik_Ionization_Penalty_Neutral>  (140) 
3.56003e-05

>  <r_epik_State_Penalty>  (140) 
-0

>  <r_epik_Charging_Adjusted_Penalty>  (140) 
0

>  <i_epik_Tot_Q>  (140) 
0

>  <i_epik_Tot_abs_Q>  (140) 
0

>  <s_lp_Force_Field>  (140) 
OPLS3e

>  <r_lp_Energy>  (140) 
38.3963

>  <b_lp_Chiralities_Consistent>  (140) 
1

>  <s_lp_Variant>  (140) 
41:0-1

>  <s_i_glide_gridfile>  (140) 
pfpi4k_grid

>  <i_i_glide_lignum>  (140) 
16

>  <i_i_glide_rotatable_bonds>  (140) 
1

>  <r_i_docking_score>  (140) 
-4.04891

>  <r_i_glide_ligand_efficiency>  (140) 
-0.2131

>  <r_i_glide_ligand_efficiency_sa>  (140) 
-0.568638

>  <r_i_glide_ligand_efficiency_ln>  (140) 
-1.02649

>  <r_i_glide_gscore>  (140) 
-4.04891

>  <r_i_glide_lipo>  (140) 
-0.399805

>  <r_i_glide_hbond>  (140) 
-0.173439

>  <r_i_glide_metal>  (140) 
-0

>  <r_i_glide_rewards>  (140) 
-1.82059

>  <r_i_glide_evdw>  (140) 
-24.6288

>  <r_i_glide_ecoul>  (140) 
-2.7483

>  <r_i_glide_erotb>  (140) 
0

>  <r_i_glide_esite>  (140) 
-0.0113934

>  <r_i_glide_emodel>  (140) 
-34.6795

>  <r_i_glide_energy>  (140) 
-27.3771

>  <r_i_glide_einternal>  (140) 
0.185159

>  <r_i_glide_intrahb_reward>  (140) 
-0

>  <i_i_glide_confnum>  (140) 
1

>  <i_i_glide_posenum>  (140) 
28

>  <r_i_glide_eff_state_penalty>  (140) 
0

>  <ligand_id>  (140) 
41

>  <original_smiles>  (140) 
CCN1C(=O)c2c1cnc1ccc3ccncc3c21

>  <smiles>  (140) 
[H]c1nc2c([H])c([H])c3c([H])c([H])nc([H])c3c2c2c1N(C([H])([H])C([H])([H])[H])C2=O

$$$$
42:0:0
     RDKit          3D

 62 66  0  0  1  0  0  0  0  0999 V2000
    2.9398   -3.1601    2.8124 C   0  0  0  0  0  0  0  0  0  0  0  0
    3.6781   -3.9806    1.7099 C   0  0  2  0  0  0  0  0  0  0  0  0
    2.6345   -4.7316    0.8506 C   0  0  0  0  0  0  0  0  0  0  0  0
    1.7578   -5.6998    1.6674 C   0  0  1  0  0  0  0  0  0  0  0  0
    0.8118   -6.2580    0.7748 O   0  0  0  0  0  0  0  0  0  0  0  0
    2.5373   -6.7905    2.4686 C   0  0  1  0  0  0  0  0  0  0  0  0
    3.0505   -7.6102    1.5481 F   0  0  0  0  0  0  0  0  0  0  0  0
    3.7581   -6.1462    3.2010 C   0  0  1  0  0  0  0  0  0  0  0  0
    4.6514   -7.2321    3.8371 C   0  0  0  0  0  0  0  0  0  0  0  0
    3.8461   -8.2091    4.6586 C   0  0  0  0  0  0  0  0  0  0  0  0
    2.5257   -8.4129    4.5136 C   0  0  0  0  0  0  0  0  0  0  0  0
    1.7604   -9.2628    5.5269 C   0  0  0  0  0  0  0  0  0  0  0  0
    0.7167   -8.3896    6.2256 C   0  0  0  0  0  0  0  0  0  0  0  0
    0.3201   -8.7026    7.3476 O   0  0  0  0  0  0  0  0  0  0  0  0
    0.2052   -7.2058    5.5135 C   0  0  0  0  0  0  0  0  0  0  0  0
    0.6165   -6.9021    4.2629 C   0  0  0  0  0  0  0  0  0  0  0  0
    1.6591   -7.6911    3.4550 C   0  0  1  0  0  0  0  0  0  0  0  0
    0.8715   -8.7631    2.6535 C   0  0  0  0  0  0  0  0  0  0  0  0
    4.5798   -5.0620    2.4024 C   0  0  1  0  0  0  0  0  0  0  0  0
    5.7313   -5.6106    1.5024 C   0  0  1  0  0  0  0  0  0  0  0  0
    5.3080   -6.5109    0.5054 O   0  0  0  0  0  0  0  0  0  0  0  0
    6.5562   -4.4884    0.8557 C   0  0  0  0  0  0  0  0  0  0  0  0
    5.7187   -3.4771    0.0582 C   0  0  1  0  0  0  0  0  0  0  0  0
    5.3161   -3.9315   -1.3606 C   0  0  0  0  0  0  0  0  0  0  0  0
    4.6180   -2.8196   -2.1490 C   0  0  1  0  0  0  0  0  0  0  0  0
    4.1937   -3.3316   -3.3990 O   0  0  0  0  0  0  0  0  0  0  0  0
    3.4174   -2.2551   -1.3757 C   0  0  0  0  0  0  0  0  0  0  0  0
    3.7882   -1.8490    0.0690 C   0  0  0  0  0  0  0  0  0  0  0  0
    4.5407   -2.9301    0.8972 C   0  0  1  0  0  0  0  0  0  0  0  0
    2.1961   -2.4855    2.3888 H   0  0  0  0  0  0  0  0  0  0  0  0
    3.6332   -2.5559    3.4002 H   0  0  0  0  0  0  0  0  0  0  0  0
    2.4041   -3.7718    3.5348 H   0  0  0  0  0  0  0  0  0  0  0  0
    1.9794   -4.0057    0.3734 H   0  0  0  0  0  0  0  0  0  0  0  0
    3.1093   -5.2804    0.0448 H   0  0  0  0  0  0  0  0  0  0  0  0
    1.1835   -5.0787    2.3430 H   0  0  0  0  0  0  0  0  0  0  0  0
    1.2019   -7.0436    0.4185 H   0  0  0  0  0  0  0  0  0  0  0  0
    3.3376   -5.6221    4.0566 H   0  0  0  0  0  0  0  0  0  0  0  0
    5.1952   -7.8110    3.0899 H   0  0  0  0  0  0  0  0  0  0  0  0
    5.3881   -6.7637    4.4914 H   0  0  0  0  0  0  0  0  0  0  0  0
    4.3910   -8.7339    5.4314 H   0  0  0  0  0  0  0  0  0  0  0  0
    1.2806  -10.1166    5.0475 H   0  0  0  0  0  0  0  0  0  0  0  0
    2.4468   -9.6677    6.2713 H   0  0  0  0  0  0  0  0  0  0  0  0
   -0.5404   -6.6054    6.0169 H   0  0  0  0  0  0  0  0  0  0  0  0
    0.1558   -6.0472    3.7981 H   0  0  0  0  0  0  0  0  0  0  0  0
    0.2378   -9.3756    3.2949 H   0  0  0  0  0  0  0  0  0  0  0  0
    1.5363   -9.4461    2.1240 H   0  0  0  0  0  0  0  0  0  0  0  0
    0.1933   -8.3289    1.9259 H   0  0  0  0  0  0  0  0  0  0  0  0
    5.1264   -4.5210    3.1756 H   0  0  0  0  0  0  0  0  0  0  0  0
    6.4283   -6.1691    2.1258 H   0  0  0  0  0  0  0  0  0  0  0  0
    4.7247   -6.0553   -0.0823 H   0  0  0  0  0  0  0  0  0  0  0  0
    7.0573   -3.9427    1.6556 H   0  0  0  0  0  0  0  0  0  0  0  0
    7.3541   -4.8992    0.2364 H   0  0  0  0  0  0  0  0  0  0  0  0
    6.3870   -2.6319   -0.1146 H   0  0  0  0  0  0  0  0  0  0  0  0
    6.2105   -4.2169   -1.9056 H   0  0  0  0  0  0  0  0  0  0  0  0
    4.6785   -4.8105   -1.3368 H   0  0  0  0  0  0  0  0  0  0  0  0
    5.3290   -2.0155   -2.3341 H   0  0  0  0  0  0  0  0  0  0  0  0
    3.5984   -4.0547   -3.2368 H   0  0  0  0  0  0  0  0  0  0  0  0
    3.0374   -1.3754   -1.8991 H   0  0  0  0  0  0  0  0  0  0  0  0
    2.5948   -2.9658   -1.3816 H   0  0  0  0  0  0  0  0  0  0  0  0
    4.4367   -0.9722    0.0013 H   0  0  0  0  0  0  0  0  0  0  0  0
    2.8959   -1.4975    0.5789 H   0  0  0  0  0  0  0  0  0  0  0  0
    5.0380   -2.3574    1.6812 H   0  0  0  0  0  0  0  0  0  0  0  0
  2  1  1  1
  1 30  1  0
  1 31  1  0
  1 32  1  0
  2 19  1  0
  2 29  1  0
  2  3  1  0
  3  4  1  0
  3 33  1  0
  3 34  1  0
  4  5  1  0
  4  6  1  0
  4 35  1  1
  5 36  1  0
  6 17  1  0
  6  7  1  6
  6  8  1  0
  8  9  1  0
  8 19  1  0
  8 37  1  1
  9 10  1  0
  9 38  1  0
  9 39  1  0
 10 11  2  0
 10 40  1  0
 11 17  1  0
 11 12  1  0
 12 13  1  0
 12 41  1  0
 12 42  1  0
 13 14  2  0
 13 15  1  0
 15 16  2  0
 15 43  1  0
 16 17  1  0
 16 44  1  0
 17 18  1  6
 18 45  1  0
 18 46  1  0
 18 47  1  0
 19 20  1  0
 19 48  1  1
 20 21  1  0
 20 22  1  0
 20 49  1  1
 21 50  1  0
 22 23  1  0
 22 51  1  0
 22 52  1  0
 23 29  1  0
 23 24  1  0
 23 53  1  6
 24 25  1  0
 24 54  1  0
 24 55  1  0
 25 26  1  0
 25 27  1  0
 25 56  1  6
 26 57  1  0
 27 28  1  0
 27 58  1  0
 27 59  1  0
 28 29  1  0
 28 60  1  0
 28 61  1  0
 29 62  1  1
M  END
>  <i_m_ct_stereo_status>  (141) 
1

>  <s_m_source_file>  (141) 
/var/tmp/pbs.5076255.sched01/tmp0glzbzrw/400n8fk_jm.sdf

>  <i_m_source_file_index>  (141) 
17

>  <i_lp_mmshare_version>  (141) 
48012

>  <i_f3d_flags>  (141) 
0

>  <s_epik_input>  (141) 
W0NIMl0xW0NAQEhdKFtPSF0pW0NIMl1bQ0gyXVtDQEBIXTJbQ0BIXTFbQ0gyXVtDQEhdKFtPSF0pW0NAQEhdKFtDQEBdMjNbQ0gzXSlbQ0BIXTRbQ0BdKEYpKFtDQEBIXShbQ0gyXTMpW09IXSlbQ0BAXTUoW0NIM10pQyg9W0NIXVtDSDJdNClbQ0gyXUMoPU8pW0NIXT1bQ0hdNQ==

>  <s_epik_cmdline>  (141) 
J2VwaWtfcHl0aG9uJywgJy1waHQnLCAnMi4wJywgJy1waCcsICc3LjAnLCAnLXRuJywgJzgnLCAnLW1hJywgJzIwMCcsICctaW1hZScsICc8aW5maWxlLm1hZT4nLCAnLW9tYWUnLCAnPG91dGZpbGUubWFlPic=

>  <r_lp_tautomer_probability>  (141) 
1

>  <r_epik_Ionization_Penalty>  (141) 
4.13563e-06

>  <r_epik_Ionization_Penalty_Charging>  (141) 
0

>  <r_epik_Ionization_Penalty_Neutral>  (141) 
4.13563e-06

>  <r_epik_State_Penalty>  (141) 
-0

>  <r_epik_Charging_Adjusted_Penalty>  (141) 
0

>  <i_epik_Tot_Q>  (141) 
0

>  <i_epik_Tot_abs_Q>  (141) 
0

>  <s_lp_Force_Field>  (141) 
OPLS3e

>  <r_lp_Energy>  (141) 
62.3415

>  <b_lp_Chiralities_Consistent>  (141) 
1

>  <s_lp_Variant>  (141) 
42:0-1

>  <s_i_glide_gridfile>  (141) 
pfpi4k_grid

>  <i_i_glide_lignum>  (141) 
17

>  <i_i_glide_rotatable_bonds>  (141) 
3

>  <r_i_docking_score>  (141) 
-4.08719

>  <r_i_glide_ligand_efficiency>  (141) 
-0.140938

>  <r_i_glide_ligand_efficiency_sa>  (141) 
-0.433005

>  <r_i_glide_ligand_efficiency_ln>  (141) 
-0.935862

>  <r_i_glide_gscore>  (141) 
-4.08719

>  <r_i_glide_lipo>  (141) 
-0.304463

>  <r_i_glide_hbond>  (141) 
-0.330156

>  <r_i_glide_metal>  (141) 
-0

>  <r_i_glide_rewards>  (141) 
-0.684721

>  <r_i_glide_evdw>  (141) 
-28.4905

>  <r_i_glide_ecoul>  (141) 
-8.75673

>  <r_i_glide_erotb>  (141) 
0

>  <r_i_glide_esite>  (141) 
-0.0298119

>  <r_i_glide_emodel>  (141) 
-45.8945

>  <r_i_glide_energy>  (141) 
-37.2473

>  <r_i_glide_einternal>  (141) 
0.554831

>  <r_i_glide_intrahb_reward>  (141) 
-0

>  <i_i_glide_confnum>  (141) 
1

>  <i_i_glide_posenum>  (141) 
14

>  <r_i_glide_eff_state_penalty>  (141) 
0

>  <ligand_id>  (141) 
42

>  <original_smiles>  (141) 
CC12CC(O)C3(F)C(CC=C4CC(=O)C=CC43C)C1C(O)CC1CC(O)CCC12

>  <smiles>  (141) 
[H]OC1([H])C([H])([H])C([H])([H])C2([H])C([H])(C1([H])[H])C([H])([H])C([H])(O[H])C1([H])C3([H])C([H])([H])C([H])=C4C([H])([H])C(=O)C([H])=C([H])C4(C([H])([H])[H])C3(F)C([H])(O[H])C([H])([H])C21C([H])([H])[H]

$$$$
42:0:1
     RDKit          3D

 62 66  0  0  1  0  0  0  0  0999 V2000
    3.2110   -2.3066    2.2801 C   0  0  0  0  0  0  0  0  0  0  0  0
    3.9968   -3.2302    1.3001 C   0  0  2  0  0  0  0  0  0  0  0  0
    3.0023   -4.1845    0.5992 C   0  0  0  0  0  0  0  0  0  0  0  0
    2.2250   -5.0854    1.5752 C   0  0  1  0  0  0  0  0  0  0  0  0
    1.3377   -5.8633    0.7924 O   0  0  0  0  0  0  0  0  0  0  0  0
    3.1136   -5.9652    2.5153 C   0  0  1  0  0  0  0  0  0  0  0  0
    3.7031   -6.8673    1.7271 F   0  0  0  0  0  0  0  0  0  0  0  0
    4.2848   -5.1162    3.1068 C   0  0  1  0  0  0  0  0  0  0  0  0
    5.2796   -6.0110    3.8784 C   0  0  0  0  0  0  0  0  0  0  0  0
    4.5727   -6.9066    4.8634 C   0  0  0  0  0  0  0  0  0  0  0  0
    3.2739   -7.2369    4.7890 C   0  0  0  0  0  0  0  0  0  0  0  0
    2.6023   -7.9775    5.9438 C   0  0  0  0  0  0  0  0  0  0  0  0
    1.4960   -7.0969    6.5302 C   0  0  0  0  0  0  0  0  0  0  0  0
    1.1486   -7.2685    7.6954 O   0  0  0  0  0  0  0  0  0  0  0  0
    0.8666   -6.0864    5.6582 C   0  0  0  0  0  0  0  0  0  0  0  0
    1.2336   -5.9472    4.3652 C   0  0  0  0  0  0  0  0  0  0  0  0
    2.3292   -6.7665    3.6568 C   0  0  1  0  0  0  0  0  0  0  0  0
    1.6254   -8.0141    3.0585 C   0  0  0  0  0  0  0  0  0  0  0  0
    4.9995   -4.1085    2.1268 C   0  0  1  0  0  0  0  0  0  0  0  0
    6.1834   -4.6995    1.2983 C   0  0  1  0  0  0  0  0  0  0  0  0
    5.8208   -5.7866    0.4797 O   0  0  0  0  0  0  0  0  0  0  0  0
    6.8956   -3.6357    0.4493 C   0  0  0  0  0  0  0  0  0  0  0  0
    5.9638   -2.8372   -0.4722 C   0  0  1  0  0  0  0  0  0  0  0  0
    5.5765   -3.5444   -1.7891 C   0  0  0  0  0  0  0  0  0  0  0  0
    4.7637   -2.6309   -2.7176 C   0  0  1  0  0  0  0  0  0  0  0  0
    4.3460   -3.3558   -3.8581 O   0  0  0  0  0  0  0  0  0  0  0  0
    3.5387   -2.0419   -2.0047 C   0  0  0  0  0  0  0  0  0  0  0  0
    3.9100   -1.3855   -0.6589 C   0  0  0  0  0  0  0  0  0  0  0  0
    4.7590   -2.2594    0.3057 C   0  0  1  0  0  0  0  0  0  0  0  0
    2.4048   -1.7713    1.7769 H   0  0  0  0  0  0  0  0  0  0  0  0
    3.8591   -1.5613    2.7433 H   0  0  0  0  0  0  0  0  0  0  0  0
    2.7408   -2.8394    3.1025 H   0  0  0  0  0  0  0  0  0  0  0  0
    2.2740   -3.6004    0.0359 H   0  0  0  0  0  0  0  0  0  0  0  0
    3.5159   -4.8117   -0.1231 H   0  0  0  0  0  0  0  0  0  0  0  0
    1.6044   -4.4202    2.1630 H   0  0  0  0  0  0  0  0  0  0  0  0
    1.8595   -6.4825    0.3053 H   0  0  0  0  0  0  0  0  0  0  0  0
    3.8323   -4.4985    3.8826 H   0  0  0  0  0  0  0  0  0  0  0  0
    5.8598   -6.6565    3.2215 H   0  0  0  0  0  0  0  0  0  0  0  0
    5.9806   -5.3871    4.4301 H   0  0  0  0  0  0  0  0  0  0  0  0
    5.1740   -7.2588    5.6932 H   0  0  0  0  0  0  0  0  0  0  0  0
    2.1900   -8.9315    5.6206 H   0  0  0  0  0  0  0  0  0  0  0  0
    3.3302   -8.1980    6.7232 H   0  0  0  0  0  0  0  0  0  0  0  0
    0.0820   -5.4784    6.0868 H   0  0  0  0  0  0  0  0  0  0  0  0
    0.6939   -5.2182    3.7815 H   0  0  0  0  0  0  0  0  0  0  0  0
    1.0550   -8.5641    3.8070 H   0  0  0  0  0  0  0  0  0  0  0  0
    2.3387   -8.7156    2.6250 H   0  0  0  0  0  0  0  0  0  0  0  0
    0.9030   -7.7550    2.2909 H   0  0  0  0  0  0  0  0  0  0  0  0
    5.5068   -3.4085    2.7898 H   0  0  0  0  0  0  0  0  0  0  0  0
    6.9365   -5.0854    1.9865 H   0  0  0  0  0  0  0  0  0  0  0  0
    5.3892   -6.4349    1.0189 H   0  0  0  0  0  0  0  0  0  0  0  0
    7.3610   -2.9279    1.1357 H   0  0  0  0  0  0  0  0  0  0  0  0
    7.7131   -4.0746   -0.1220 H   0  0  0  0  0  0  0  0  0  0  0  0
    6.5530   -1.9769   -0.7951 H   0  0  0  0  0  0  0  0  0  0  0  0
    6.4845   -3.8449   -2.3101 H   0  0  0  0  0  0  0  0  0  0  0  0
    5.0205   -4.4576   -1.5979 H   0  0  0  0  0  0  0  0  0  0  0  0
    5.4035   -1.8144   -3.0487 H   0  0  0  0  0  0  0  0  0  0  0  0
    3.8090   -4.0814   -3.5628 H   0  0  0  0  0  0  0  0  0  0  0  0
    3.0810   -1.2882   -2.6480 H   0  0  0  0  0  0  0  0  0  0  0  0
    2.7739   -2.8033   -1.8747 H   0  0  0  0  0  0  0  0  0  0  0  0
    4.4827   -0.4837   -0.8820 H   0  0  0  0  0  0  0  0  0  0  0  0
    3.0143   -1.0262   -0.1701 H   0  0  0  0  0  0  0  0  0  0  0  0
    5.2159   -1.5289    0.9766 H   0  0  0  0  0  0  0  0  0  0  0  0
  2  1  1  1
  1 30  1  0
  1 31  1  0
  1 32  1  0
  2 19  1  0
  2 29  1  0
  2  3  1  0
  3  4  1  0
  3 33  1  0
  3 34  1  0
  4  5  1  0
  4  6  1  0
  4 35  1  1
  5 36  1  0
  6 17  1  0
  6  7  1  6
  6  8  1  0
  8  9  1  0
  8 19  1  0
  8 37  1  1
  9 10  1  0
  9 38  1  0
  9 39  1  0
 10 11  2  0
 10 40  1  0
 11 17  1  0
 11 12  1  0
 12 13  1  0
 12 41  1  0
 12 42  1  0
 13 14  2  0
 13 15  1  0
 15 16  2  0
 15 43  1  0
 16 17  1  0
 16 44  1  0
 17 18  1  6
 18 45  1  0
 18 46  1  0
 18 47  1  0
 19 20  1  0
 19 48  1  1
 20 21  1  0
 20 22  1  0
 20 49  1  1
 21 50  1  0
 22 23  1  0
 22 51  1  0
 22 52  1  0
 23 29  1  0
 23 24  1  0
 23 53  1  6
 24 25  1  0
 24 54  1  0
 24 55  1  0
 25 26  1  0
 25 27  1  0
 25 56  1  6
 26 57  1  0
 27 28  1  0
 27 58  1  0
 27 59  1  0
 28 29  1  0
 28 60  1  0
 28 61  1  0
 29 62  1  1
M  END
>  <i_m_ct_stereo_status>  (142) 
1

>  <s_m_source_file>  (142) 
/var/tmp/pbs.5076255.sched01/tmp0glzbzrw/400n8fk_jm.sdf

>  <i_m_source_file_index>  (142) 
17

>  <i_lp_mmshare_version>  (142) 
48012

>  <i_f3d_flags>  (142) 
0

>  <s_epik_input>  (142) 
W0NIMl0xW0NAQEhdKFtPSF0pW0NIMl1bQ0gyXVtDQEBIXTJbQ0BIXTFbQ0gyXVtDQEhdKFtPSF0pW0NAQEhdKFtDQEBdMjNbQ0gzXSlbQ0BIXTRbQ0BdKEYpKFtDQEBIXShbQ0gyXTMpW09IXSlbQ0BAXTUoW0NIM10pQyg9W0NIXVtDSDJdNClbQ0gyXUMoPU8pW0NIXT1bQ0hdNQ==

>  <s_epik_cmdline>  (142) 
J2VwaWtfcHl0aG9uJywgJy1waHQnLCAnMi4wJywgJy1waCcsICc3LjAnLCAnLXRuJywgJzgnLCAnLW1hJywgJzIwMCcsICctaW1hZScsICc8aW5maWxlLm1hZT4nLCAnLW9tYWUnLCAnPG91dGZpbGUubWFlPic=

>  <r_lp_tautomer_probability>  (142) 
1

>  <r_epik_Ionization_Penalty>  (142) 
4.13563e-06

>  <r_epik_Ionization_Penalty_Charging>  (142) 
0

>  <r_epik_Ionization_Penalty_Neutral>  (142) 
4.13563e-06

>  <r_epik_State_Penalty>  (142) 
-0

>  <r_epik_Charging_Adjusted_Penalty>  (142) 
0

>  <i_epik_Tot_Q>  (142) 
0

>  <i_epik_Tot_abs_Q>  (142) 
0

>  <s_lp_Force_Field>  (142) 
OPLS3e

>  <r_lp_Energy>  (142) 
62.3415

>  <b_lp_Chiralities_Consistent>  (142) 
1

>  <s_lp_Variant>  (142) 
42:0-1

>  <s_i_glide_gridfile>  (142) 
pfpi4k_grid

>  <i_i_glide_lignum>  (142) 
17

>  <i_i_glide_rotatable_bonds>  (142) 
3

>  <r_i_docking_score>  (142) 
-4.00841

>  <r_i_glide_ligand_efficiency>  (142) 
-0.138221

>  <r_i_glide_ligand_efficiency_sa>  (142) 
-0.424659

>  <r_i_glide_ligand_efficiency_ln>  (142) 
-0.917825

>  <r_i_glide_gscore>  (142) 
-4.00841

>  <r_i_glide_lipo>  (142) 
-0.50072

>  <r_i_glide_hbond>  (142) 
-0.211507

>  <r_i_glide_metal>  (142) 
-0

>  <r_i_glide_rewards>  (142) 
-0.714484

>  <r_i_glide_evdw>  (142) 
-28.0846

>  <r_i_glide_ecoul>  (142) 
-7.8307

>  <r_i_glide_erotb>  (142) 
0

>  <r_i_glide_esite>  (142) 
-0.00286807

>  <r_i_glide_emodel>  (142) 
-44.6971

>  <r_i_glide_energy>  (142) 
-35.9153

>  <r_i_glide_einternal>  (142) 
0.351024

>  <r_i_glide_intrahb_reward>  (142) 
-0

>  <i_i_glide_confnum>  (142) 
2

>  <i_i_glide_posenum>  (142) 
7

>  <r_i_glide_eff_state_penalty>  (142) 
0

>  <ligand_id>  (142) 
42

>  <original_smiles>  (142) 
CC12CC(O)C3(F)C(CC=C4CC(=O)C=CC43C)C1C(O)CC1CC(O)CCC12

>  <smiles>  (142) 
[H]OC1([H])C([H])([H])C([H])([H])C2([H])C([H])(C1([H])[H])C([H])([H])C([H])(O[H])C1([H])C3([H])C([H])([H])C([H])=C4C([H])([H])C(=O)C([H])=C([H])C4(C([H])([H])[H])C3(F)C([H])(O[H])C([H])([H])C21C([H])([H])[H]

$$$$
42:0:2
     RDKit          3D

 62 66  0  0  1  0  0  0  0  0999 V2000
    4.5680   -8.1609    2.4913 C   0  0  0  0  0  0  0  0  0  0  0  0
    3.5505   -7.4802    3.4572 C   0  0  2  0  0  0  0  0  0  0  0  0
    2.2952   -7.0735    2.6530 C   0  0  0  0  0  0  0  0  0  0  0  0
    2.5875   -6.0872    1.5081 C   0  0  1  0  0  0  0  0  0  0  0  0
    1.3502   -5.8711    0.8543 O   0  0  0  0  0  0  0  0  0  0  0  0
    3.3081   -4.7649    1.9473 C   0  0  1  0  0  0  0  0  0  0  0  0
    2.4237   -4.0742    2.6762 F   0  0  0  0  0  0  0  0  0  0  0  0
    4.4693   -5.0790    2.9363 C   0  0  1  0  0  0  0  0  0  0  0  0
    5.0529   -3.7766    3.5241 C   0  0  0  0  0  0  0  0  0  0  0  0
    5.4005   -2.7749    2.4515 C   0  0  0  0  0  0  0  0  0  0  0  0
    4.8605   -2.7826    1.2229 C   0  0  0  0  0  0  0  0  0  0  0  0
    5.4019   -1.8589    0.1417 C   0  0  0  0  0  0  0  0  0  0  0  0
    5.9665   -2.7121   -0.9937 C   0  0  0  0  0  0  0  0  0  0  0  0
    6.8626   -2.2617   -1.6951 O   0  0  0  0  0  0  0  0  0  0  0  0
    5.4047   -4.0566   -1.2052 C   0  0  0  0  0  0  0  0  0  0  0  0
    4.4447   -4.5600   -0.4074 C   0  0  0  0  0  0  0  0  0  0  0  0
    3.8066   -3.8180    0.7656 C   0  0  1  0  0  0  0  0  0  0  0  0
    2.6133   -3.0455    0.1618 C   0  0  0  0  0  0  0  0  0  0  0  0
    4.1925   -6.1712    4.0335 C   0  0  1  0  0  0  0  0  0  0  0  0
    3.5461   -5.6533    5.3589 C   0  0  1  0  0  0  0  0  0  0  0  0
    2.2953   -5.0198    5.1947 O   0  0  0  0  0  0  0  0  0  0  0  0
    3.4163   -6.7603    6.4162 C   0  0  0  0  0  0  0  0  0  0  0  0
    2.6735   -8.0108    5.9257 C   0  0  1  0  0  0  0  0  0  0  0  0
    1.1371   -7.8988    5.9356 C   0  0  0  0  0  0  0  0  0  0  0  0
    0.4892   -9.2452    5.5815 C   0  0  1  0  0  0  0  0  0  0  0  0
   -0.9007   -9.0517    5.4660 O   0  0  0  0  0  0  0  0  0  0  0  0
    0.9948   -9.7972    4.2475 C   0  0  0  0  0  0  0  0  0  0  0  0
    2.5335   -9.8562    4.1972 C   0  0  0  0  0  0  0  0  0  0  0  0
    3.2605   -8.5390    4.5952 C   0  0  1  0  0  0  0  0  0  0  0  0
    4.1230   -9.0006    1.9564 H   0  0  0  0  0  0  0  0  0  0  0  0
    5.4430   -8.5394    3.0250 H   0  0  0  0  0  0  0  0  0  0  0  0
    4.9587   -7.4970    1.7225 H   0  0  0  0  0  0  0  0  0  0  0  0
    1.8333   -7.9635    2.2252 H   0  0  0  0  0  0  0  0  0  0  0  0
    1.5615   -6.6230    3.3098 H   0  0  0  0  0  0  0  0  0  0  0  0
    3.2004   -6.6327    0.7986 H   0  0  0  0  0  0  0  0  0  0  0  0
    1.0480   -6.7207    0.5646 H   0  0  0  0  0  0  0  0  0  0  0  0
    5.2789   -5.4734    2.3239 H   0  0  0  0  0  0  0  0  0  0  0  0
    4.3767   -3.2781    4.2206 H   0  0  0  0  0  0  0  0  0  0  0  0
    5.9591   -4.0200    4.0779 H   0  0  0  0  0  0  0  0  0  0  0  0
    6.1524   -2.0384    2.7054 H   0  0  0  0  0  0  0  0  0  0  0  0
    4.6336   -1.1926   -0.2474 H   0  0  0  0  0  0  0  0  0  0  0  0
    6.2028   -1.2328    0.5358 H   0  0  0  0  0  0  0  0  0  0  0  0
    5.7594   -4.6171   -2.0524 H   0  0  0  0  0  0  0  0  0  0  0  0
    4.0677   -5.5358   -0.6579 H   0  0  0  0  0  0  0  0  0  0  0  0
    2.9071   -2.4071   -0.6766 H   0  0  0  0  0  0  0  0  0  0  0  0
    2.1436   -2.3901    0.8988 H   0  0  0  0  0  0  0  0  0  0  0  0
    1.8586   -3.7131   -0.2451 H   0  0  0  0  0  0  0  0  0  0  0  0
    5.1881   -6.4702    4.3668 H   0  0  0  0  0  0  0  0  0  0  0  0
    4.2030   -4.8998    5.7994 H   0  0  0  0  0  0  0  0  0  0  0  0
    2.3989   -4.3251    4.5597 H   0  0  0  0  0  0  0  0  0  0  0  0
    4.4260   -7.0681    6.6952 H   0  0  0  0  0  0  0  0  0  0  0  0
    2.9624   -6.3742    7.3314 H   0  0  0  0  0  0  0  0  0  0  0  0
    2.8820   -8.7731    6.6770 H   0  0  0  0  0  0  0  0  0  0  0  0
    0.8007   -7.5897    6.9263 H   0  0  0  0  0  0  0  0  0  0  0  0
    0.7932   -7.1278    5.2521 H   0  0  0  0  0  0  0  0  0  0  0  0
    0.6796   -9.9680    6.3757 H   0  0  0  0  0  0  0  0  0  0  0  0
   -1.3348   -9.9120    5.2922 H   0  0  0  0  0  0  0  0  0  0  0  0
    0.5937  -10.8034    4.1074 H   0  0  0  0  0  0  0  0  0  0  0  0
    0.5959   -9.2150    3.4181 H   0  0  0  0  0  0  0  0  0  0  0  0
    2.8383  -10.6324    4.9061 H   0  0  0  0  0  0  0  0  0  0  0  0
    2.8495  -10.2199    3.2222 H   0  0  0  0  0  0  0  0  0  0  0  0
    4.2569   -8.8773    4.8787 H   0  0  0  0  0  0  0  0  0  0  0  0
  2  1  1  6
  1 30  1  0
  1 31  1  0
  1 32  1  0
  2 19  1  0
  2 29  1  0
  2  3  1  0
  3  4  1  0
  3 33  1  0
  3 34  1  0
  4  5  1  0
  4  6  1  0
  4 35  1  6
  5 36  1  0
  6 17  1  0
  6  7  1  1
  6  8  1  0
  8  9  1  0
  8 19  1  0
  8 37  1  6
  9 10  1  0
  9 38  1  0
  9 39  1  0
 10 11  2  0
 10 40  1  0
 11 17  1  0
 11 12  1  0
 12 13  1  0
 12 41  1  0
 12 42  1  0
 13 14  2  0
 13 15  1  0
 15 16  2  0
 15 43  1  0
 16 17  1  0
 16 44  1  0
 17 18  1  6
 18 45  1  0
 18 46  1  0
 18 47  1  0
 19 20  1  0
 19 48  1  1
 20 21  1  0
 20 22  1  0
 20 49  1  1
 21 50  1  0
 22 23  1  0
 22 51  1  0
 22 52  1  0
 23 29  1  0
 23 24  1  0
 23 53  1  1
 24 25  1  0
 24 54  1  0
 24 55  1  0
 25 26  1  0
 25 27  1  0
 25 56  1  1
 26 57  1  0
 27 28  1  0
 27 58  1  0
 27 59  1  0
 28 29  1  0
 28 60  1  0
 28 61  1  0
 29 62  1  1
M  END
>  <i_m_ct_stereo_status>  (143) 
1

>  <s_m_source_file>  (143) 
/var/tmp/pbs.5076255.sched01/tmp0glzbzrw/400n8fk_jm.sdf

>  <i_m_source_file_index>  (143) 
17

>  <i_lp_mmshare_version>  (143) 
48012

>  <i_f3d_flags>  (143) 
0

>  <s_epik_input>  (143) 
W0NIMl0xW0NAQEhdKFtPSF0pW0NIMl1bQ0gyXVtDQEBIXTJbQ0BIXTFbQ0gyXVtDQEhdKFtPSF0pW0NAQEhdKFtDQEBdMjNbQ0gzXSlbQ0BIXTRbQ0BdKEYpKFtDQEBIXShbQ0gyXTMpW09IXSlbQ0BAXTUoW0NIM10pQyg9W0NIXVtDSDJdNClbQ0gyXUMoPU8pW0NIXT1bQ0hdNQ==

>  <s_epik_cmdline>  (143) 
J2VwaWtfcHl0aG9uJywgJy1waHQnLCAnMi4wJywgJy1waCcsICc3LjAnLCAnLXRuJywgJzgnLCAnLW1hJywgJzIwMCcsICctaW1hZScsICc8aW5maWxlLm1hZT4nLCAnLW9tYWUnLCAnPG91dGZpbGUubWFlPic=

>  <r_lp_tautomer_probability>  (143) 
1

>  <r_epik_Ionization_Penalty>  (143) 
4.13563e-06

>  <r_epik_Ionization_Penalty_Charging>  (143) 
0

>  <r_epik_Ionization_Penalty_Neutral>  (143) 
4.13563e-06

>  <r_epik_State_Penalty>  (143) 
-0

>  <r_epik_Charging_Adjusted_Penalty>  (143) 
0

>  <i_epik_Tot_Q>  (143) 
0

>  <i_epik_Tot_abs_Q>  (143) 
0

>  <s_lp_Force_Field>  (143) 
OPLS3e

>  <r_lp_Energy>  (143) 
62.3415

>  <b_lp_Chiralities_Consistent>  (143) 
1

>  <s_lp_Variant>  (143) 
42:0-1

>  <s_i_glide_gridfile>  (143) 
pfpi4k_grid

>  <i_i_glide_lignum>  (143) 
17

>  <i_i_glide_rotatable_bonds>  (143) 
3

>  <r_i_docking_score>  (143) 
-3.85205

>  <r_i_glide_ligand_efficiency>  (143) 
-0.132829

>  <r_i_glide_ligand_efficiency_sa>  (143) 
-0.408094

>  <r_i_glide_ligand_efficiency_ln>  (143) 
-0.882022

>  <r_i_glide_gscore>  (143) 
-3.85205

>  <r_i_glide_lipo>  (143) 
-0.135321

>  <r_i_glide_hbond>  (143) 
-0.439967

>  <r_i_glide_metal>  (143) 
-0

>  <r_i_glide_rewards>  (143) 
-0.651035

>  <r_i_glide_evdw>  (143) 
-15.95

>  <r_i_glide_ecoul>  (143) 
-12.1118

>  <r_i_glide_erotb>  (143) 
0

>  <r_i_glide_esite>  (143) 
-0.0114623

>  <r_i_glide_emodel>  (143) 
-36.1512

>  <r_i_glide_energy>  (143) 
-28.0618

>  <r_i_glide_einternal>  (143) 
0.981617

>  <r_i_glide_intrahb_reward>  (143) 
-0

>  <i_i_glide_confnum>  (143) 
1

>  <i_i_glide_posenum>  (143) 
40

>  <r_i_glide_eff_state_penalty>  (143) 
0

>  <ligand_id>  (143) 
42

>  <original_smiles>  (143) 
CC12CC(O)C3(F)C(CC=C4CC(=O)C=CC43C)C1C(O)CC1CC(O)CCC12

>  <smiles>  (143) 
[H]OC1([H])C([H])([H])C([H])([H])C2([H])C([H])(C1([H])[H])C([H])([H])C([H])(O[H])C1([H])C3([H])C([H])([H])C([H])=C4C([H])([H])C(=O)C([H])=C([H])C4(C([H])([H])[H])C3(F)C([H])(O[H])C([H])([H])C21C([H])([H])[H]

$$$$
43:0:0
     RDKit          3D

 42 45  0  0  1  0  0  0  0  0999 V2000
    2.4473   -2.9441   -3.1887 C   0  0  0  0  0  0  0  0  0  0  0  0
    3.7296   -2.1060   -2.9714 C   0  0  0  0  0  0  0  0  0  0  0  0
    3.9985   -1.2633   -4.2180 C   0  0  0  0  0  0  0  0  0  0  0  0
    3.6154   -1.2127   -1.7447 C   0  0  0  0  0  0  0  0  0  0  0  0
    3.9149   -2.1391   -0.5686 C   0  0  2  0  0  0  0  0  0  0  0  0
    4.1491   -1.3747    0.7602 C   0  0  0  0  0  0  0  0  0  0  0  0
    3.6267   -0.2676    0.8871 O   0  0  0  0  0  0  0  0  0  0  0  0
    4.8523   -2.0204    1.8982 C   0  0  0  0  0  0  0  0  0  0  0  0
    5.7012   -3.0717    1.8005 C   0  0  0  0  0  0  0  0  0  0  0  0
    6.1580   -3.8970    0.5991 C   0  0  1  0  0  0  0  0  0  0  0  0
    7.0537   -5.0462    1.0343 C   0  0  0  0  0  0  0  0  0  0  0  0
    6.1431   -6.0962    1.7619 C   0  0  0  0  0  0  0  0  0  0  0  0
    4.7702   -6.4316    1.0820 C   0  0  1  0  0  0  0  0  0  0  0  0
    3.8822   -6.9782    2.0363 O   0  0  0  0  0  0  0  0  0  0  0  0
    4.0184   -5.2501    0.4099 C   0  0  0  0  0  0  0  0  0  0  0  0
    5.0578   -4.4401   -0.3057 C   0  0  1  0  0  0  0  0  0  0  0  0
    4.9748   -3.1063   -1.0632 C   0  0  1  0  0  0  0  0  0  0  0  0
    4.8871   -3.0536   -2.6011 C   0  0  0  0  0  0  0  0  0  0  0  0
    6.4627   -2.9082   -0.5530 C   0  0  0  0  0  0  0  0  0  0  0  0
    7.4370   -2.2700   -0.9525 O   0  0  0  0  0  0  0  0  0  0  0  0
    1.5856   -2.3147   -3.3720 H   0  0  0  0  0  0  0  0  0  0  0  0
    2.2028   -3.5629   -2.3281 H   0  0  0  0  0  0  0  0  0  0  0  0
    2.5332   -3.6016   -4.0535 H   0  0  0  0  0  0  0  0  0  0  0  0
    4.9013   -0.6787   -4.1148 H   0  0  0  0  0  0  0  0  0  0  0  0
    3.1771   -0.5828   -4.4375 H   0  0  0  0  0  0  0  0  0  0  0  0
    4.1193   -1.8964   -5.0868 H   0  0  0  0  0  0  0  0  0  0  0  0
    4.3526   -0.4091   -1.7699 H   0  0  0  0  0  0  0  0  0  0  0  0
    2.6277   -0.7629   -1.6792 H   0  0  0  0  0  0  0  0  0  0  0  0
    3.0006   -2.7099   -0.3809 H   0  0  0  0  0  0  0  0  0  0  0  0
    4.7147   -1.5754    2.8761 H   0  0  0  0  0  0  0  0  0  0  0  0
    6.1326   -3.3835    2.7373 H   0  0  0  0  0  0  0  0  0  0  0  0
    7.5288   -5.5193    0.1774 H   0  0  0  0  0  0  0  0  0  0  0  0
    7.8619   -4.7209    1.6870 H   0  0  0  0  0  0  0  0  0  0  0  0
    6.7004   -7.0226    1.9253 H   0  0  0  0  0  0  0  0  0  0  0  0
    5.9418   -5.7142    2.7600 H   0  0  0  0  0  0  0  0  0  0  0  0
    4.9513   -7.1825    0.3162 H   0  0  0  0  0  0  0  0  0  0  0  0
    4.2390   -7.7866    2.3696 H   0  0  0  0  0  0  0  0  0  0  0  0
    3.2724   -5.6123   -0.2921 H   0  0  0  0  0  0  0  0  0  0  0  0
    3.5019   -4.6349    1.1445 H   0  0  0  0  0  0  0  0  0  0  0  0
    5.5321   -5.1102   -1.0281 H   0  0  0  0  0  0  0  0  0  0  0  0
    4.7311   -4.0470   -3.0158 H   0  0  0  0  0  0  0  0  0  0  0  0
    5.8133   -2.6824   -3.0340 H   0  0  0  0  0  0  0  0  0  0  0  0
  1  2  1  0
  1 21  1  0
  1 22  1  0
  1 23  1  0
  2 18  1  0
  2  3  1  0
  2  4  1  0
  3 24  1  0
  3 25  1  0
  3 26  1  0
  4  5  1  0
  4 27  1  0
  4 28  1  0
  5 17  1  0
  5  6  1  0
  5 29  1  1
  6  7  2  0
  6  8  1  0
  8  9  2  0
  8 30  1  0
  9 10  1  0
  9 31  1  0
 10 16  1  0
 10 19  1  0
 10 11  1  1
 11 12  1  0
 11 32  1  0
 11 33  1  0
 12 13  1  0
 12 34  1  0
 12 35  1  0
 13 14  1  0
 13 15  1  0
 13 36  1  6
 14 37  1  0
 15 16  1  0
 15 38  1  0
 15 39  1  0
 16 17  1  0
 16 40  1  6
 17 18  1  6
 17 19  1  0
 18 41  1  0
 18 42  1  0
 19 20  2  0
M  END
>  <i_m_ct_stereo_status>  (144) 
1

>  <s_m_source_file>  (144) 
/var/tmp/pbs.5076255.sched01/tmp0glzbzrw/400n8fk_jm.sdf

>  <i_m_source_file_index>  (144) 
18

>  <i_lp_mmshare_version>  (144) 
48012

>  <i_f3d_flags>  (144) 
0

>  <s_epik_input>  (144) 
W0NIM11DKFtDSDNdKShbQ0gyXTEpW0NIMl1bQ0BIXShDKD1PKVtDSF09W0NIXTIpW0NAQF0xKEMzPU8pW0NAQEhdKFtDQF0yMzQpW0NIMl1bQ0BIXShbT0hdKVtDSDJdW0NIMl00

>  <s_epik_cmdline>  (144) 
J2VwaWtfcHl0aG9uJywgJy1waHQnLCAnMi4wJywgJy1waCcsICc3LjAnLCAnLXRuJywgJzgnLCAnLW1hJywgJzIwMCcsICctaW1hZScsICc8aW5maWxlLm1hZT4nLCAnLW9tYWUnLCAnPG91dGZpbGUubWFlPic=

>  <r_lp_tautomer_probability>  (144) 
1

>  <r_epik_Ionization_Penalty>  (144) 
2.10326e-07

>  <r_epik_Ionization_Penalty_Charging>  (144) 
0

>  <r_epik_Ionization_Penalty_Neutral>  (144) 
2.10326e-07

>  <r_epik_State_Penalty>  (144) 
-0

>  <r_epik_Charging_Adjusted_Penalty>  (144) 
0

>  <i_epik_Tot_Q>  (144) 
0

>  <i_epik_Tot_abs_Q>  (144) 
0

>  <s_lp_Force_Field>  (144) 
OPLS3e

>  <r_lp_Energy>  (144) 
28.0953

>  <b_lp_Chiralities_Consistent>  (144) 
1

>  <s_lp_Variant>  (144) 
43:0-1

>  <s_i_glide_gridfile>  (144) 
pfpi4k_grid

>  <i_i_glide_lignum>  (144) 
18

>  <i_i_glide_rotatable_bonds>  (144) 
1

>  <r_i_docking_score>  (144) 
-4.28864

>  <r_i_glide_ligand_efficiency>  (144) 
-0.214432

>  <r_i_glide_ligand_efficiency_sa>  (144) 
-0.582057

>  <r_i_glide_ligand_efficiency_ln>  (144) 
-1.0733

>  <r_i_glide_gscore>  (144) 
-4.28864

>  <r_i_glide_lipo>  (144) 
-0.931458

>  <r_i_glide_hbond>  (144) 
-0.16

>  <r_i_glide_metal>  (144) 
-0

>  <r_i_glide_rewards>  (144) 
-1.56774

>  <r_i_glide_evdw>  (144) 
-27.6274

>  <r_i_glide_ecoul>  (144) 
-1.54076

>  <r_i_glide_erotb>  (144) 
0

>  <r_i_glide_esite>  (144) 
-0.0169562

>  <r_i_glide_emodel>  (144) 
-36.2306

>  <r_i_glide_energy>  (144) 
-29.1681

>  <r_i_glide_einternal>  (144) 
0.333807

>  <r_i_glide_intrahb_reward>  (144) 
-0

>  <i_i_glide_confnum>  (144) 
2

>  <i_i_glide_posenum>  (144) 
20

>  <r_i_glide_eff_state_penalty>  (144) 
0

>  <ligand_id>  (144) 
43

>  <original_smiles>  (144) 
CC1(C)CC2C(=O)C=CC34CCC(O)CC3C2(C1)C4=O

>  <smiles>  (144) 
[H]OC1([H])C([H])([H])C([H])([H])C23C(=O)C4(C([H])([H])C(C([H])([H])[H])(C([H])([H])[H])C([H])([H])C4([H])C(=O)C([H])=C2[H])C3([H])C1([H])[H]

$$$$
43:0:1
     RDKit          3D

 42 45  0  0  1  0  0  0  0  0999 V2000
    3.5193   -1.2584   -3.0465 C   0  0  0  0  0  0  0  0  0  0  0  0
    4.1302   -2.5233   -2.4141 C   0  0  0  0  0  0  0  0  0  0  0  0
    4.2952   -3.5814   -3.5098 C   0  0  0  0  0  0  0  0  0  0  0  0
    5.4554   -2.1995   -1.7285 C   0  0  0  0  0  0  0  0  0  0  0  0
    5.0413   -1.6435   -0.3633 C   0  0  2  0  0  0  0  0  0  0  0  0
    6.2167   -1.5560    0.6084 C   0  0  0  0  0  0  0  0  0  0  0  0
    7.3476   -1.5192    0.1270 O   0  0  0  0  0  0  0  0  0  0  0  0
    5.9849   -1.3976    2.0770 C   0  0  0  0  0  0  0  0  0  0  0  0
    4.9004   -1.8291    2.7400 C   0  0  0  0  0  0  0  0  0  0  0  0
    3.5952   -2.4487    2.2527 C   0  0  1  0  0  0  0  0  0  0  0  0
    2.5986   -2.6147    3.3798 C   0  0  0  0  0  0  0  0  0  0  0  0
    2.0993   -1.1807    3.7810 C   0  0  0  0  0  0  0  0  0  0  0  0
    1.7421   -0.2013    2.6044 C   0  0  1  0  0  0  0  0  0  0  0  0
    1.7556    1.1302    3.0743 O   0  0  0  0  0  0  0  0  0  0  0  0
    2.6590   -0.2694    1.3606 C   0  0  0  0  0  0  0  0  0  0  0  0
    2.9250   -1.7194    1.0978 C   0  0  1  0  0  0  0  0  0  0  0  0
    3.8125   -2.4292    0.0645 C   0  0  1  0  0  0  0  0  0  0  0  0
    3.2545   -3.0146   -1.2417 C   0  0  0  0  0  0  0  0  0  0  0  0
    3.9613   -3.5246    1.2028 C   0  0  0  0  0  0  0  0  0  0  0  0
    4.1749   -4.7333    1.2322 O   0  0  0  0  0  0  0  0  0  0  0  0
    4.1679   -0.8405   -3.8152 H   0  0  0  0  0  0  0  0  0  0  0  0
    3.3376   -0.4760   -2.3135 H   0  0  0  0  0  0  0  0  0  0  0  0
    2.5591   -1.4811   -3.5097 H   0  0  0  0  0  0  0  0  0  0  0  0
    4.7263   -4.4992   -3.1096 H   0  0  0  0  0  0  0  0  0  0  0  0
    4.9431   -3.2371   -4.3112 H   0  0  0  0  0  0  0  0  0  0  0  0
    3.3291   -3.8422   -3.9432 H   0  0  0  0  0  0  0  0  0  0  0  0
    6.0431   -3.1094   -1.5894 H   0  0  0  0  0  0  0  0  0  0  0  0
    6.0460   -1.4837   -2.2913 H   0  0  0  0  0  0  0  0  0  0  0  0
    4.7364   -0.6081   -0.5200 H   0  0  0  0  0  0  0  0  0  0  0  0
    6.7998   -0.9848    2.6489 H   0  0  0  0  0  0  0  0  0  0  0  0
    4.9371   -1.7263    3.8213 H   0  0  0  0  0  0  0  0  0  0  0  0
    1.7471   -3.2151    3.0639 H   0  0  0  0  0  0  0  0  0  0  0  0
    3.0277   -3.1253    4.2421 H   0  0  0  0  0  0  0  0  0  0  0  0
    1.2451   -1.2548    4.4571 H   0  0  0  0  0  0  0  0  0  0  0  0
    2.8852   -0.7118    4.3740 H   0  0  0  0  0  0  0  0  0  0  0  0
    0.7251   -0.4313    2.2871 H   0  0  0  0  0  0  0  0  0  0  0  0
    1.4679    1.7031    2.3849 H   0  0  0  0  0  0  0  0  0  0  0  0
    2.1709    0.1922    0.5110 H   0  0  0  0  0  0  0  0  0  0  0  0
    3.5926    0.2714    1.5157 H   0  0  0  0  0  0  0  0  0  0  0  0
    1.9526   -2.2042    0.9613 H   0  0  0  0  0  0  0  0  0  0  0  0
    2.2151   -2.7233   -1.3924 H   0  0  0  0  0  0  0  0  0  0  0  0
    3.2636   -4.1053   -1.2083 H   0  0  0  0  0  0  0  0  0  0  0  0
  1  2  1  0
  1 21  1  0
  1 22  1  0
  1 23  1  0
  2 18  1  0
  2  3  1  0
  2  4  1  0
  3 24  1  0
  3 25  1  0
  3 26  1  0
  4  5  1  0
  4 27  1  0
  4 28  1  0
  5 17  1  0
  5  6  1  0
  5 29  1  6
  6  7  2  0
  6  8  1  0
  8  9  2  0
  8 30  1  0
  9 10  1  0
  9 31  1  0
 10 16  1  0
 10 19  1  0
 10 11  1  1
 11 12  1  0
 11 32  1  0
 11 33  1  0
 12 13  1  0
 12 34  1  0
 12 35  1  0
 13 14  1  0
 13 15  1  0
 13 36  1  6
 14 37  1  0
 15 16  1  0
 15 38  1  0
 15 39  1  0
 16 17  1  0
 16 40  1  6
 17 18  1  6
 17 19  1  0
 18 41  1  0
 18 42  1  0
 19 20  2  0
M  END
>  <i_m_ct_stereo_status>  (145) 
1

>  <s_m_source_file>  (145) 
/var/tmp/pbs.5076255.sched01/tmp0glzbzrw/400n8fk_jm.sdf

>  <i_m_source_file_index>  (145) 
18

>  <i_lp_mmshare_version>  (145) 
48012

>  <i_f3d_flags>  (145) 
0

>  <s_epik_input>  (145) 
W0NIM11DKFtDSDNdKShbQ0gyXTEpW0NIMl1bQ0BIXShDKD1PKVtDSF09W0NIXTIpW0NAQF0xKEMzPU8pW0NAQEhdKFtDQF0yMzQpW0NIMl1bQ0BIXShbT0hdKVtDSDJdW0NIMl00

>  <s_epik_cmdline>  (145) 
J2VwaWtfcHl0aG9uJywgJy1waHQnLCAnMi4wJywgJy1waCcsICc3LjAnLCAnLXRuJywgJzgnLCAnLW1hJywgJzIwMCcsICctaW1hZScsICc8aW5maWxlLm1hZT4nLCAnLW9tYWUnLCAnPG91dGZpbGUubWFlPic=

>  <r_lp_tautomer_probability>  (145) 
1

>  <r_epik_Ionization_Penalty>  (145) 
2.10326e-07

>  <r_epik_Ionization_Penalty_Charging>  (145) 
0

>  <r_epik_Ionization_Penalty_Neutral>  (145) 
2.10326e-07

>  <r_epik_State_Penalty>  (145) 
-0

>  <r_epik_Charging_Adjusted_Penalty>  (145) 
0

>  <i_epik_Tot_Q>  (145) 
0

>  <i_epik_Tot_abs_Q>  (145) 
0

>  <s_lp_Force_Field>  (145) 
OPLS3e

>  <r_lp_Energy>  (145) 
28.0953

>  <b_lp_Chiralities_Consistent>  (145) 
1

>  <s_lp_Variant>  (145) 
43:0-1

>  <s_i_glide_gridfile>  (145) 
pfpi4k_grid

>  <i_i_glide_lignum>  (145) 
18

>  <i_i_glide_rotatable_bonds>  (145) 
1

>  <r_i_docking_score>  (145) 
-3.82339

>  <r_i_glide_ligand_efficiency>  (145) 
-0.19117

>  <r_i_glide_ligand_efficiency_sa>  (145) 
-0.518914

>  <r_i_glide_ligand_efficiency_ln>  (145) 
-0.956869

>  <r_i_glide_gscore>  (145) 
-3.82339

>  <r_i_glide_lipo>  (145) 
-0.36738

>  <r_i_glide_hbond>  (145) 
-0.096727

>  <r_i_glide_metal>  (145) 
-0

>  <r_i_glide_rewards>  (145) 
-1.68604

>  <r_i_glide_evdw>  (145) 
-24.9862

>  <r_i_glide_ecoul>  (145) 
-2.82628

>  <r_i_glide_erotb>  (145) 
0

>  <r_i_glide_esite>  (145) 
0

>  <r_i_glide_emodel>  (145) 
-34.1468

>  <r_i_glide_energy>  (145) 
-27.8125

>  <r_i_glide_einternal>  (145) 
0.327843

>  <r_i_glide_intrahb_reward>  (145) 
-0

>  <i_i_glide_confnum>  (145) 
1

>  <i_i_glide_posenum>  (145) 
26

>  <r_i_glide_eff_state_penalty>  (145) 
0

>  <ligand_id>  (145) 
43

>  <original_smiles>  (145) 
CC1(C)CC2C(=O)C=CC34CCC(O)CC3C2(C1)C4=O

>  <smiles>  (145) 
[H]OC1([H])C([H])([H])C([H])([H])C23C(=O)C4(C([H])([H])C(C([H])([H])[H])(C([H])([H])[H])C([H])([H])C4([H])C(=O)C([H])=C2[H])C3([H])C1([H])[H]

$$$$
43:0:2
     RDKit          3D

 42 45  0  0  1  0  0  0  0  0999 V2000
    3.5198   -1.2579   -3.0395 C   0  0  0  0  0  0  0  0  0  0  0  0
    4.1334   -2.5259   -2.4085 C   0  0  0  0  0  0  0  0  0  0  0  0
    4.2960   -3.5799   -3.5057 C   0  0  0  0  0  0  0  0  0  0  0  0
    5.4590   -2.2019   -1.7285 C   0  0  0  0  0  0  0  0  0  0  0  0
    5.0486   -1.6466   -0.3619 C   0  0  2  0  0  0  0  0  0  0  0  0
    6.2230   -1.5592    0.6055 C   0  0  0  0  0  0  0  0  0  0  0  0
    7.3573   -1.5243    0.1257 O   0  0  0  0  0  0  0  0  0  0  0  0
    5.9979   -1.3984    2.0756 C   0  0  0  0  0  0  0  0  0  0  0  0
    4.9138   -1.8276    2.7422 C   0  0  0  0  0  0  0  0  0  0  0  0
    3.6105   -2.4475    2.2578 C   0  0  1  0  0  0  0  0  0  0  0  0
    2.6159   -2.6127    3.3864 C   0  0  0  0  0  0  0  0  0  0  0  0
    2.1215   -1.1800    3.7915 C   0  0  0  0  0  0  0  0  0  0  0  0
    1.7675   -0.1969    2.6181 C   0  0  1  0  0  0  0  0  0  0  0  0
    1.7903    1.1310    3.0990 O   0  0  0  0  0  0  0  0  0  0  0  0
    2.6697   -0.2656    1.3622 C   0  0  0  0  0  0  0  0  0  0  0  0
    2.9366   -1.7186    1.1031 C   0  0  1  0  0  0  0  0  0  0  0  0
    3.8159   -2.4311    0.0691 C   0  0  1  0  0  0  0  0  0  0  0  0
    3.2576   -3.0160   -1.2364 C   0  0  0  0  0  0  0  0  0  0  0  0
    3.9715   -3.5270    1.2062 C   0  0  0  0  0  0  0  0  0  0  0  0
    4.1907   -4.7353    1.2398 O   0  0  0  0  0  0  0  0  0  0  0  0
    4.1679   -0.8437   -3.8080 H   0  0  0  0  0  0  0  0  0  0  0  0
    3.3415   -0.4768   -2.3066 H   0  0  0  0  0  0  0  0  0  0  0  0
    2.5575   -1.4789   -3.5027 H   0  0  0  0  0  0  0  0  0  0  0  0
    4.7246   -4.4974   -3.1084 H   0  0  0  0  0  0  0  0  0  0  0  0
    4.9405   -3.2383   -4.3110 H   0  0  0  0  0  0  0  0  0  0  0  0
    3.3241   -3.8383   -3.9363 H   0  0  0  0  0  0  0  0  0  0  0  0
    6.0471   -3.1102   -1.5868 H   0  0  0  0  0  0  0  0  0  0  0  0
    6.0487   -1.4852   -2.2915 H   0  0  0  0  0  0  0  0  0  0  0  0
    4.7447   -0.6098   -0.5187 H   0  0  0  0  0  0  0  0  0  0  0  0
    6.8139   -0.9858    2.6410 H   0  0  0  0  0  0  0  0  0  0  0  0
    4.9570   -1.7285    3.8216 H   0  0  0  0  0  0  0  0  0  0  0  0
    1.7591   -3.2133    3.0732 H   0  0  0  0  0  0  0  0  0  0  0  0
    3.0482   -3.1269    4.2482 H   0  0  0  0  0  0  0  0  0  0  0  0
    1.2672   -1.2517    4.4666 H   0  0  0  0  0  0  0  0  0  0  0  0
    2.9089   -0.7199    4.3865 H   0  0  0  0  0  0  0  0  0  0  0  0
    0.7463   -0.4207    2.3080 H   0  0  0  0  0  0  0  0  0  0  0  0
    2.6801    1.4263    3.1506 H   0  0  0  0  0  0  0  0  0  0  0  0
    2.1822    0.1840    0.5014 H   0  0  0  0  0  0  0  0  0  0  0  0
    3.6101    0.2723    1.5048 H   0  0  0  0  0  0  0  0  0  0  0  0
    1.9610   -2.2022    0.9696 H   0  0  0  0  0  0  0  0  0  0  0  0
    2.2199   -2.7225   -1.3809 H   0  0  0  0  0  0  0  0  0  0  0  0
    3.2650   -4.1071   -1.2034 H   0  0  0  0  0  0  0  0  0  0  0  0
  1  2  1  0
  1 21  1  0
  1 22  1  0
  1 23  1  0
  2 18  1  0
  2  3  1  0
  2  4  1  0
  3 24  1  0
  3 25  1  0
  3 26  1  0
  4  5  1  0
  4 27  1  0
  4 28  1  0
  5 17  1  0
  5  6  1  0
  5 29  1  6
  6  7  2  0
  6  8  1  0
  8  9  2  0
  8 30  1  0
  9 10  1  0
  9 31  1  0
 10 16  1  0
 10 19  1  0
 10 11  1  1
 11 12  1  0
 11 32  1  0
 11 33  1  0
 12 13  1  0
 12 34  1  0
 12 35  1  0
 13 14  1  0
 13 15  1  0
 13 36  1  6
 14 37  1  0
 15 16  1  0
 15 38  1  0
 15 39  1  0
 16 17  1  0
 16 40  1  6
 17 18  1  6
 17 19  1  0
 18 41  1  0
 18 42  1  0
 19 20  2  0
M  END
>  <i_m_ct_stereo_status>  (146) 
1

>  <s_m_source_file>  (146) 
/var/tmp/pbs.5076255.sched01/tmp0glzbzrw/400n8fk_jm.sdf

>  <i_m_source_file_index>  (146) 
18

>  <i_lp_mmshare_version>  (146) 
48012

>  <i_f3d_flags>  (146) 
0

>  <s_epik_input>  (146) 
W0NIM11DKFtDSDNdKShbQ0gyXTEpW0NIMl1bQ0BIXShDKD1PKVtDSF09W0NIXTIpW0NAQF0xKEMzPU8pW0NAQEhdKFtDQF0yMzQpW0NIMl1bQ0BIXShbT0hdKVtDSDJdW0NIMl00

>  <s_epik_cmdline>  (146) 
J2VwaWtfcHl0aG9uJywgJy1waHQnLCAnMi4wJywgJy1waCcsICc3LjAnLCAnLXRuJywgJzgnLCAnLW1hJywgJzIwMCcsICctaW1hZScsICc8aW5maWxlLm1hZT4nLCAnLW9tYWUnLCAnPG91dGZpbGUubWFlPic=

>  <r_lp_tautomer_probability>  (146) 
1

>  <r_epik_Ionization_Penalty>  (146) 
2.10326e-07

>  <r_epik_Ionization_Penalty_Charging>  (146) 
0

>  <r_epik_Ionization_Penalty_Neutral>  (146) 
2.10326e-07

>  <r_epik_State_Penalty>  (146) 
-0

>  <r_epik_Charging_Adjusted_Penalty>  (146) 
0

>  <i_epik_Tot_Q>  (146) 
0

>  <i_epik_Tot_abs_Q>  (146) 
0

>  <s_lp_Force_Field>  (146) 
OPLS3e

>  <r_lp_Energy>  (146) 
28.0953

>  <b_lp_Chiralities_Consistent>  (146) 
1

>  <s_lp_Variant>  (146) 
43:0-1

>  <s_i_glide_gridfile>  (146) 
pfpi4k_grid

>  <i_i_glide_lignum>  (146) 
18

>  <i_i_glide_rotatable_bonds>  (146) 
1

>  <r_i_docking_score>  (146) 
-3.7891

>  <r_i_glide_ligand_efficiency>  (146) 
-0.189455

>  <r_i_glide_ligand_efficiency_sa>  (146) 
-0.514259

>  <r_i_glide_ligand_efficiency_ln>  (146) 
-0.948286

>  <r_i_glide_gscore>  (146) 
-3.7891

>  <r_i_glide_lipo>  (146) 
-0.368235

>  <r_i_glide_hbond>  (146) 
-0.0972013

>  <r_i_glide_metal>  (146) 
-0

>  <r_i_glide_rewards>  (146) 
-1.68399

>  <r_i_glide_evdw>  (146) 
-24.9343

>  <r_i_glide_ecoul>  (146) 
-2.61969

>  <r_i_glide_erotb>  (146) 
0

>  <r_i_glide_esite>  (146) 
0

>  <r_i_glide_emodel>  (146) 
-33.8172

>  <r_i_glide_energy>  (146) 
-27.554

>  <r_i_glide_einternal>  (146) 
0.136874

>  <r_i_glide_intrahb_reward>  (146) 
-0

>  <i_i_glide_confnum>  (146) 
2

>  <i_i_glide_posenum>  (146) 
6

>  <r_i_glide_eff_state_penalty>  (146) 
0

>  <ligand_id>  (146) 
43

>  <original_smiles>  (146) 
CC1(C)CC2C(=O)C=CC34CCC(O)CC3C2(C1)C4=O

>  <smiles>  (146) 
[H]OC1([H])C([H])([H])C([H])([H])C23C(=O)C4(C([H])([H])C(C([H])([H])[H])(C([H])([H])[H])C([H])([H])C4([H])C(=O)C([H])=C2[H])C3([H])C1([H])[H]

$$$$
44:0:0
     RDKit          3D

 52 57  0  0  1  0  0  0  0  0999 V2000
    6.2495   -7.5259    2.0204 C   0  0  0  0  0  0  0  0  0  0  0  0
    4.9302   -6.7443    2.0371 C   0  0  0  0  0  0  0  0  0  0  0  0
    4.1963   -7.1170    0.7394 C   0  0  0  0  0  0  0  0  0  0  0  0
    4.1272   -6.8800    3.3539 C   0  0  2  0  0  0  0  0  0  0  0  0
    2.5982   -7.0364    3.3520 C   0  0  0  0  0  0  0  0  0  0  0  0
    1.8323   -5.7258    3.0545 C   0  0  0  0  0  0  0  0  0  0  0  0
    2.2380   -4.5439    3.9775 C   0  0  1  0  0  0  0  0  0  0  0  0
    1.1391   -4.4411    5.0484 C   0  0  0  0  0  0  0  0  0  0  0  0
    3.6684   -4.6233    4.5528 C   0  0  2  0  0  0  0  0  0  0  0  0
    3.7781   -3.1149    4.4051 C   0  0  0  0  0  0  0  0  0  0  0  0
    2.7021   -3.1952    3.3144 C   0  0  2  0  0  0  0  0  0  0  0  0
    1.6949   -2.0417    3.3254 C   0  0  0  0  0  0  0  0  0  0  0  0
    3.3077   -3.3105    1.9197 C   0  0  0  0  0  0  0  0  0  0  0  0
    3.0161   -2.6508    0.7551 C   0  0  0  0  0  0  0  0  0  0  0  0
    3.8829   -3.0987   -0.2271 N   0  0  0  0  0  0  0  0  0  0  0  0
    3.9582   -2.7044   -1.5895 C   0  0  0  0  0  0  0  0  0  0  0  0
    4.5405   -3.5522   -2.5581 C   0  0  0  0  0  0  0  0  0  0  0  0
    4.5670   -3.1305   -3.8961 C   0  0  0  0  0  0  0  0  0  0  0  0
    4.1070   -1.9291   -4.3111 N   0  0  0  0  0  0  0  0  0  0  0  0
    3.5628   -1.1154   -3.3852 C   0  0  0  0  0  0  0  0  0  0  0  0
    3.4670   -1.4561   -2.0210 C   0  0  0  0  0  0  0  0  0  0  0  0
    4.7196   -4.0318    0.2693 N   0  0  0  0  0  0  0  0  0  0  0  0
    4.3630   -4.1921    1.5308 C   0  0  0  0  0  0  0  0  0  0  0  0
    5.0784   -5.2354    2.3631 C   0  0  1  0  0  0  0  0  0  0  0  0
    4.6662   -5.5284    3.8192 C   0  0  2  0  0  0  0  0  0  0  0  0
    6.0739   -8.5995    1.9811 H   0  0  0  0  0  0  0  0  0  0  0  0
    6.8401   -7.3323    2.9156 H   0  0  0  0  0  0  0  0  0  0  0  0
    6.8690   -7.2566    1.1653 H   0  0  0  0  0  0  0  0  0  0  0  0
    3.2723   -6.5567    0.6208 H   0  0  0  0  0  0  0  0  0  0  0  0
    3.9374   -8.1758    0.7156 H   0  0  0  0  0  0  0  0  0  0  0  0
    4.8004   -6.8928   -0.1425 H   0  0  0  0  0  0  0  0  0  0  0  0
    4.5791   -7.6677    3.9518 H   0  0  0  0  0  0  0  0  0  0  0  0
    2.2979   -7.8137    2.6498 H   0  0  0  0  0  0  0  0  0  0  0  0
    2.2775   -7.3987    4.3302 H   0  0  0  0  0  0  0  0  0  0  0  0
    1.9748   -5.4695    2.0107 H   0  0  0  0  0  0  0  0  0  0  0  0
    0.7632   -5.9328    3.1230 H   0  0  0  0  0  0  0  0  0  0  0  0
    1.3776   -3.6887    5.7995 H   0  0  0  0  0  0  0  0  0  0  0  0
    1.0066   -5.3834    5.5831 H   0  0  0  0  0  0  0  0  0  0  0  0
    0.1775   -4.1694    4.6130 H   0  0  0  0  0  0  0  0  0  0  0  0
    3.6364   -4.9150    5.6011 H   0  0  0  0  0  0  0  0  0  0  0  0
    3.4535   -2.5875    5.3025 H   0  0  0  0  0  0  0  0  0  0  0  0
    4.7599   -2.7731    4.0701 H   0  0  0  0  0  0  0  0  0  0  0  0
    1.3289   -1.8446    4.3312 H   0  0  0  0  0  0  0  0  0  0  0  0
    0.8288   -2.2605    2.7045 H   0  0  0  0  0  0  0  0  0  0  0  0
    2.1443   -1.1126    2.9773 H   0  0  0  0  0  0  0  0  0  0  0  0
    2.2659   -1.9018    0.5413 H   0  0  0  0  0  0  0  0  0  0  0  0
    4.9159   -4.5320   -2.2983 H   0  0  0  0  0  0  0  0  0  0  0  0
    4.9860   -3.7701   -4.6589 H   0  0  0  0  0  0  0  0  0  0  0  0
    3.2006   -0.1641   -3.7396 H   0  0  0  0  0  0  0  0  0  0  0  0
    3.0132   -0.7671   -1.3267 H   0  0  0  0  0  0  0  0  0  0  0  0
    6.1359   -4.9742    2.3702 H   0  0  0  0  0  0  0  0  0  0  0  0
    5.5629   -5.6694    4.4224 H   0  0  0  0  0  0  0  0  0  0  0  0
  1  2  1  0
  1 26  1  0
  1 27  1  0
  1 28  1  0
  2 24  1  0
  2  3  1  0
  2  4  1  0
  3 29  1  0
  3 30  1  0
  3 31  1  0
  4 25  1  0
  4  5  1  0
  4 32  1  1
  5  6  1  0
  5 33  1  0
  5 34  1  0
  6  7  1  0
  6 35  1  0
  6 36  1  0
  7 11  1  0
  7  8  1  1
  7  9  1  0
  8 37  1  0
  8 38  1  0
  8 39  1  0
  9 25  1  0
  9 10  1  0
  9 40  1  1
 10 11  1  0
 10 41  1  0
 10 42  1  0
 11 12  1  6
 11 13  1  0
 12 43  1  0
 12 44  1  0
 12 45  1  0
 13 23  1  0
 13 14  2  0
 14 15  1  0
 14 46  1  0
 15 16  1  0
 15 22  1  0
 16 21  1  0
 16 17  2  0
 17 18  1  0
 17 47  1  0
 18 19  2  0
 18 48  1  0
 19 20  1  0
 20 21  2  0
 20 49  1  0
 21 50  1  0
 22 23  2  0
 23 24  1  0
 24 25  1  0
 24 51  1  1
 25 52  1  1
M  END
>  <i_m_ct_stereo_status>  (147) 
1

>  <s_m_source_file>  (147) 
/var/tmp/pbs.5076255.sched01/tmp0glzbzrw/400n8fk_jm.sdf

>  <i_m_source_file_index>  (147) 
19

>  <i_lp_mmshare_version>  (147) 
48012

>  <i_f3d_flags>  (147) 
0

>  <s_epik_input>  (147) 
W0NIM11bQ0BAXTEyW0NASF0zW0NASF00W0NAQEhdKFtDSDJdW0NIMl0xKUMoW0NIM10pKFtDSDNdKVtDQEhdNGM1YyhbQ0BAXTIoW0NIMl0zKVtDSDNdKVtjSF1uKG41KS1jNltjSF1bY0hdbltjSF1bY0hdNg==

>  <s_epik_cmdline>  (147) 
J2VwaWtfcHl0aG9uJywgJy1waHQnLCAnMi4wJywgJy1waCcsICc3LjAnLCAnLXRuJywgJzgnLCAnLW1hJywgJzIwMCcsICctaW1hZScsICc8aW5maWxlLm1hZT4nLCAnLW9tYWUnLCAnPG91dGZpbGUubWFlPic=

>  <r_lp_tautomer_probability>  (147) 
1

>  <r_epik_Ionization_Penalty>  (147) 
0.0046305

>  <r_epik_Ionization_Penalty_Charging>  (147) 
0

>  <r_epik_Ionization_Penalty_Neutral>  (147) 
0.0046305

>  <r_epik_State_Penalty>  (147) 
0.00323473

>  <r_epik_Charging_Adjusted_Penalty>  (147) 
0.00323473

>  <i_epik_Tot_Q>  (147) 
0

>  <i_epik_Tot_abs_Q>  (147) 
0

>  <s_lp_Force_Field>  (147) 
OPLS3e

>  <r_lp_Energy>  (147) 
61.954

>  <b_lp_Chiralities_Consistent>  (147) 
1

>  <s_lp_Variant>  (147) 
44:0-1

>  <s_i_glide_gridfile>  (147) 
pfpi4k_grid

>  <i_i_glide_lignum>  (147) 
19

>  <i_i_glide_rotatable_bonds>  (147) 
1

>  <r_i_docking_score>  (147) 
-3.4979

>  <r_i_glide_ligand_efficiency>  (147) 
-0.139916

>  <r_i_glide_ligand_efficiency_sa>  (147) 
-0.409117

>  <r_i_glide_ligand_efficiency_ln>  (147) 
-0.829108

>  <r_i_glide_gscore>  (147) 
-3.4979

>  <r_i_glide_lipo>  (147) 
-0.532925

>  <r_i_glide_hbond>  (147) 
-0.32

>  <r_i_glide_metal>  (147) 
-0

>  <r_i_glide_rewards>  (147) 
-1.14036

>  <r_i_glide_evdw>  (147) 
-21.3574

>  <r_i_glide_ecoul>  (147) 
-4.0416

>  <r_i_glide_erotb>  (147) 
0.169493

>  <r_i_glide_esite>  (147) 
0

>  <r_i_glide_emodel>  (147) 
-30.8115

>  <r_i_glide_energy>  (147) 
-25.399

>  <r_i_glide_einternal>  (147) 
0.359033

>  <r_i_glide_intrahb_reward>  (147) 
-0

>  <i_i_glide_confnum>  (147) 
2

>  <i_i_glide_posenum>  (147) 
29

>  <r_i_glide_eff_state_penalty>  (147) 
0

>  <ligand_id>  (147) 
44

>  <original_smiles>  (147) 
CC1(C)C2CCC3(C)C4CC3(C)c3cn(-c5ccncc5)nc3C1C24

>  <smiles>  (147) 
[H]c1nc([H])c([H])c(-n2nc3c(c2[H])C2(C([H])([H])[H])C([H])([H])C4([H])C5([H])C3([H])C(C([H])([H])[H])(C([H])([H])[H])C5([H])C([H])([H])C([H])([H])C42C([H])([H])[H])c1[H]

$$$$
44:0:1
     RDKit          3D

 52 57  0  0  1  0  0  0  0  0999 V2000
    5.7636   -5.1833    4.1525 C   0  0  0  0  0  0  0  0  0  0  0  0
    4.6204   -4.2367    3.7704 C   0  0  0  0  0  0  0  0  0  0  0  0
    3.7217   -5.0164    2.7965 C   0  0  0  0  0  0  0  0  0  0  0  0
    3.9204   -3.5674    4.9794 C   0  0  2  0  0  0  0  0  0  0  0  0
    2.3951   -3.3879    5.0249 C   0  0  0  0  0  0  0  0  0  0  0  0
    1.8668   -2.2463    4.1221 C   0  0  0  0  0  0  0  0  0  0  0  0
    2.5637   -0.8808    4.3763 C   0  0  1  0  0  0  0  0  0  0  0  0
    1.5983   -0.0615    5.2486 C   0  0  0  0  0  0  0  0  0  0  0  0
    3.9972   -0.9706    4.9458 C   0  0  2  0  0  0  0  0  0  0  0  0
    4.3765    0.2311    4.0935 C   0  0  0  0  0  0  0  0  0  0  0  0
    3.2167   -0.1308    3.1576 C   0  0  2  0  0  0  0  0  0  0  0  0
    2.4474    1.0685    2.5958 C   0  0  0  0  0  0  0  0  0  0  0  0
    3.6755   -1.0153    2.0029 C   0  0  0  0  0  0  0  0  0  0  0  0
    3.4146   -0.9426    0.6619 C   0  0  0  0  0  0  0  0  0  0  0  0
    4.0941   -1.9613    0.0203 N   0  0  0  0  0  0  0  0  0  0  0  0
    4.1193   -2.2782   -1.3674 C   0  0  0  0  0  0  0  0  0  0  0  0
    3.4164   -1.5008   -2.3098 C   0  0  0  0  0  0  0  0  0  0  0  0
    3.4635   -1.8582   -3.6668 C   0  0  0  0  0  0  0  0  0  0  0  0
    4.1721   -2.9065   -4.1268 N   0  0  0  0  0  0  0  0  0  0  0  0
    4.8458   -3.6531   -3.2307 C   0  0  0  0  0  0  0  0  0  0  0  0
    4.8579   -3.3837   -1.8507 C   0  0  0  0  0  0  0  0  0  0  0  0
    4.7881   -2.6931    0.9154 N   0  0  0  0  0  0  0  0  0  0  0  0
    4.5061   -2.1689    2.0971 C   0  0  0  0  0  0  0  0  0  0  0  0
    5.0749   -2.8194    3.3367 C   0  0  1  0  0  0  0  0  0  0  0  0
    4.7405   -2.2982    4.7488 C   0  0  2  0  0  0  0  0  0  0  0  0
    5.3869   -6.0876    4.6265 H   0  0  0  0  0  0  0  0  0  0  0  0
    6.4508   -4.7175    4.8592 H   0  0  0  0  0  0  0  0  0  0  0  0
    6.3477   -5.4815    3.2821 H   0  0  0  0  0  0  0  0  0  0  0  0
    2.9125   -4.3998    2.4072 H   0  0  0  0  0  0  0  0  0  0  0  0
    3.2676   -5.8833    3.2774 H   0  0  0  0  0  0  0  0  0  0  0  0
    4.2872   -5.3657    1.9286 H   0  0  0  0  0  0  0  0  0  0  0  0
    4.2627   -4.0542    5.8908 H   0  0  0  0  0  0  0  0  0  0  0  0
    1.8952   -4.3226    4.7736 H   0  0  0  0  0  0  0  0  0  0  0  0
    2.0948   -3.1698    6.0517 H   0  0  0  0  0  0  0  0  0  0  0  0
    1.9648   -2.5458    3.0828 H   0  0  0  0  0  0  0  0  0  0  0  0
    0.7868   -2.1700    4.2602 H   0  0  0  0  0  0  0  0  0  0  0  0
    2.0359    0.8906    5.5510 H   0  0  0  0  0  0  0  0  0  0  0  0
    1.3366   -0.5915    6.1662 H   0  0  0  0  0  0  0  0  0  0  0  0
    0.6719    0.1622    4.7192 H   0  0  0  0  0  0  0  0  0  0  0  0
    4.0003   -0.7199    6.0082 H   0  0  0  0  0  0  0  0  0  0  0  0
    4.2355    1.1745    4.6197 H   0  0  0  0  0  0  0  0  0  0  0  0
    5.3735    0.1691    3.6524 H   0  0  0  0  0  0  0  0  0  0  0  0
    2.2085    1.7899    3.3773 H   0  0  0  0  0  0  0  0  0  0  0  0
    1.5077    0.7629    2.1391 H   0  0  0  0  0  0  0  0  0  0  0  0
    3.0299    1.6109    1.8532 H   0  0  0  0  0  0  0  0  0  0  0  0
    2.7868   -0.2528    0.1219 H   0  0  0  0  0  0  0  0  0  0  0  0
    2.8134   -0.6582   -2.0214 H   0  0  0  0  0  0  0  0  0  0  0  0
    2.9287   -1.2862   -4.4102 H   0  0  0  0  0  0  0  0  0  0  0  0
    5.3965   -4.4877   -3.6347 H   0  0  0  0  0  0  0  0  0  0  0  0
    5.4142   -4.0312   -1.1892 H   0  0  0  0  0  0  0  0  0  0  0  0
    6.1557   -2.8017    3.2171 H   0  0  0  0  0  0  0  0  0  0  0  0
    5.6438   -2.3188    5.3586 H   0  0  0  0  0  0  0  0  0  0  0  0
  1  2  1  0
  1 26  1  0
  1 27  1  0
  1 28  1  0
  2 24  1  0
  2  3  1  0
  2  4  1  0
  3 29  1  0
  3 30  1  0
  3 31  1  0
  4 25  1  0
  4  5  1  0
  4 32  1  1
  5  6  1  0
  5 33  1  0
  5 34  1  0
  6  7  1  0
  6 35  1  0
  6 36  1  0
  7 11  1  0
  7  8  1  1
  7  9  1  0
  8 37  1  0
  8 38  1  0
  8 39  1  0
  9 25  1  0
  9 10  1  0
  9 40  1  1
 10 11  1  0
 10 41  1  0
 10 42  1  0
 11 12  1  6
 11 13  1  0
 12 43  1  0
 12 44  1  0
 12 45  1  0
 13 23  1  0
 13 14  2  0
 14 15  1  0
 14 46  1  0
 15 16  1  0
 15 22  1  0
 16 21  1  0
 16 17  2  0
 17 18  1  0
 17 47  1  0
 18 19  2  0
 18 48  1  0
 19 20  1  0
 20 21  2  0
 20 49  1  0
 21 50  1  0
 22 23  2  0
 23 24  1  0
 24 25  1  0
 24 51  1  6
 25 52  1  1
M  END
>  <i_m_ct_stereo_status>  (148) 
1

>  <s_m_source_file>  (148) 
/var/tmp/pbs.5076255.sched01/tmp0glzbzrw/400n8fk_jm.sdf

>  <i_m_source_file_index>  (148) 
19

>  <i_lp_mmshare_version>  (148) 
48012

>  <i_f3d_flags>  (148) 
0

>  <s_epik_input>  (148) 
W0NIM11bQ0BAXTEyW0NASF0zW0NASF00W0NAQEhdKFtDSDJdW0NIMl0xKUMoW0NIM10pKFtDSDNdKVtDQEhdNGM1YyhbQ0BAXTIoW0NIMl0zKVtDSDNdKVtjSF1uKG41KS1jNltjSF1bY0hdbltjSF1bY0hdNg==

>  <s_epik_cmdline>  (148) 
J2VwaWtfcHl0aG9uJywgJy1waHQnLCAnMi4wJywgJy1waCcsICc3LjAnLCAnLXRuJywgJzgnLCAnLW1hJywgJzIwMCcsICctaW1hZScsICc8aW5maWxlLm1hZT4nLCAnLW9tYWUnLCAnPG91dGZpbGUubWFlPic=

>  <r_lp_tautomer_probability>  (148) 
1

>  <r_epik_Ionization_Penalty>  (148) 
0.0046305

>  <r_epik_Ionization_Penalty_Charging>  (148) 
0

>  <r_epik_Ionization_Penalty_Neutral>  (148) 
0.0046305

>  <r_epik_State_Penalty>  (148) 
0.00323473

>  <r_epik_Charging_Adjusted_Penalty>  (148) 
0.00323473

>  <i_epik_Tot_Q>  (148) 
0

>  <i_epik_Tot_abs_Q>  (148) 
0

>  <s_lp_Force_Field>  (148) 
OPLS3e

>  <r_lp_Energy>  (148) 
61.954

>  <b_lp_Chiralities_Consistent>  (148) 
1

>  <s_lp_Variant>  (148) 
44:0-1

>  <s_i_glide_gridfile>  (148) 
pfpi4k_grid

>  <i_i_glide_lignum>  (148) 
19

>  <i_i_glide_rotatable_bonds>  (148) 
1

>  <r_i_docking_score>  (148) 
-3.37239

>  <r_i_glide_ligand_efficiency>  (148) 
-0.134896

>  <r_i_glide_ligand_efficiency_sa>  (148) 
-0.394437

>  <r_i_glide_ligand_efficiency_ln>  (148) 
-0.799357

>  <r_i_glide_gscore>  (148) 
-3.37239

>  <r_i_glide_lipo>  (148) 
-0.52874

>  <r_i_glide_hbond>  (148) 
-0.239724

>  <r_i_glide_metal>  (148) 
-0

>  <r_i_glide_rewards>  (148) 
-1.13543

>  <r_i_glide_evdw>  (148) 
-20.9482

>  <r_i_glide_ecoul>  (148) 
-3.78671

>  <r_i_glide_erotb>  (148) 
0.169493

>  <r_i_glide_esite>  (148) 
-0.0225697

>  <r_i_glide_emodel>  (148) 
-30.1366

>  <r_i_glide_energy>  (148) 
-24.7349

>  <r_i_glide_einternal>  (148) 
7.862e-05

>  <r_i_glide_intrahb_reward>  (148) 
-0

>  <i_i_glide_confnum>  (148) 
1

>  <i_i_glide_posenum>  (148) 
6

>  <r_i_glide_eff_state_penalty>  (148) 
0

>  <ligand_id>  (148) 
44

>  <original_smiles>  (148) 
CC1(C)C2CCC3(C)C4CC3(C)c3cn(-c5ccncc5)nc3C1C24

>  <smiles>  (148) 
[H]c1nc([H])c([H])c(-n2nc3c(c2[H])C2(C([H])([H])[H])C([H])([H])C4([H])C5([H])C3([H])C(C([H])([H])[H])(C([H])([H])[H])C5([H])C([H])([H])C([H])([H])C42C([H])([H])[H])c1[H]

$$$$
44:0:2
     RDKit          3D

 52 57  0  0  1  0  0  0  0  0999 V2000
    3.7735   -0.6932    4.9681 C   0  0  0  0  0  0  0  0  0  0  0  0
    3.5051   -1.1686    3.5351 C   0  0  0  0  0  0  0  0  0  0  0  0
    1.9768   -1.2170    3.3752 C   0  0  0  0  0  0  0  0  0  0  0  0
    4.2918   -0.3892    2.4526 C   0  0  2  0  0  0  0  0  0  0  0  0
    3.6396    0.0077    1.1185 C   0  0  0  0  0  0  0  0  0  0  0  0
    3.4801   -1.1661    0.1226 C   0  0  0  0  0  0  0  0  0  0  0  0
    4.8009   -1.9368   -0.1482 C   0  0  1  0  0  0  0  0  0  0  0  0
    5.3268   -1.4245   -1.4991 C   0  0  0  0  0  0  0  0  0  0  0  0
    5.8415   -1.8789    0.9921 C   0  0  2  0  0  0  0  0  0  0  0  0
    6.2121   -3.3209    0.6837 C   0  0  0  0  0  0  0  0  0  0  0  0
    4.8186   -3.4936    0.0652 C   0  0  2  0  0  0  0  0  0  0  0  0
    4.7841   -4.3589   -1.1956 C   0  0  0  0  0  0  0  0  0  0  0  0
    3.8094   -4.0399    1.0689 C   0  0  0  0  0  0  0  0  0  0  0  0
    2.8819   -5.0446    0.9562 C   0  0  0  0  0  0  0  0  0  0  0  0
    2.2254   -5.1763    2.1673 N   0  0  0  0  0  0  0  0  0  0  0  0
    1.1854   -6.0779    2.5377 C   0  0  0  0  0  0  0  0  0  0  0  0
    0.7270   -6.1561    3.8732 C   0  0  0  0  0  0  0  0  0  0  0  0
   -0.3114   -7.0481    4.1908 C   0  0  0  0  0  0  0  0  0  0  0  0
   -0.9254   -7.8198    3.2713 N   0  0  0  0  0  0  0  0  0  0  0  0
   -0.4785   -7.7638    2.0026 C   0  0  0  0  0  0  0  0  0  0  0  0
    0.5505   -6.9016    1.5811 C   0  0  0  0  0  0  0  0  0  0  0  0
    2.7071   -4.2816    3.0566 N   0  0  0  0  0  0  0  0  0  0  0  0
    3.6177   -3.5778    2.4049 C   0  0  0  0  0  0  0  0  0  0  0  0
    4.3069   -2.4290    3.1163 C   0  0  1  0  0  0  0  0  0  0  0  0
    5.3184   -1.5198    2.3887 C   0  0  2  0  0  0  0  0  0  0  0  0
    3.3481    0.2935    5.1450 H   0  0  0  0  0  0  0  0  0  0  0  0
    4.8422   -0.6190    5.1713 H   0  0  0  0  0  0  0  0  0  0  0  0
    3.3533   -1.3762    5.7061 H   0  0  0  0  0  0  0  0  0  0  0  0
    1.6799   -1.6125    2.4041 H   0  0  0  0  0  0  0  0  0  0  0  0
    1.5329   -0.2254    3.4653 H   0  0  0  0  0  0  0  0  0  0  0  0
    1.5183   -1.8648    4.1257 H   0  0  0  0  0  0  0  0  0  0  0  0
    4.7443    0.4849    2.9168 H   0  0  0  0  0  0  0  0  0  0  0  0
    2.6744    0.4821    1.2915 H   0  0  0  0  0  0  0  0  0  0  0  0
    4.2490    0.7735    0.6383 H   0  0  0  0  0  0  0  0  0  0  0  0
    2.7026   -1.8317    0.4864 H   0  0  0  0  0  0  0  0  0  0  0  0
    3.0509   -0.7795   -0.8028 H   0  0  0  0  0  0  0  0  0  0  0  0
    6.3006   -1.8515   -1.7423 H   0  0  0  0  0  0  0  0  0  0  0  0
    5.4361   -0.3389   -1.4988 H   0  0  0  0  0  0  0  0  0  0  0  0
    4.6511   -1.6802   -2.3157 H   0  0  0  0  0  0  0  0  0  0  0  0
    6.6508   -1.1945    0.7369 H   0  0  0  0  0  0  0  0  0  0  0  0
    7.0230   -3.3954   -0.0410 H   0  0  0  0  0  0  0  0  0  0  0  0
    6.4125   -3.9297    1.5673 H   0  0  0  0  0  0  0  0  0  0  0  0
    5.5718   -4.0811   -1.8945 H   0  0  0  0  0  0  0  0  0  0  0  0
    3.8369   -4.2533   -1.7188 H   0  0  0  0  0  0  0  0  0  0  0  0
    4.9349   -5.4139   -0.9684 H   0  0  0  0  0  0  0  0  0  0  0  0
    2.6480   -5.6702    0.1077 H   0  0  0  0  0  0  0  0  0  0  0  0
    1.1640   -5.5523    4.6560 H   0  0  0  0  0  0  0  0  0  0  0  0
   -0.6751   -7.1390    5.2041 H   0  0  0  0  0  0  0  0  0  0  0  0
   -0.9821   -8.4070    1.2947 H   0  0  0  0  0  0  0  0  0  0  0  0
    0.8444   -6.9041    0.5415 H   0  0  0  0  0  0  0  0  0  0  0  0
    4.8063   -2.8463    3.9922 H   0  0  0  0  0  0  0  0  0  0  0  0
    6.1552   -1.3039    3.0535 H   0  0  0  0  0  0  0  0  0  0  0  0
  1  2  1  0
  1 26  1  0
  1 27  1  0
  1 28  1  0
  2 24  1  0
  2  3  1  0
  2  4  1  0
  3 29  1  0
  3 30  1  0
  3 31  1  0
  4 25  1  0
  4  5  1  0
  4 32  1  1
  5  6  1  0
  5 33  1  0
  5 34  1  0
  6  7  1  0
  6 35  1  0
  6 36  1  0
  7 11  1  0
  7  8  1  6
  7  9  1  0
  8 37  1  0
  8 38  1  0
  8 39  1  0
  9 25  1  0
  9 10  1  0
  9 40  1  6
 10 11  1  0
 10 41  1  0
 10 42  1  0
 11 12  1  6
 11 13  1  0
 12 43  1  0
 12 44  1  0
 12 45  1  0
 13 23  1  0
 13 14  2  0
 14 15  1  0
 14 46  1  0
 15 16  1  0
 15 22  1  0
 16 21  1  0
 16 17  2  0
 17 18  1  0
 17 47  1  0
 18 19  2  0
 18 48  1  0
 19 20  1  0
 20 21  2  0
 20 49  1  0
 21 50  1  0
 22 23  2  0
 23 24  1  0
 24 25  1  0
 24 51  1  1
 25 52  1  1
M  END
>  <i_m_ct_stereo_status>  (149) 
1

>  <s_m_source_file>  (149) 
/var/tmp/pbs.5076255.sched01/tmp0glzbzrw/400n8fk_jm.sdf

>  <i_m_source_file_index>  (149) 
19

>  <i_lp_mmshare_version>  (149) 
48012

>  <i_f3d_flags>  (149) 
0

>  <s_epik_input>  (149) 
W0NIM11bQ0BAXTEyW0NASF0zW0NASF00W0NAQEhdKFtDSDJdW0NIMl0xKUMoW0NIM10pKFtDSDNdKVtDQEhdNGM1YyhbQ0BAXTIoW0NIMl0zKVtDSDNdKVtjSF1uKG41KS1jNltjSF1bY0hdbltjSF1bY0hdNg==

>  <s_epik_cmdline>  (149) 
J2VwaWtfcHl0aG9uJywgJy1waHQnLCAnMi4wJywgJy1waCcsICc3LjAnLCAnLXRuJywgJzgnLCAnLW1hJywgJzIwMCcsICctaW1hZScsICc8aW5maWxlLm1hZT4nLCAnLW9tYWUnLCAnPG91dGZpbGUubWFlPic=

>  <r_lp_tautomer_probability>  (149) 
1

>  <r_epik_Ionization_Penalty>  (149) 
0.0046305

>  <r_epik_Ionization_Penalty_Charging>  (149) 
0

>  <r_epik_Ionization_Penalty_Neutral>  (149) 
0.0046305

>  <r_epik_State_Penalty>  (149) 
0.00323473

>  <r_epik_Charging_Adjusted_Penalty>  (149) 
0.00323473

>  <i_epik_Tot_Q>  (149) 
0

>  <i_epik_Tot_abs_Q>  (149) 
0

>  <s_lp_Force_Field>  (149) 
OPLS3e

>  <r_lp_Energy>  (149) 
61.954

>  <b_lp_Chiralities_Consistent>  (149) 
1

>  <s_lp_Variant>  (149) 
44:0-1

>  <s_i_glide_gridfile>  (149) 
pfpi4k_grid

>  <i_i_glide_lignum>  (149) 
19

>  <i_i_glide_rotatable_bonds>  (149) 
1

>  <r_i_docking_score>  (149) 
-2.70567

>  <r_i_glide_ligand_efficiency>  (149) 
-0.108227

>  <r_i_glide_ligand_efficiency_sa>  (149) 
-0.316457

>  <r_i_glide_ligand_efficiency_ln>  (149) 
-0.641324

>  <r_i_glide_gscore>  (149) 
-2.70567

>  <r_i_glide_lipo>  (149) 
-0.437481

>  <r_i_glide_hbond>  (149) 
0

>  <r_i_glide_metal>  (149) 
-0

>  <r_i_glide_rewards>  (149) 
-1.13543

>  <r_i_glide_evdw>  (149) 
-24.4266

>  <r_i_glide_ecoul>  (149) 
-0.41725

>  <r_i_glide_erotb>  (149) 
0.169493

>  <r_i_glide_esite>  (149) 
-0.0183274

>  <r_i_glide_emodel>  (149) 
-29.102

>  <r_i_glide_energy>  (149) 
-24.8439

>  <r_i_glide_einternal>  (149) 
0.0924033

>  <r_i_glide_intrahb_reward>  (149) 
-0

>  <i_i_glide_confnum>  (149) 
4

>  <i_i_glide_posenum>  (149) 
2

>  <r_i_glide_eff_state_penalty>  (149) 
0

>  <ligand_id>  (149) 
44

>  <original_smiles>  (149) 
CC1(C)C2CCC3(C)C4CC3(C)c3cn(-c5ccncc5)nc3C1C24

>  <smiles>  (149) 
[H]c1nc([H])c([H])c(-n2nc3c(c2[H])C2(C([H])([H])[H])C([H])([H])C4([H])C5([H])C3([H])C(C([H])([H])[H])(C([H])([H])[H])C5([H])C([H])([H])C([H])([H])C42C([H])([H])[H])c1[H]

$$$$
46:0:0
     RDKit          3D

 85 95  0  0  1  0  0  0  0  0999 V2000
    8.5048   -2.6446   -0.4588 C   0  0  0  0  0  0  0  0  0  0  0  0
    7.6076   -2.4205    0.6189 O   0  0  0  0  0  0  0  0  0  0  0  0
    6.3001   -2.9102    0.3786 C   0  0  2  0  0  0  0  0  0  0  0  0
    6.1430   -4.4099    0.2655 C   0  0  1  0  0  0  0  0  0  0  0  0
    4.7631   -5.0305    0.2830 C   0  0  2  0  0  0  0  0  0  0  0  0
    3.6427   -4.2344   -0.3785 C   0  0  2  0  0  0  0  0  0  0  0  0
    4.1128   -3.6422   -1.7341 C   0  0  0  0  0  0  0  0  0  0  0  0
    4.8504   -2.2554   -1.6841 C   0  0  1  0  0  0  0  0  0  0  0  0
    4.0072   -1.0944   -2.2602 C   0  0  0  0  0  0  0  0  0  0  0  0
    3.8744   -1.1293   -3.7783 C   0  0  0  0  0  0  0  0  0  0  0  0
    3.8634   -2.2547   -4.3263 O   0  0  0  0  0  0  0  0  0  0  0  0
    3.8122   -0.0412   -4.3752 O   0  0  0  0  0  0  0  0  0  0  0  0
    5.3261   -1.9154   -0.2672 C   0  0  1  0  0  0  0  0  0  0  0  0
    4.3185   -2.1361    0.8855 C   0  0  1  0  0  0  0  0  0  0  0  0
    3.8108   -0.8990    1.6325 C   0  0  0  0  0  0  0  0  0  0  0  0
    2.6236   -0.2597    1.0202 N   0  0  0  0  0  0  0  0  0  0  0  0
    1.7090    0.5519    1.8682 C   0  0  2  0  0  0  0  0  0  0  0  0
    2.2057    2.0287    2.1169 C   0  0  0  0  0  0  0  0  0  0  0  0
    1.6860    2.2966    3.5704 C   0  0  1  0  0  0  0  0  0  0  0  0
    0.1126    2.3705    3.1404 C   0  0  0  0  0  0  0  0  0  0  0  0
   -0.7919    1.3131    3.7226 C   0  0  0  0  0  0  0  0  0  0  0  0
    0.1238    0.2258    4.2311 C   0  0  2  0  0  0  0  0  0  0  0  0
   -0.6032   -0.9910    4.3064 O   0  0  0  0  0  0  0  0  0  0  0  0
    0.6192    0.6019    5.7059 C   0  0  1  0  0  0  0  0  0  0  0  0
    2.0766    0.2921    5.4508 C   0  0  0  0  0  0  0  0  0  0  0  0
    2.2920    0.9133    4.1057 C   0  0  2  0  0  0  0  0  0  0  0  0
    3.7090    0.8321    4.0005 O   0  0  0  0  0  0  0  0  0  0  0  0
    1.4349   -0.0307    3.3059 C   0  0  2  0  0  0  0  0  0  0  0  0
    0.3598    1.9610    6.5892 C   0  0  1  0  0  0  0  0  0  0  0  0
   -0.8579    1.8099    7.2970 O   0  0  0  0  0  0  0  0  0  0  0  0
    1.5220    1.9063    7.5511 C   0  0  0  0  0  0  0  0  0  0  0  0
    2.5622    2.6526    7.0957 C   0  0  0  0  0  0  0  0  0  0  0  0
    2.1004    3.6112    6.0359 C   0  0  2  0  0  0  0  0  0  0  0  0
    0.6161    3.5102    6.2783 C   0  0  1  0  0  0  0  0  0  0  0  0
    0.0068    4.4241    5.2149 C   0  0  1  0  0  0  0  0  0  0  0  0
   -0.4968    5.6266    5.7668 O   0  0  0  0  0  0  0  0  0  0  0  0
    1.2046    4.7393    4.2268 C   0  0  1  0  0  0  0  0  0  0  0  0
    1.8489    5.9604    4.5607 O   0  0  0  0  0  0  0  0  0  0  0  0
    2.1963    3.5547    4.4364 C   0  0  2  0  0  0  0  0  0  0  0  0
    3.1432   -3.0808    0.5255 C   0  0  0  0  0  0  0  0  0  0  0  0
    5.4275   -2.9372    1.6131 C   0  0  1  0  0  0  0  0  0  0  0  0
    5.3497   -4.4404    1.5338 C   0  0  2  0  0  0  0  0  0  0  0  0
    9.4773   -2.2308   -0.1937 H   0  0  0  0  0  0  0  0  0  0  0  0
    8.1673   -2.1680   -1.3806 H   0  0  0  0  0  0  0  0  0  0  0  0
    8.6559   -3.7066   -0.6569 H   0  0  0  0  0  0  0  0  0  0  0  0
    7.0283   -5.0379    0.2451 H   0  0  0  0  0  0  0  0  0  0  0  0
    4.7320   -6.1042    0.1300 H   0  0  0  0  0  0  0  0  0  0  0  0
    2.8080   -4.9242   -0.5540 H   0  0  0  0  0  0  0  0  0  0  0  0
    4.7608   -4.3648   -2.2407 H   0  0  0  0  0  0  0  0  0  0  0  0
    3.2046   -3.5664   -2.3266 H   0  0  0  0  0  0  0  0  0  0  0  0
    5.7335   -2.3446   -2.3269 H   0  0  0  0  0  0  0  0  0  0  0  0
    3.0127   -1.0693   -1.8222 H   0  0  0  0  0  0  0  0  0  0  0  0
    4.4707   -0.1443   -2.0075 H   0  0  0  0  0  0  0  0  0  0  0  0
    5.7838   -0.9247   -0.1779 H   0  0  0  0  0  0  0  0  0  0  0  0
    3.6486   -1.2415    2.6680 H   0  0  0  0  0  0  0  0  0  0  0  0
    4.6234   -0.1578    1.6878 H   0  0  0  0  0  0  0  0  0  0  0  0
    2.8848    0.2872    0.2029 H   0  0  0  0  0  0  0  0  0  0  0  0
    0.7990    0.5381    1.2889 H   0  0  0  0  0  0  0  0  0  0  0  0
    3.2847    2.1244    2.0469 H   0  0  0  0  0  0  0  0  0  0  0  0
    1.8159    2.7354    1.3800 H   0  0  0  0  0  0  0  0  0  0  0  0
   -0.3705    3.3257    3.0302 H   0  0  0  0  0  0  0  0  0  0  0  0
   -0.0567    2.2160    2.0771 H   0  0  0  0  0  0  0  0  0  0  0  0
   -1.4185    1.7162    4.5200 H   0  0  0  0  0  0  0  0  0  0  0  0
   -1.4714    0.9484    2.9461 H   0  0  0  0  0  0  0  0  0  0  0  0
   -0.7659   -1.2717    3.4216 H   0  0  0  0  0  0  0  0  0  0  0  0
    0.2830   -0.2105    6.3552 H   0  0  0  0  0  0  0  0  0  0  0  0
    2.8684    0.4867    6.1597 H   0  0  0  0  0  0  0  0  0  0  0  0
    2.2004   -0.7920    5.3878 H   0  0  0  0  0  0  0  0  0  0  0  0
    3.9601    1.2167    3.1749 H   0  0  0  0  0  0  0  0  0  0  0  0
    1.6862   -1.0902    3.3678 H   0  0  0  0  0  0  0  0  0  0  0  0
   -0.9900    2.5827    7.8166 H   0  0  0  0  0  0  0  0  0  0  0  0
    1.5646    1.2104    8.3619 H   0  0  0  0  0  0  0  0  0  0  0  0
    3.5144    2.7065    7.5808 H   0  0  0  0  0  0  0  0  0  0  0  0
    2.5051    4.5577    6.4097 H   0  0  0  0  0  0  0  0  0  0  0  0
    0.4337    4.0188    7.2315 H   0  0  0  0  0  0  0  0  0  0  0  0
   -0.8794    3.9349    4.8323 H   0  0  0  0  0  0  0  0  0  0  0  0
    0.2240    6.0486    6.2077 H   0  0  0  0  0  0  0  0  0  0  0  0
    0.9240    4.8827    3.1805 H   0  0  0  0  0  0  0  0  0  0  0  0
    1.3735    6.6480    4.1257 H   0  0  0  0  0  0  0  0  0  0  0  0
    3.2074    3.7977    4.1100 H   0  0  0  0  0  0  0  0  0  0  0  0
    2.3254   -2.5834    0.0039 H   0  0  0  0  0  0  0  0  0  0  0  0
    2.7346   -3.4908    1.4490 H   0  0  0  0  0  0  0  0  0  0  0  0
    5.8902   -2.4892    2.4917 H   0  0  0  0  0  0  0  0  0  0  0  0
    5.7413   -5.0437    2.3471 H   0  0  0  0  0  0  0  0  0  0  0  0
    2.0164   -0.9924    0.6228 H   0  0  0  0  0  0  0  0  0  0  0  0
  1  2  1  0
  1 43  1  0
  1 44  1  0
  1 45  1  0
  3  2  1  1
  3 13  1  0
  3 41  1  0
  3  4  1  0
  4 42  1  0
  4  5  1  0
  4 46  1  1
  5 42  1  0
  5  6  1  0
  5 47  1  1
  6 40  1  0
  6  7  1  0
  6 48  1  6
  7  8  1  0
  7 49  1  0
  7 50  1  0
  8  9  1  0
  8 13  1  0
  8 51  1  6
  9 10  1  0
  9 52  1  0
  9 53  1  0
 10 11  2  0
 10 12  1  0
 13 14  1  0
 13 54  1  6
 14 15  1  1
 14 40  1  0
 14 41  1  0
 15 16  1  0
 15 55  1  0
 15 56  1  0
 16 17  1  0
 16 57  1  0
 16 85  1  0
 17 28  1  0
 17 18  1  0
 17 58  1  6
 19 18  1  6
 18 59  1  0
 18 60  1  0
 19 26  1  0
 19 39  1  0
 19 20  1  0
 20 21  1  0
 20 61  1  0
 20 62  1  0
 21 22  1  0
 21 63  1  0
 21 64  1  0
 22 28  1  0
 22 23  1  1
 22 24  1  0
 23 65  1  0
 24 25  1  0
 24 29  1  0
 24 66  1  1
 25 26  1  0
 25 67  1  0
 25 68  1  0
 26 27  1  6
 26 28  1  0
 27 69  1  0
 28 70  1  6
 29 34  1  0
 29 30  1  1
 29 31  1  0
 30 71  1  0
 31 32  2  0
 31 72  1  0
 32 33  1  0
 32 73  1  0
 33 39  1  0
 33 34  1  0
 33 74  1  1
 34 35  1  0
 34 75  1  1
 35 36  1  0
 35 37  1  0
 35 76  1  6
 36 77  1  0
 37 38  1  0
 37 39  1  0
 37 78  1  6
 38 79  1  0
 39 80  1  1
 40 81  1  0
 40 82  1  0
 41 42  1  0
 41 83  1  1
 42 84  1  1
M  CHG  2  12  -1  16   1
M  END
>  <i_m_ct_stereo_status>  (150) 
1

>  <s_m_source_file>  (150) 
/var/tmp/pbs.5076255.sched01/tmp0glzbzrw/400n8fk_jm.sdf

>  <i_m_source_file_index>  (150) 
21

>  <i_lp_mmshare_version>  (150) 
48012

>  <i_f3d_flags>  (150) 
2

>  <s_epik_input>  (150) 
W0NIM11PW0NAXTEyW0NASF0zW0NIXTRbQ0BASF01W0NIMl1bQ0BASF0oW0NIMl1DKD1PKVtPSF0pW0NASF0xW0NAQF0oW0NIMl01KShbQ0BIXTJbQ0BASF0zNClbQ0gyXVtOSF1bQ0BIXShbQ0gyXTYpW0NAQEhdKFtDQF03KFtDQEBdNjg5KVtPSF0pW0NAXShbT0hdKShbQ0gyXVtDSDJdOClbQ0BASF0oW0NIMl03KVtDQF0xKFtPSF0pW0NASF0yW0NAQEhdKFtDSF09W0NIXTEpW0NAQEhdOVtDQEhdKFtPSF0pW0NAQEhdMltPSF0=

>  <s_epik_cmdline>  (150) 
J2VwaWtfcHl0aG9uJywgJy1waHQnLCAnMi4wJywgJy1waCcsICc3LjAnLCAnLXRuJywgJzgnLCAnLW1hJywgJzIwMCcsICctaW1hZScsICc8aW5maWxlLm1hZT4nLCAnLW9tYWUnLCAnPG91dGZpbGUubWFlPic=

>  <r_epik_Ionization_Penalty>  (150) 
0.0052349

>  <r_epik_Ionization_Penalty_Charging>  (150) 
0.00523442

>  <r_epik_Ionization_Penalty_Neutral>  (150) 
4.83281e-07

>  <r_epik_State_Penalty>  (150) 
0.00374529

>  <r_epik_Charging_Adjusted_Penalty>  (150) 
0.00897971

>  <i_epik_Tot_Q>  (150) 
0

>  <i_epik_Tot_abs_Q>  (150) 
2

>  <s_lp_Force_Field>  (150) 
OPLS3e

>  <r_lp_Energy>  (150) 
231.974

>  <b_lp_Chiralities_Consistent>  (150) 
0

>  <s_lp_Variant>  (150) 
46:0-1

>  <s_i_glide_gridfile>  (150) 
pfpi4k_grid

>  <i_i_glide_lignum>  (150) 
21

>  <i_i_glide_rotatable_bonds>  (150) 
11

>  <r_i_docking_score>  (150) 
-4.49171

>  <r_i_glide_ligand_efficiency>  (150) 
-0.106945

>  <r_i_glide_ligand_efficiency_sa>  (150) 
-0.371745

>  <r_i_glide_ligand_efficiency_ln>  (150) 
-0.948084

>  <r_i_glide_gscore>  (150) 
-4.49171

>  <r_i_glide_lipo>  (150) 
-0.320275

>  <r_i_glide_hbond>  (150) 
-0.328855

>  <r_i_glide_metal>  (150) 
-0

>  <r_i_glide_rewards>  (150) 
-0.252222

>  <r_i_glide_evdw>  (150) 
-30.2532

>  <r_i_glide_ecoul>  (150) 
-14.4159

>  <r_i_glide_erotb>  (150) 
0.146186

>  <r_i_glide_esite>  (150) 
-0.0614888

>  <r_i_glide_emodel>  (150) 
-55.4387

>  <r_i_glide_energy>  (150) 
-44.6692

>  <r_i_glide_einternal>  (150) 
9.50835

>  <r_i_glide_intrahb_reward>  (150) 
-0

>  <i_i_glide_confnum>  (150) 
5

>  <i_i_glide_posenum>  (150) 
22

>  <r_i_glide_eff_state_penalty>  (150) 
0

>  <ligand_id>  (150) 
46

>  <original_smiles>  (150) 
COC12C3C4C5CC(CC(=O)O)C1C(CNC1CC67CCC8(O)C(CC6(O)C18)C1(O)C=CC6C1C(O)C(O)C67)(C5)C2C43

>  <smiles>  (150) 
[H]OC1([H])C([H])(O[H])C2([H])C3([H])C([H])=C([H])C(O[H])(C13[H])C1([H])C([H])([H])C3(O[H])C4([H])C1(O[H])C([H])([H])C([H])([H])C23C([H])([H])C4([H])[N+]([H])([H])C([H])([H])C12C([H])([H])C3([H])C([H])([H])C([H])(C([H])([H])C(=O)[O-])C1([H])C1(OC([H])([H])[H])C4([H])C3([H])C4([H])C12[H]

$$$$
46:0:1
     RDKit          3D

 85 95  0  0  1  0  0  0  0  0999 V2000
    6.8112   -6.3920    3.9303 C   0  0  0  0  0  0  0  0  0  0  0  0
    5.5352   -5.7897    4.1663 O   0  0  0  0  0  0  0  0  0  0  0  0
    4.8778   -5.4013    2.9666 C   0  0  2  0  0  0  0  0  0  0  0  0
    4.2263   -6.4894    2.1672 C   0  0  1  0  0  0  0  0  0  0  0  0
    3.2991   -6.1260    1.0269 C   0  0  2  0  0  0  0  0  0  0  0  0
    3.6571   -4.8955    0.2064 C   0  0  2  0  0  0  0  0  0  0  0  0
    5.1714   -4.8935   -0.1305 C   0  0  0  0  0  0  0  0  0  0  0  0
    6.0836   -4.2561    0.9682 C   0  0  1  0  0  0  0  0  0  0  0  0
    6.6938   -2.9143    0.5148 C   0  0  0  0  0  0  0  0  0  0  0  0
    7.8244   -3.0819   -0.5050 C   0  0  0  0  0  0  0  0  0  0  0  0
    7.7660   -2.3090   -1.4959 O   0  0  0  0  0  0  0  0  0  0  0  0
    8.7179   -3.9138   -0.2722 O   0  0  0  0  0  0  0  0  0  0  0  0
    5.3652   -4.1074    2.3257 C   0  0  1  0  0  0  0  0  0  0  0  0
    3.9046   -3.5442    2.3656 C   0  0  1  0  0  0  0  0  0  0  0  0
    3.7002   -2.1486    3.0072 C   0  0  0  0  0  0  0  0  0  0  0  0
    2.2691   -1.8064    3.1972 N   0  0  0  0  0  0  0  0  0  0  0  0
    1.9552   -0.3650    3.1955 C   0  0  2  0  0  0  0  0  0  0  0  0
    2.7066    0.4508    4.3309 C   0  0  0  0  0  0  0  0  0  0  0  0
    1.6086    1.4802    4.7437 C   0  0  1  0  0  0  0  0  0  0  0  0
    1.7084    2.3248    3.3508 C   0  0  0  0  0  0  0  0  0  0  0  0
    0.4743    2.3431    2.5054 C   0  0  0  0  0  0  0  0  0  0  0  0
   -0.4023    1.2455    3.0011 C   0  0  2  0  0  0  0  0  0  0  0  0
   -1.3127    0.9440    1.9625 O   0  0  0  0  0  0  0  0  0  0  0  0
   -1.2495    1.7806    4.2511 C   0  0  1  0  0  0  0  0  0  0  0  0
   -0.9734    0.5918    5.1429 C   0  0  0  0  0  0  0  0  0  0  0  0
    0.4857    0.3391    4.8785 C   0  0  2  0  0  0  0  0  0  0  0  0
    0.7593   -0.7241    5.7752 O   0  0  0  0  0  0  0  0  0  0  0  0
    0.4198   -0.0845    3.4506 C   0  0  2  0  0  0  0  0  0  0  0  0
   -1.2015    3.2323    5.0010 C   0  0  1  0  0  0  0  0  0  0  0  0
   -2.0043    4.1390    4.2791 O   0  0  0  0  0  0  0  0  0  0  0  0
   -1.8039    2.8850    6.3446 C   0  0  0  0  0  0  0  0  0  0  0  0
   -0.8229    2.6165    7.2376 C   0  0  0  0  0  0  0  0  0  0  0  0
    0.4968    3.1733    6.7684 C   0  0  2  0  0  0  0  0  0  0  0  0
   -0.0152    4.0696    5.6739 C   0  0  1  0  0  0  0  0  0  0  0  0
    1.2423    4.6589    5.0540 C   0  0  1  0  0  0  0  0  0  0  0  0
    1.3936    6.0169    5.4079 O   0  0  0  0  0  0  0  0  0  0  0  0
    2.4149    3.7709    5.6439 C   0  0  1  0  0  0  0  0  0  0  0  0
    3.0259    4.3676    6.7761 O   0  0  0  0  0  0  0  0  0  0  0  0
    1.7335    2.4207    6.0623 C   0  0  2  0  0  0  0  0  0  0  0  0
    3.2721   -3.5744    0.9593 C   0  0  0  0  0  0  0  0  0  0  0  0
    3.5103   -4.7804    3.2034 C   0  0  1  0  0  0  0  0  0  0  0  0
    2.8688   -5.9065    2.4479 C   0  0  2  0  0  0  0  0  0  0  0  0
    7.2618   -6.7075    4.8743 H   0  0  0  0  0  0  0  0  0  0  0  0
    7.5068   -5.6954    3.4552 H   0  0  0  0  0  0  0  0  0  0  0  0
    6.7280   -7.2807    3.2995 H   0  0  0  0  0  0  0  0  0  0  0  0
    4.4017   -7.5221    2.4419 H   0  0  0  0  0  0  0  0  0  0  0  0
    2.8831   -6.9700    0.4830 H   0  0  0  0  0  0  0  0  0  0  0  0
    3.0845   -4.9366   -0.7221 H   0  0  0  0  0  0  0  0  0  0  0  0
    5.4893   -5.9161   -0.3322 H   0  0  0  0  0  0  0  0  0  0  0  0
    5.2978   -4.3592   -1.0731 H   0  0  0  0  0  0  0  0  0  0  0  0
    6.9021   -4.9628    1.1128 H   0  0  0  0  0  0  0  0  0  0  0  0
    5.9172   -2.2703    0.1018 H   0  0  0  0  0  0  0  0  0  0  0  0
    7.1224   -2.3826    1.3581 H   0  0  0  0  0  0  0  0  0  0  0  0
    5.9496   -3.5799    3.0791 H   0  0  0  0  0  0  0  0  0  0  0  0
    4.1901   -2.1228    3.9824 H   0  0  0  0  0  0  0  0  0  0  0  0
    4.2111   -1.4071    2.3964 H   0  0  0  0  0  0  0  0  0  0  0  0
    1.7763   -2.1985    2.4218 H   0  0  0  0  0  0  0  0  0  0  0  0
    2.2096   -0.0405    2.1911 H   0  0  0  0  0  0  0  0  0  0  0  0
    3.0376   -0.1589    5.1730 H   0  0  0  0  0  0  0  0  0  0  0  0
    3.6322    0.9140    3.9748 H   0  0  0  0  0  0  0  0  0  0  0  0
    2.2425    3.2593    3.2966 H   0  0  0  0  0  0  0  0  0  0  0  0
    2.4372    1.9369    2.6411 H   0  0  0  0  0  0  0  0  0  0  0  0
   -0.0500    3.2888    2.5666 H   0  0  0  0  0  0  0  0  0  0  0  0
    0.7432    2.1697    1.4596 H   0  0  0  0  0  0  0  0  0  0  0  0
   -0.8605    0.9454    1.1219 H   0  0  0  0  0  0  0  0  0  0  0  0
   -2.3041    1.6775    3.9743 H   0  0  0  0  0  0  0  0  0  0  0  0
   -1.2420    0.5519    6.1853 H   0  0  0  0  0  0  0  0  0  0  0  0
   -1.5748   -0.2424    4.7767 H   0  0  0  0  0  0  0  0  0  0  0  0
    1.6736   -0.9591    5.7070 H   0  0  0  0  0  0  0  0  0  0  0  0
   -0.1808   -0.9803    3.3090 H   0  0  0  0  0  0  0  0  0  0  0  0
   -1.6727    4.1503    3.3893 H   0  0  0  0  0  0  0  0  0  0  0  0
   -2.8579    2.7411    6.4924 H   0  0  0  0  0  0  0  0  0  0  0  0
   -1.0088    2.3141    8.2506 H   0  0  0  0  0  0  0  0  0  0  0  0
    0.8327    3.7333    7.6397 H   0  0  0  0  0  0  0  0  0  0  0  0
   -0.5054    4.9043    6.1842 H   0  0  0  0  0  0  0  0  0  0  0  0
    1.0834    4.7007    3.9833 H   0  0  0  0  0  0  0  0  0  0  0  0
    2.0151    6.4027    4.8036 H   0  0  0  0  0  0  0  0  0  0  0  0
    3.2710    3.6660    4.9769 H   0  0  0  0  0  0  0  0  0  0  0  0
    2.3367    4.5766    7.3932 H   0  0  0  0  0  0  0  0  0  0  0  0
    2.3340    1.8854    6.7970 H   0  0  0  0  0  0  0  0  0  0  0  0
    3.5594   -2.6970    0.3751 H   0  0  0  0  0  0  0  0  0  0  0  0
    2.1857   -3.5509    1.0413 H   0  0  0  0  0  0  0  0  0  0  0  0
    3.2650   -4.6423    4.2595 H   0  0  0  0  0  0  0  0  0  0  0  0
    2.1511   -6.5423    2.9510 H   0  0  0  0  0  0  0  0  0  0  0  0
    1.9355   -2.2483    4.0402 H   0  0  0  0  0  0  0  0  0  0  0  0
  1  2  1  0
  1 43  1  0
  1 44  1  0
  1 45  1  0
  3  2  1  1
  3 13  1  0
  3 41  1  0
  3  4  1  0
  4 42  1  0
  4  5  1  0
  4 46  1  1
  5 42  1  0
  5  6  1  0
  5 47  1  6
  6 40  1  0
  6  7  1  0
  6 48  1  6
  7  8  1  0
  7 49  1  0
  7 50  1  0
  8  9  1  0
  8 13  1  0
  8 51  1  1
  9 10  1  0
  9 52  1  0
  9 53  1  0
 10 11  2  0
 10 12  1  0
 13 14  1  0
 13 54  1  1
 14 15  1  1
 14 40  1  0
 14 41  1  0
 15 16  1  0
 15 55  1  0
 15 56  1  0
 16 17  1  0
 16 57  1  0
 16 85  1  0
 17 28  1  0
 17 18  1  0
 17 58  1  6
 19 18  1  6
 18 59  1  0
 18 60  1  0
 19 26  1  0
 19 39  1  0
 19 20  1  0
 20 21  1  0
 20 61  1  0
 20 62  1  0
 21 22  1  0
 21 63  1  0
 21 64  1  0
 22 28  1  0
 22 23  1  6
 22 24  1  0
 23 65  1  0
 24 25  1  0
 24 29  1  0
 24 66  1  6
 25 26  1  0
 25 67  1  0
 25 68  1  0
 26 27  1  1
 26 28  1  0
 27 69  1  0
 28 70  1  1
 29 34  1  0
 29 30  1  6
 29 31  1  0
 30 71  1  0
 31 32  2  0
 31 72  1  0
 32 33  1  0
 32 73  1  0
 33 39  1  0
 33 34  1  0
 33 74  1  1
 34 35  1  0
 34 75  1  1
 35 36  1  0
 35 37  1  0
 35 76  1  6
 36 77  1  0
 37 38  1  0
 37 39  1  0
 37 78  1  6
 38 79  1  0
 39 80  1  1
 40 81  1  0
 40 82  1  0
 41 42  1  0
 41 83  1  1
 42 84  1  1
M  CHG  2  12  -1  16   1
M  END
>  <i_m_ct_stereo_status>  (151) 
1

>  <s_m_source_file>  (151) 
/var/tmp/pbs.5076255.sched01/tmp0glzbzrw/400n8fk_jm.sdf

>  <i_m_source_file_index>  (151) 
21

>  <i_lp_mmshare_version>  (151) 
48012

>  <i_f3d_flags>  (151) 
2

>  <s_epik_input>  (151) 
W0NIM11PW0NAXTEyW0NASF0zW0NIXTRbQ0BASF01W0NIMl1bQ0BASF0oW0NIMl1DKD1PKVtPSF0pW0NASF0xW0NAQF0oW0NIMl01KShbQ0BIXTJbQ0BASF0zNClbQ0gyXVtOSF1bQ0BIXShbQ0gyXTYpW0NAQEhdKFtDQF03KFtDQEBdNjg5KVtPSF0pW0NAXShbT0hdKShbQ0gyXVtDSDJdOClbQ0BASF0oW0NIMl03KVtDQF0xKFtPSF0pW0NASF0yW0NAQEhdKFtDSF09W0NIXTEpW0NAQEhdOVtDQEhdKFtPSF0pW0NAQEhdMltPSF0=

>  <s_epik_cmdline>  (151) 
J2VwaWtfcHl0aG9uJywgJy1waHQnLCAnMi4wJywgJy1waCcsICc3LjAnLCAnLXRuJywgJzgnLCAnLW1hJywgJzIwMCcsICctaW1hZScsICc8aW5maWxlLm1hZT4nLCAnLW9tYWUnLCAnPG91dGZpbGUubWFlPic=

>  <r_epik_Ionization_Penalty>  (151) 
0.0052349

>  <r_epik_Ionization_Penalty_Charging>  (151) 
0.00523442

>  <r_epik_Ionization_Penalty_Neutral>  (151) 
4.83281e-07

>  <r_epik_State_Penalty>  (151) 
0.00374529

>  <r_epik_Charging_Adjusted_Penalty>  (151) 
0.00897971

>  <i_epik_Tot_Q>  (151) 
0

>  <i_epik_Tot_abs_Q>  (151) 
2

>  <s_lp_Force_Field>  (151) 
OPLS3e

>  <r_lp_Energy>  (151) 
231.974

>  <b_lp_Chiralities_Consistent>  (151) 
0

>  <s_lp_Variant>  (151) 
46:0-1

>  <s_i_glide_gridfile>  (151) 
pfpi4k_grid

>  <i_i_glide_lignum>  (151) 
21

>  <i_i_glide_rotatable_bonds>  (151) 
11

>  <r_i_docking_score>  (151) 
-3.50211

>  <r_i_glide_ligand_efficiency>  (151) 
-0.0833835

>  <r_i_glide_ligand_efficiency_sa>  (151) 
-0.289843

>  <r_i_glide_ligand_efficiency_ln>  (151) 
-0.739205

>  <r_i_glide_gscore>  (151) 
-3.50211

>  <r_i_glide_lipo>  (151) 
-0.344685

>  <r_i_glide_hbond>  (151) 
-0.413144

>  <r_i_glide_metal>  (151) 
-0

>  <r_i_glide_rewards>  (151) 
-0.15582

>  <r_i_glide_evdw>  (151) 
-23.3342

>  <r_i_glide_ecoul>  (151) 
-10.4338

>  <r_i_glide_erotb>  (151) 
0.146186

>  <r_i_glide_esite>  (151) 
-0.00286317

>  <r_i_glide_emodel>  (151) 
-43.9818

>  <r_i_glide_energy>  (151) 
-33.768

>  <r_i_glide_einternal>  (151) 
3.48853

>  <r_i_glide_intrahb_reward>  (151) 
-0

>  <i_i_glide_confnum>  (151) 
2

>  <i_i_glide_posenum>  (151) 
19

>  <r_i_glide_eff_state_penalty>  (151) 
0

>  <ligand_id>  (151) 
46

>  <original_smiles>  (151) 
COC12C3C4C5CC(CC(=O)O)C1C(CNC1CC67CCC8(O)C(CC6(O)C18)C1(O)C=CC6C1C(O)C(O)C67)(C5)C2C43

>  <smiles>  (151) 
[H]OC1([H])C([H])(O[H])C2([H])C3([H])C([H])=C([H])C(O[H])(C13[H])C1([H])C([H])([H])C3(O[H])C4([H])C1(O[H])C([H])([H])C([H])([H])C23C([H])([H])C4([H])[N+]([H])([H])C([H])([H])C12C([H])([H])C3([H])C([H])([H])C([H])(C([H])([H])C(=O)[O-])C1([H])C1(OC([H])([H])[H])C4([H])C3([H])C4([H])C12[H]

$$$$
46:0:2
     RDKit          3D

 85 95  0  0  1  0  0  0  0  0999 V2000
   -1.5720   -8.8650    2.2006 C   0  0  0  0  0  0  0  0  0  0  0  0
   -1.1181   -9.8103    3.1552 O   0  0  0  0  0  0  0  0  0  0  0  0
    0.1985   -9.8499    3.6821 C   0  0  2  0  0  0  0  0  0  0  0  0
    0.5983  -11.1391    4.4050 C   0  0  1  0  0  0  0  0  0  0  0  0
    2.0448  -11.4021    4.7654 C   0  0  2  0  0  0  0  0  0  0  0  0
    2.8732  -10.1890    5.1642 C   0  0  2  0  0  0  0  0  0  0  0  0
    2.0806   -9.3331    6.1882 C   0  0  0  0  0  0  0  0  0  0  0  0
    1.0993   -8.2830    5.5808 C   0  0  1  0  0  0  0  0  0  0  0  0
    1.5763   -6.8230    5.8024 C   0  0  0  0  0  0  0  0  0  0  0  0
    0.4741   -5.7563    5.7087 C   0  0  0  0  0  0  0  0  0  0  0  0
    0.7459   -4.6540    6.2600 O   0  0  0  0  0  0  0  0  0  0  0  0
   -0.5816   -5.9914    5.1068 O   0  0  0  0  0  0  0  0  0  0  0  0
    0.8495   -8.5388    4.0790 C   0  0  1  0  0  0  0  0  0  0  0  0
    2.0359   -8.8673    3.1638 C   0  0  1  0  0  0  0  0  0  0  0  0
    2.3106   -7.8380    2.0512 C   0  0  0  0  0  0  0  0  0  0  0  0
    3.1294   -6.6879    2.5714 N   0  0  0  0  0  0  0  0  0  0  0  0
    3.1026   -5.4356    1.7618 C   0  0  2  0  0  0  0  0  0  0  0  0
    3.3349   -5.6755    0.2193 C   0  0  0  0  0  0  0  0  0  0  0  0
    4.2068   -4.4361   -0.1472 C   0  0  1  0  0  0  0  0  0  0  0  0
    2.9971   -3.3597    0.0455 C   0  0  0  0  0  0  0  0  0  0  0  0
    3.1712   -2.3258    1.1221 C   0  0  0  0  0  0  0  0  0  0  0  0
    4.2762   -2.8521    2.0040 C   0  0  2  0  0  0  0  0  0  0  0  0
    4.1834   -2.2418    3.2727 O   0  0  0  0  0  0  0  0  0  0  0  0
    5.6726   -2.4390    1.3515 C   0  0  1  0  0  0  0  0  0  0  0  0
    6.3025   -3.8046    1.4722 C   0  0  0  0  0  0  0  0  0  0  0  0
    5.1939   -4.7123    1.0812 C   0  0  2  0  0  0  0  0  0  0  0  0
    5.8465   -5.9666    1.1153 O   0  0  0  0  0  0  0  0  0  0  0  0
    4.2500   -4.4575    2.2058 C   0  0  2  0  0  0  0  0  0  0  0  0
    5.9895   -1.6816   -0.0546 C   0  0  1  0  0  0  0  0  0  0  0  0
    5.9329   -0.2954    0.1461 O   0  0  0  0  0  0  0  0  0  0  0  0
    7.4239   -2.0965   -0.2673 C   0  0  0  0  0  0  0  0  0  0  0  0
    7.4867   -3.1505   -1.1299 C   0  0  0  0  0  0  0  0  0  0  0  0
    6.1973   -3.3230   -1.8632 C   0  0  2  0  0  0  0  0  0  0  0  0
    5.5975   -1.9656   -1.5684 C   0  0  1  0  0  0  0  0  0  0  0  0
    4.2212   -1.9983   -2.2296 C   0  0  1  0  0  0  0  0  0  0  0  0
    4.1873   -1.2172   -3.4034 O   0  0  0  0  0  0  0  0  0  0  0  0
    4.0098   -3.5242   -2.5677 C   0  0  1  0  0  0  0  0  0  0  0  0
    4.3826   -3.8177   -3.8912 O   0  0  0  0  0  0  0  0  0  0  0  0
    4.9431   -4.2851   -1.5806 C   0  0  2  0  0  0  0  0  0  0  0  0
    3.2847   -9.3214    3.9279 C   0  0  0  0  0  0  0  0  0  0  0  0
    1.2727  -10.1157    2.6820 C   0  0  1  0  0  0  0  0  0  0  0  0
    1.6148  -11.4404    3.3316 C   0  0  2  0  0  0  0  0  0  0  0  0
   -2.6239   -9.0128    1.9976 H   0  0  0  0  0  0  0  0  0  0  0  0
   -1.0677   -9.0786    1.2747 H   0  0  0  0  0  0  0  0  0  0  0  0
   -1.4308   -7.8097    2.3702 H   0  0  0  0  0  0  0  0  0  0  0  0
   -0.1660  -11.8869    4.5871 H   0  0  0  0  0  0  0  0  0  0  0  0
    2.2653  -12.3450    5.2713 H   0  0  0  0  0  0  0  0  0  0  0  0
    3.7817  -10.5747    5.6228 H   0  0  0  0  0  0  0  0  0  0  0  0
    1.5217  -10.0075    6.8585 H   0  0  0  0  0  0  0  0  0  0  0  0
    2.8256   -8.8273    6.7912 H   0  0  0  0  0  0  0  0  0  0  0  0
    0.1688   -8.4014    6.1347 H   0  0  0  0  0  0  0  0  0  0  0  0
    2.0147   -6.7308    6.7864 H   0  0  0  0  0  0  0  0  0  0  0  0
    2.3702   -6.5773    5.0953 H   0  0  0  0  0  0  0  0  0  0  0  0
    0.3166   -7.7240    3.6173 H   0  0  0  0  0  0  0  0  0  0  0  0
    2.8153   -8.3115    1.2252 H   0  0  0  0  0  0  0  0  0  0  0  0
    1.3758   -7.4641    1.6540 H   0  0  0  0  0  0  0  0  0  0  0  0
    2.7418   -6.4516    3.4570 H   0  0  0  0  0  0  0  0  0  0  0  0
    2.1279   -5.0042    1.9989 H   0  0  0  0  0  0  0  0  0  0  0  0
    3.8343   -6.6144   -0.0268 H   0  0  0  0  0  0  0  0  0  0  0  0
    2.4010   -5.7334   -0.3329 H   0  0  0  0  0  0  0  0  0  0  0  0
    2.4677   -2.9765   -0.8023 H   0  0  0  0  0  0  0  0  0  0  0  0
    2.0631   -3.8188    0.3523 H   0  0  0  0  0  0  0  0  0  0  0  0
    3.4084   -1.3463    0.7084 H   0  0  0  0  0  0  0  0  0  0  0  0
    2.2384   -2.2082    1.6741 H   0  0  0  0  0  0  0  0  0  0  0  0
    3.3031   -2.3950    3.6044 H   0  0  0  0  0  0  0  0  0  0  0  0
    6.1880   -1.8235    2.0965 H   0  0  0  0  0  0  0  0  0  0  0  0
    7.2732   -4.0784    1.0779 H   0  0  0  0  0  0  0  0  0  0  0  0
    6.5301   -3.9756    2.5204 H   0  0  0  0  0  0  0  0  0  0  0  0
    5.2101   -6.6542    0.9327 H   0  0  0  0  0  0  0  0  0  0  0  0
    4.6796   -4.7321    3.1730 H   0  0  0  0  0  0  0  0  0  0  0  0
    5.0252   -0.0216    0.0434 H   0  0  0  0  0  0  0  0  0  0  0  0
    8.2449   -1.6835    0.2734 H   0  0  0  0  0  0  0  0  0  0  0  0
    8.4033   -3.5936   -1.4128 H   0  0  0  0  0  0  0  0  0  0  0  0
    6.5376   -3.3824   -2.9257 H   0  0  0  0  0  0  0  0  0  0  0  0
    6.1683   -1.2455   -2.1671 H   0  0  0  0  0  0  0  0  0  0  0  0
    3.5152   -1.4955   -1.5747 H   0  0  0  0  0  0  0  0  0  0  0  0
    3.2712   -1.0347   -3.5895 H   0  0  0  0  0  0  0  0  0  0  0  0
    2.9720   -3.8487   -2.5380 H   0  0  0  0  0  0  0  0  0  0  0  0
    4.2581   -4.7544   -3.9853 H   0  0  0  0  0  0  0  0  0  0  0  0
    5.1054   -5.3090   -1.9144 H   0  0  0  0  0  0  0  0  0  0  0  0
    3.8802   -8.4765    4.2779 H   0  0  0  0  0  0  0  0  0  0  0  0
    3.8972   -9.9115    3.2417 H   0  0  0  0  0  0  0  0  0  0  0  0
    0.8683  -10.1824    1.6803 H   0  0  0  0  0  0  0  0  0  0  0  0
    1.3645  -12.3299    2.7820 H   0  0  0  0  0  0  0  0  0  0  0  0
    4.0731   -7.0178    2.6797 H   0  0  0  0  0  0  0  0  0  0  0  0
  1  2  1  0
  1 43  1  0
  1 44  1  0
  1 45  1  0
  3  2  1  6
  3 13  1  0
  3 41  1  0
  3  4  1  0
  4 42  1  0
  4  5  1  0
  4 46  1  1
  5 42  1  0
  5  6  1  0
  5 47  1  1
  6 40  1  0
  6  7  1  0
  6 48  1  1
  7  8  1  0
  7 49  1  0
  7 50  1  0
  8  9  1  0
  8 13  1  0
  8 51  1  1
  9 10  1  0
  9 52  1  0
  9 53  1  0
 10 11  2  0
 10 12  1  0
 13 14  1  0
 13 54  1  6
 14 15  1  6
 14 40  1  0
 14 41  1  0
 15 16  1  0
 15 55  1  0
 15 56  1  0
 16 17  1  0
 16 57  1  0
 16 85  1  0
 17 28  1  0
 17 18  1  0
 17 58  1  6
 19 18  1  6
 18 59  1  0
 18 60  1  0
 19 26  1  0
 19 39  1  0
 19 20  1  0
 20 21  1  0
 20 61  1  0
 20 62  1  0
 21 22  1  0
 21 63  1  0
 21 64  1  0
 22 28  1  0
 22 23  1  1
 22 24  1  0
 23 65  1  0
 24 25  1  0
 24 29  1  0
 24 66  1  1
 25 26  1  0
 25 67  1  0
 25 68  1  0
 26 27  1  6
 26 28  1  0
 27 69  1  0
 28 70  1  1
 29 34  1  0
 29 30  1  1
 29 31  1  0
 30 71  1  0
 31 32  2  0
 31 72  1  0
 32 33  1  0
 32 73  1  0
 33 39  1  0
 33 34  1  0
 33 74  1  6
 34 35  1  0
 34 75  1  6
 35 36  1  0
 35 37  1  0
 35 76  1  1
 36 77  1  0
 37 38  1  0
 37 39  1  0
 37 78  1  6
 38 79  1  0
 39 80  1  6
 40 81  1  0
 40 82  1  0
 41 42  1  0
 41 83  1  6
 42 84  1  6
M  CHG  2  12  -1  16   1
M  END
>  <i_m_ct_stereo_status>  (152) 
1

>  <s_m_source_file>  (152) 
/var/tmp/pbs.5076255.sched01/tmp0glzbzrw/400n8fk_jm.sdf

>  <i_m_source_file_index>  (152) 
21

>  <i_lp_mmshare_version>  (152) 
48012

>  <i_f3d_flags>  (152) 
2

>  <s_epik_input>  (152) 
W0NIM11PW0NAXTEyW0NASF0zW0NIXTRbQ0BASF01W0NIMl1bQ0BASF0oW0NIMl1DKD1PKVtPSF0pW0NASF0xW0NAQF0oW0NIMl01KShbQ0BIXTJbQ0BASF0zNClbQ0gyXVtOSF1bQ0BIXShbQ0gyXTYpW0NAQEhdKFtDQF03KFtDQEBdNjg5KVtPSF0pW0NAXShbT0hdKShbQ0gyXVtDSDJdOClbQ0BASF0oW0NIMl03KVtDQF0xKFtPSF0pW0NASF0yW0NAQEhdKFtDSF09W0NIXTEpW0NAQEhdOVtDQEhdKFtPSF0pW0NAQEhdMltPSF0=

>  <s_epik_cmdline>  (152) 
J2VwaWtfcHl0aG9uJywgJy1waHQnLCAnMi4wJywgJy1waCcsICc3LjAnLCAnLXRuJywgJzgnLCAnLW1hJywgJzIwMCcsICctaW1hZScsICc8aW5maWxlLm1hZT4nLCAnLW9tYWUnLCAnPG91dGZpbGUubWFlPic=

>  <r_epik_Ionization_Penalty>  (152) 
0.0052349

>  <r_epik_Ionization_Penalty_Charging>  (152) 
0.00523442

>  <r_epik_Ionization_Penalty_Neutral>  (152) 
4.83281e-07

>  <r_epik_State_Penalty>  (152) 
0.00374529

>  <r_epik_Charging_Adjusted_Penalty>  (152) 
0.00897971

>  <i_epik_Tot_Q>  (152) 
0

>  <i_epik_Tot_abs_Q>  (152) 
2

>  <s_lp_Force_Field>  (152) 
OPLS3e

>  <r_lp_Energy>  (152) 
231.974

>  <b_lp_Chiralities_Consistent>  (152) 
0

>  <s_lp_Variant>  (152) 
46:0-1

>  <s_i_glide_gridfile>  (152) 
pfpi4k_grid

>  <i_i_glide_lignum>  (152) 
21

>  <i_i_glide_rotatable_bonds>  (152) 
11

>  <r_i_docking_score>  (152) 
-3.47443

>  <r_i_glide_ligand_efficiency>  (152) 
-0.0827244

>  <r_i_glide_ligand_efficiency_sa>  (152) 
-0.287552

>  <r_i_glide_ligand_efficiency_ln>  (152) 
-0.733362

>  <r_i_glide_gscore>  (152) 
-3.47443

>  <r_i_glide_lipo>  (152) 
-0.907293

>  <r_i_glide_hbond>  (152) 
0

>  <r_i_glide_metal>  (152) 
-0

>  <r_i_glide_rewards>  (152) 
0

>  <r_i_glide_evdw>  (152) 
-31.4706

>  <r_i_glide_ecoul>  (152) 
-7.56693

>  <r_i_glide_erotb>  (152) 
0.146186

>  <r_i_glide_esite>  (152) 
-0.00475056

>  <r_i_glide_emodel>  (152) 
-46.9262

>  <r_i_glide_energy>  (152) 
-39.0375

>  <r_i_glide_einternal>  (152) 
7.49571

>  <r_i_glide_intrahb_reward>  (152) 
-0

>  <i_i_glide_confnum>  (152) 
1

>  <i_i_glide_posenum>  (152) 
13

>  <r_i_glide_eff_state_penalty>  (152) 
0

>  <ligand_id>  (152) 
46

>  <original_smiles>  (152) 
COC12C3C4C5CC(CC(=O)O)C1C(CNC1CC67CCC8(O)C(CC6(O)C18)C1(O)C=CC6C1C(O)C(O)C67)(C5)C2C43

>  <smiles>  (152) 
[H]OC1([H])C([H])(O[H])C2([H])C3([H])C([H])=C([H])C(O[H])(C13[H])C1([H])C([H])([H])C3(O[H])C4([H])C1(O[H])C([H])([H])C([H])([H])C23C([H])([H])C4([H])[N+]([H])([H])C([H])([H])C12C([H])([H])C3([H])C([H])([H])C([H])(C([H])([H])C(=O)[O-])C1([H])C1(OC([H])([H])[H])C4([H])C3([H])C4([H])C12[H]

$$$$
47:0:0
     RDKit          3D

 26 28  0  0  1  0  0  0  0  0999 V2000
    8.7981   -4.2488    0.2062 C   0  0  0  0  0  0  0  0  0  0  0  0
    7.5579   -4.7311    0.7835 N   0  0  0  0  0  0  0  0  0  0  0  0
    7.6200   -5.5744    1.8475 N   0  0  0  0  0  0  0  0  0  0  0  0
    6.3761   -5.8507    2.1665 C   0  0  0  0  0  0  0  0  0  0  0  0
    5.4515   -5.1825    1.3039 C   0  0  0  0  0  0  0  0  0  0  0  0
    4.0596   -5.0604    1.1207 C   0  0  0  0  0  0  0  0  0  0  0  0
    3.5746   -4.2385    0.0862 C   0  0  0  0  0  0  0  0  0  0  0  0
    4.4908   -3.5570   -0.7492 C   0  0  0  0  0  0  0  0  0  0  0  0
    4.0263   -2.6751   -1.8322 C   0  0  0  0  0  0  0  0  0  0  0  0
    2.9394   -3.0472   -2.6487 C   0  0  0  0  0  0  0  0  0  0  0  0
    2.5536   -2.2074   -3.7008 C   0  0  0  0  0  0  0  0  0  0  0  0
    3.1439   -1.0251   -3.9650 N   0  0  0  0  0  0  0  0  0  0  0  0
    4.1429   -0.6349   -3.1502 C   0  0  0  0  0  0  0  0  0  0  0  0
    4.6315   -1.4228   -2.0948 C   0  0  0  0  0  0  0  0  0  0  0  0
    5.6798   -0.9772   -1.3590 F   0  0  0  0  0  0  0  0  0  0  0  0
    5.8343   -3.6673   -0.6263 N   0  0  0  0  0  0  0  0  0  0  0  0
    6.2567   -4.4574    0.3951 C   0  0  0  0  0  0  0  0  0  0  0  0
    8.6010   -3.5799   -0.6354 H   0  0  0  0  0  0  0  0  0  0  0  0
    9.3784   -5.1016   -0.1509 H   0  0  0  0  0  0  0  0  0  0  0  0
    9.3667   -3.7051    0.9641 H   0  0  0  0  0  0  0  0  0  0  0  0
    6.1733   -6.5130    2.9964 H   0  0  0  0  0  0  0  0  0  0  0  0
    3.3776   -5.5848    1.7707 H   0  0  0  0  0  0  0  0  0  0  0  0
    2.5128   -4.1134   -0.0681 H   0  0  0  0  0  0  0  0  0  0  0  0
    2.3893   -3.9598   -2.4821 H   0  0  0  0  0  0  0  0  0  0  0  0
    1.7070   -2.4713   -4.3218 H   0  0  0  0  0  0  0  0  0  0  0  0
    4.5835    0.3277   -3.3591 H   0  0  0  0  0  0  0  0  0  0  0  0
  1  2  1  0
  1 18  1  0
  1 19  1  0
  1 20  1  0
  2 17  1  0
  2  3  1  0
  3  4  2  0
  4  5  1  0
  4 21  1  0
  5 17  2  0
  5  6  1  0
  6  7  2  0
  6 22  1  0
  7  8  1  0
  7 23  1  0
  8  9  1  0
  8 16  2  0
  9 14  1  0
  9 10  2  0
 10 11  1  0
 10 24  1  0
 11 12  2  0
 11 25  1  0
 12 13  1  0
 13 14  2  0
 13 26  1  0
 14 15  1  0
 16 17  1  0
M  END
>  <i_m_ct_stereo_status>  (153) 
1

>  <s_m_source_file>  (153) 
/var/tmp/pbs.5076255.sched01/tmp0glzbzrw/400n8fk_jm.sdf

>  <i_m_source_file_index>  (153) 
22

>  <i_lp_mmshare_version>  (153) 
48012

>  <i_f3d_flags>  (153) 
0

>  <s_epik_input>  (153) 
W2NIXTFubihbQ0gzXSljKGMxMiluYyhbY0hdW2NIXTIpLWMzW2NIXVtjSF1uW2NIXWMzRg==

>  <s_epik_cmdline>  (153) 
J2VwaWtfcHl0aG9uJywgJy1waHQnLCAnMi4wJywgJy1waCcsICc3LjAnLCAnLXRuJywgJzgnLCAnLW1hJywgJzIwMCcsICctaW1hZScsICc8aW5maWxlLm1hZT4nLCAnLW9tYWUnLCAnPG91dGZpbGUubWFlPic=

>  <r_lp_tautomer_probability>  (153) 
1

>  <r_epik_Ionization_Penalty>  (153) 
0.000119646

>  <r_epik_Ionization_Penalty_Charging>  (153) 
0

>  <r_epik_Ionization_Penalty_Neutral>  (153) 
0.000119646

>  <r_epik_State_Penalty>  (153) 
-0

>  <r_epik_Charging_Adjusted_Penalty>  (153) 
0

>  <i_epik_Tot_Q>  (153) 
0

>  <i_epik_Tot_abs_Q>  (153) 
0

>  <s_lp_Force_Field>  (153) 
OPLS3e

>  <r_lp_Energy>  (153) 
31.7766

>  <b_lp_Chiralities_Consistent>  (153) 
1

>  <s_lp_Variant>  (153) 
47:0-1

>  <s_i_glide_gridfile>  (153) 
pfpi4k_grid

>  <i_i_glide_lignum>  (153) 
22

>  <i_i_glide_rotatable_bonds>  (153) 
1

>  <r_i_docking_score>  (153) 
-3.89921

>  <r_i_glide_ligand_efficiency>  (153) 
-0.229366

>  <r_i_glide_ligand_efficiency_sa>  (153) 
-0.589764

>  <r_i_glide_ligand_efficiency_ln>  (153) 
-1.01722

>  <r_i_glide_gscore>  (153) 
-3.89921

>  <r_i_glide_lipo>  (153) 
-0.569815

>  <r_i_glide_hbond>  (153) 
0

>  <r_i_glide_metal>  (153) 
-0

>  <r_i_glide_rewards>  (153) 
-2.18647

>  <r_i_glide_evdw>  (153) 
-23.2502

>  <r_i_glide_ecoul>  (153) 
-1.63685

>  <r_i_glide_erotb>  (153) 
0.327063

>  <r_i_glide_esite>  (153) 
-0.0619518

>  <r_i_glide_emodel>  (153) 
-31.3093

>  <r_i_glide_energy>  (153) 
-24.8871

>  <r_i_glide_einternal>  (153) 
0.00133982

>  <r_i_glide_intrahb_reward>  (153) 
-0

>  <i_i_glide_confnum>  (153) 
5

>  <i_i_glide_posenum>  (153) 
11

>  <r_i_glide_eff_state_penalty>  (153) 
0

>  <ligand_id>  (153) 
47

>  <original_smiles>  (153) 
Cn1ncc2ccc(-c3ccncc3F)nc21

>  <smiles>  (153) 
[H]c1nc([H])c(F)c(-c2nc3c(c([H])nn3C([H])([H])[H])c([H])c2[H])c1[H]

$$$$
47:0:1
     RDKit          3D

 26 28  0  0  1  0  0  0  0  0999 V2000
    0.6695   -3.4064    4.7384 C   0  0  0  0  0  0  0  0  0  0  0  0
    0.4094   -2.0308    4.3602 N   0  0  0  0  0  0  0  0  0  0  0  0
   -0.6623   -1.3940    4.9126 N   0  0  0  0  0  0  0  0  0  0  0  0
   -0.6583   -0.1796    4.4118 C   0  0  0  0  0  0  0  0  0  0  0  0
    0.4297    0.0103    3.5010 C   0  0  0  0  0  0  0  0  0  0  0  0
    0.9590    1.0213    2.6731 C   0  0  0  0  0  0  0  0  0  0  0  0
    2.1160    0.7516    1.9178 C   0  0  0  0  0  0  0  0  0  0  0  0
    2.7094   -0.5268    1.9878 C   0  0  0  0  0  0  0  0  0  0  0  0
    3.9136   -0.8395    1.2091 C   0  0  0  0  0  0  0  0  0  0  0  0
    3.8264   -1.2146   -0.1473 C   0  0  0  0  0  0  0  0  0  0  0  0
    5.0004   -1.5130   -0.8605 C   0  0  0  0  0  0  0  0  0  0  0  0
    6.2307   -1.4556   -0.3121 N   0  0  0  0  0  0  0  0  0  0  0  0
    6.3158   -1.1040    0.9909 C   0  0  0  0  0  0  0  0  0  0  0  0
    5.1996   -0.7817    1.7869 C   0  0  0  0  0  0  0  0  0  0  0  0
    5.3650   -0.4228    3.0833 F   0  0  0  0  0  0  0  0  0  0  0  0
    2.2331   -1.5369    2.7537 N   0  0  0  0  0  0  0  0  0  0  0  0
    1.1201   -1.2256    3.4800 C   0  0  0  0  0  0  0  0  0  0  0  0
    1.5533   -3.7844    4.2199 H   0  0  0  0  0  0  0  0  0  0  0  0
   -0.1862   -4.0281    4.4781 H   0  0  0  0  0  0  0  0  0  0  0  0
    0.8413   -3.4637    5.8138 H   0  0  0  0  0  0  0  0  0  0  0  0
   -1.4256    0.5249    4.7043 H   0  0  0  0  0  0  0  0  0  0  0  0
    0.4920    1.9910    2.6181 H   0  0  0  0  0  0  0  0  0  0  0  0
    2.5412    1.5158    1.2850 H   0  0  0  0  0  0  0  0  0  0  0  0
    2.8684   -1.2769   -0.6352 H   0  0  0  0  0  0  0  0  0  0  0  0
    4.9514   -1.7995   -1.9027 H   0  0  0  0  0  0  0  0  0  0  0  0
    7.3096   -1.0613    1.4100 H   0  0  0  0  0  0  0  0  0  0  0  0
  1  2  1  0
  1 18  1  0
  1 19  1  0
  1 20  1  0
  2 17  1  0
  2  3  1  0
  3  4  2  0
  4  5  1  0
  4 21  1  0
  5 17  2  0
  5  6  1  0
  6  7  2  0
  6 22  1  0
  7  8  1  0
  7 23  1  0
  8  9  1  0
  8 16  2  0
  9 14  1  0
  9 10  2  0
 10 11  1  0
 10 24  1  0
 11 12  2  0
 11 25  1  0
 12 13  1  0
 13 14  2  0
 13 26  1  0
 14 15  1  0
 16 17  1  0
M  END
>  <i_m_ct_stereo_status>  (154) 
1

>  <s_m_source_file>  (154) 
/var/tmp/pbs.5076255.sched01/tmp0glzbzrw/400n8fk_jm.sdf

>  <i_m_source_file_index>  (154) 
22

>  <i_lp_mmshare_version>  (154) 
48012

>  <i_f3d_flags>  (154) 
0

>  <s_epik_input>  (154) 
W2NIXTFubihbQ0gzXSljKGMxMiluYyhbY0hdW2NIXTIpLWMzW2NIXVtjSF1uW2NIXWMzRg==

>  <s_epik_cmdline>  (154) 
J2VwaWtfcHl0aG9uJywgJy1waHQnLCAnMi4wJywgJy1waCcsICc3LjAnLCAnLXRuJywgJzgnLCAnLW1hJywgJzIwMCcsICctaW1hZScsICc8aW5maWxlLm1hZT4nLCAnLW9tYWUnLCAnPG91dGZpbGUubWFlPic=

>  <r_lp_tautomer_probability>  (154) 
1

>  <r_epik_Ionization_Penalty>  (154) 
0.000119646

>  <r_epik_Ionization_Penalty_Charging>  (154) 
0

>  <r_epik_Ionization_Penalty_Neutral>  (154) 
0.000119646

>  <r_epik_State_Penalty>  (154) 
-0

>  <r_epik_Charging_Adjusted_Penalty>  (154) 
0

>  <i_epik_Tot_Q>  (154) 
0

>  <i_epik_Tot_abs_Q>  (154) 
0

>  <s_lp_Force_Field>  (154) 
OPLS3e

>  <r_lp_Energy>  (154) 
31.7766

>  <b_lp_Chiralities_Consistent>  (154) 
1

>  <s_lp_Variant>  (154) 
47:0-1

>  <s_i_glide_gridfile>  (154) 
pfpi4k_grid

>  <i_i_glide_lignum>  (154) 
22

>  <i_i_glide_rotatable_bonds>  (154) 
1

>  <r_i_docking_score>  (154) 
-3.5823

>  <r_i_glide_ligand_efficiency>  (154) 
-0.210724

>  <r_i_glide_ligand_efficiency_sa>  (154) 
-0.54183

>  <r_i_glide_ligand_efficiency_ln>  (154) 
-0.934542

>  <r_i_glide_gscore>  (154) 
-3.5823

>  <r_i_glide_lipo>  (154) 
-0.238375

>  <r_i_glide_hbond>  (154) 
-0.0577327

>  <r_i_glide_metal>  (154) 
-0

>  <r_i_glide_rewards>  (154) 
-2.08373

>  <r_i_glide_evdw>  (154) 
-19.7404

>  <r_i_glide_ecoul>  (154) 
-3.56221

>  <r_i_glide_erotb>  (154) 
0.327063

>  <r_i_glide_esite>  (154) 
-0.00817795

>  <r_i_glide_emodel>  (154) 
-28.7018

>  <r_i_glide_energy>  (154) 
-23.3026

>  <r_i_glide_einternal>  (154) 
1.0413

>  <r_i_glide_intrahb_reward>  (154) 
-0

>  <i_i_glide_confnum>  (154) 
5

>  <i_i_glide_posenum>  (154) 
17

>  <r_i_glide_eff_state_penalty>  (154) 
0

>  <ligand_id>  (154) 
47

>  <original_smiles>  (154) 
Cn1ncc2ccc(-c3ccncc3F)nc21

>  <smiles>  (154) 
[H]c1nc([H])c(F)c(-c2nc3c(c([H])nn3C([H])([H])[H])c([H])c2[H])c1[H]

$$$$
47:0:2
     RDKit          3D

 26 28  0  0  1  0  0  0  0  0999 V2000
   -2.5844    2.6777    6.5226 C   0  0  0  0  0  0  0  0  0  0  0  0
   -2.0109    2.6894    5.1868 N   0  0  0  0  0  0  0  0  0  0  0  0
   -2.1865    3.7891    4.4109 N   0  0  0  0  0  0  0  0  0  0  0  0
   -1.5847    3.5335    3.2731 C   0  0  0  0  0  0  0  0  0  0  0  0
   -0.9755    2.2419    3.2789 C   0  0  0  0  0  0  0  0  0  0  0  0
   -0.2163    1.4236    2.4207 C   0  0  0  0  0  0  0  0  0  0  0  0
    0.2054    0.1601    2.8852 C   0  0  0  0  0  0  0  0  0  0  0  0
   -0.1576   -0.2645    4.1886 C   0  0  0  0  0  0  0  0  0  0  0  0
    0.2470   -1.5835    4.7180 C   0  0  0  0  0  0  0  0  0  0  0  0
    1.4999   -2.1370    4.3705 C   0  0  0  0  0  0  0  0  0  0  0  0
    1.8726   -3.3917    4.8850 C   0  0  0  0  0  0  0  0  0  0  0  0
    1.0862   -4.1154    5.7066 N   0  0  0  0  0  0  0  0  0  0  0  0
   -0.1113   -3.5967    6.0425 C   0  0  0  0  0  0  0  0  0  0  0  0
   -0.5795   -2.3586    5.5717 C   0  0  0  0  0  0  0  0  0  0  0  0
   -1.8208   -1.9519    5.9373 F   0  0  0  0  0  0  0  0  0  0  0  0
   -0.8834    0.4963    5.0425 N   0  0  0  0  0  0  0  0  0  0  0  0
   -1.2648    1.7075    4.5551 C   0  0  0  0  0  0  0  0  0  0  0  0
   -2.3546    1.7353    7.0236 H   0  0  0  0  0  0  0  0  0  0  0  0
   -3.6697    2.7935    6.4670 H   0  0  0  0  0  0  0  0  0  0  0  0
   -2.1679    3.5003    7.1082 H   0  0  0  0  0  0  0  0  0  0  0  0
   -1.5834    4.2714    2.4842 H   0  0  0  0  0  0  0  0  0  0  0  0
    0.0421    1.7619    1.4266 H   0  0  0  0  0  0  0  0  0  0  0  0
    0.7806   -0.4768    2.2255 H   0  0  0  0  0  0  0  0  0  0  0  0
    2.1837   -1.6057    3.7261 H   0  0  0  0  0  0  0  0  0  0  0  0
    2.8328   -3.8232    4.6389 H   0  0  0  0  0  0  0  0  0  0  0  0
   -0.7357   -4.1949    6.6928 H   0  0  0  0  0  0  0  0  0  0  0  0
  1  2  1  0
  1 18  1  0
  1 19  1  0
  1 20  1  0
  2 17  1  0
  2  3  1  0
  3  4  2  0
  4  5  1  0
  4 21  1  0
  5 17  2  0
  5  6  1  0
  6  7  2  0
  6 22  1  0
  7  8  1  0
  7 23  1  0
  8  9  1  0
  8 16  2  0
  9 14  1  0
  9 10  2  0
 10 11  1  0
 10 24  1  0
 11 12  2  0
 11 25  1  0
 12 13  1  0
 13 14  2  0
 13 26  1  0
 14 15  1  0
 16 17  1  0
M  END
>  <i_m_ct_stereo_status>  (155) 
1

>  <s_m_source_file>  (155) 
/var/tmp/pbs.5076255.sched01/tmp0glzbzrw/400n8fk_jm.sdf

>  <i_m_source_file_index>  (155) 
22

>  <i_lp_mmshare_version>  (155) 
48012

>  <i_f3d_flags>  (155) 
0

>  <s_epik_input>  (155) 
W2NIXTFubihbQ0gzXSljKGMxMiluYyhbY0hdW2NIXTIpLWMzW2NIXVtjSF1uW2NIXWMzRg==

>  <s_epik_cmdline>  (155) 
J2VwaWtfcHl0aG9uJywgJy1waHQnLCAnMi4wJywgJy1waCcsICc3LjAnLCAnLXRuJywgJzgnLCAnLW1hJywgJzIwMCcsICctaW1hZScsICc8aW5maWxlLm1hZT4nLCAnLW9tYWUnLCAnPG91dGZpbGUubWFlPic=

>  <r_lp_tautomer_probability>  (155) 
1

>  <r_epik_Ionization_Penalty>  (155) 
0.000119646

>  <r_epik_Ionization_Penalty_Charging>  (155) 
0

>  <r_epik_Ionization_Penalty_Neutral>  (155) 
0.000119646

>  <r_epik_State_Penalty>  (155) 
-0

>  <r_epik_Charging_Adjusted_Penalty>  (155) 
0

>  <i_epik_Tot_Q>  (155) 
0

>  <i_epik_Tot_abs_Q>  (155) 
0

>  <s_lp_Force_Field>  (155) 
OPLS3e

>  <r_lp_Energy>  (155) 
31.7766

>  <b_lp_Chiralities_Consistent>  (155) 
1

>  <s_lp_Variant>  (155) 
47:0-1

>  <s_i_glide_gridfile>  (155) 
pfpi4k_grid

>  <i_i_glide_lignum>  (155) 
22

>  <i_i_glide_rotatable_bonds>  (155) 
1

>  <r_i_docking_score>  (155) 
-3.33129

>  <r_i_glide_ligand_efficiency>  (155) 
-0.195958

>  <r_i_glide_ligand_efficiency_sa>  (155) 
-0.503864

>  <r_i_glide_ligand_efficiency_ln>  (155) 
-0.869061

>  <r_i_glide_gscore>  (155) 
-3.33129

>  <r_i_glide_lipo>  (155) 
-0.171149

>  <r_i_glide_hbond>  (155) 
0

>  <r_i_glide_metal>  (155) 
-0

>  <r_i_glide_rewards>  (155) 
-1.87805

>  <r_i_glide_evdw>  (155) 
-18.3708

>  <r_i_glide_ecoul>  (155) 
-4.06069

>  <r_i_glide_erotb>  (155) 
0.327063

>  <r_i_glide_esite>  (155) 
-0.081517

>  <r_i_glide_emodel>  (155) 
-27.8415

>  <r_i_glide_energy>  (155) 
-22.4315

>  <r_i_glide_einternal>  (155) 
0.147364

>  <r_i_glide_intrahb_reward>  (155) 
-0

>  <i_i_glide_confnum>  (155) 
3

>  <i_i_glide_posenum>  (155) 
1

>  <r_i_glide_eff_state_penalty>  (155) 
0

>  <ligand_id>  (155) 
47

>  <original_smiles>  (155) 
Cn1ncc2ccc(-c3ccncc3F)nc21

>  <smiles>  (155) 
[H]c1nc([H])c(F)c(-c2nc3c(c([H])nn3C([H])([H])[H])c([H])c2[H])c1[H]

$$$$
48:0:0
     RDKit          3D

 78 83  0  0  1  0  0  0  0  0999 V2000
    5.5878   -6.2299    6.1232 C   0  0  0  0  0  0  0  0  0  0  0  0
    4.7697   -5.6782    5.2078 C   0  0  0  0  0  0  0  0  0  0  0  0
    5.2648   -4.6363    4.2224 C   0  0  0  0  0  0  0  0  0  0  0  0
    4.2480   -3.5093    3.9799 C   0  0  0  0  0  0  0  0  0  0  0  0
    4.2888   -2.7588    2.8430 C   0  0  0  0  0  0  0  0  0  0  0  0
    5.3240   -3.0564    1.7384 C   0  0  1  0  0  0  0  0  0  0  0  0
    4.7636   -3.8395    0.6473 O   0  0  0  0  0  0  0  0  0  0  0  0
    5.3405   -3.0133   -0.2725 C   0  0  0  0  0  0  0  0  0  0  0  0
    5.4875   -3.1500   -1.4880 O   0  0  0  0  0  0  0  0  0  0  0  0
    5.6984   -1.9346    0.7719 C   0  0  2  0  0  0  0  0  0  0  0  0
    7.0626   -1.5862    0.6360 O   0  0  0  0  0  0  0  0  0  0  0  0
    4.8410   -0.6831    0.6657 C   0  0  0  0  0  0  0  0  0  0  0  0
    4.1913   -0.3564    2.0098 C   0  0  0  0  0  0  0  0  0  0  0  0
    3.3910   -1.5326    2.6214 C   0  0  1  0  0  0  0  0  0  0  0  0
    2.2190   -1.9125    1.6848 C   0  0  0  0  0  0  0  0  0  0  0  0
    2.8364   -1.0189    3.9703 C   0  0  0  0  0  0  0  0  0  0  0  0
    2.2313   -2.1435    4.8092 C   0  0  0  0  0  0  0  0  0  0  0  0
    3.2379   -3.2909    5.1394 C   0  0  2  0  0  0  0  0  0  0  0  0
    4.1197   -2.7253    6.3028 C   0  0  0  0  0  0  0  0  0  0  0  0
    2.4698   -4.6681    5.5453 C   0  0  1  0  0  0  0  0  0  0  0  0
    2.2280   -4.6591    7.0830 C   0  0  0  0  0  0  0  0  0  0  0  0
    1.0766   -4.8341    4.8654 C   0  0  0  0  0  0  0  0  0  0  0  0
    0.3967   -6.2210    5.0308 C   0  0  0  0  0  0  0  0  0  0  0  0
    1.2527   -7.4542    4.6158 C   0  0  1  0  0  0  0  0  0  0  0  0
    1.1180   -7.8597    3.0832 C   0  0  0  0  0  0  0  0  0  0  0  0
   -0.2725   -8.5209    2.8728 C   0  0  0  0  0  0  0  0  0  0  0  0
    1.2073   -6.6579    2.1027 C   0  0  0  0  0  0  0  0  0  0  0  0
    2.1746   -8.9355    2.6990 C   0  0  1  0  0  0  0  0  0  0  0  0
    2.2170   -9.1780    1.3055 O   0  0  0  0  0  0  0  0  0  0  0  0
    3.5842   -8.5586    3.1487 C   0  0  0  0  0  0  0  0  0  0  0  0
    3.6016   -8.4824    4.6725 C   0  0  0  0  0  0  0  0  0  0  0  0
    2.6857   -7.3756    5.2808 C   0  0  2  0  0  0  0  0  0  0  0  0
    2.5545   -7.7423    6.7934 C   0  0  0  0  0  0  0  0  0  0  0  0
    3.2757   -5.9263    5.0529 C   0  0  2  0  0  0  0  0  0  0  0  0
    5.2538   -6.9574    6.8434 H   0  0  0  0  0  0  0  0  0  0  0  0
    6.6325   -5.9532    6.1618 H   0  0  0  0  0  0  0  0  0  0  0  0
    6.1991   -4.2069    4.5847 H   0  0  0  0  0  0  0  0  0  0  0  0
    5.4762   -5.1646    3.2926 H   0  0  0  0  0  0  0  0  0  0  0  0
    6.2269   -3.5250    2.1295 H   0  0  0  0  0  0  0  0  0  0  0  0
    7.2510   -0.9384    1.2996 H   0  0  0  0  0  0  0  0  0  0  0  0
    5.4482    0.1608    0.3502 H   0  0  0  0  0  0  0  0  0  0  0  0
    4.0747   -0.7786   -0.1049 H   0  0  0  0  0  0  0  0  0  0  0  0
    4.9823   -0.0666    2.7025 H   0  0  0  0  0  0  0  0  0  0  0  0
    3.5586    0.5255    1.8977 H   0  0  0  0  0  0  0  0  0  0  0  0
    1.5358   -1.0740    1.5366 H   0  0  0  0  0  0  0  0  0  0  0  0
    1.6423   -2.7452    2.0844 H   0  0  0  0  0  0  0  0  0  0  0  0
    2.5596   -2.2319    0.7002 H   0  0  0  0  0  0  0  0  0  0  0  0
    3.6226   -0.5221    4.5426 H   0  0  0  0  0  0  0  0  0  0  0  0
    2.0824   -0.2501    3.7946 H   0  0  0  0  0  0  0  0  0  0  0  0
    1.8123   -1.7289    5.7256 H   0  0  0  0  0  0  0  0  0  0  0  0
    1.3688   -2.4701    4.2419 H   0  0  0  0  0  0  0  0  0  0  0  0
    3.5324   -2.3221    7.1277 H   0  0  0  0  0  0  0  0  0  0  0  0
    4.7508   -1.9042    5.9634 H   0  0  0  0  0  0  0  0  0  0  0  0
    4.7947   -3.4653    6.7278 H   0  0  0  0  0  0  0  0  0  0  0  0
    1.5150   -5.4023    7.4164 H   0  0  0  0  0  0  0  0  0  0  0  0
    1.8072   -3.7099    7.4159 H   0  0  0  0  0  0  0  0  0  0  0  0
    3.1479   -4.8363    7.6394 H   0  0  0  0  0  0  0  0  0  0  0  0
    0.3791   -4.0957    5.2601 H   0  0  0  0  0  0  0  0  0  0  0  0
    1.1821   -4.6109    3.8072 H   0  0  0  0  0  0  0  0  0  0  0  0
    0.0863   -6.3377    6.0673 H   0  0  0  0  0  0  0  0  0  0  0  0
   -0.5441   -6.2125    4.4872 H   0  0  0  0  0  0  0  0  0  0  0  0
    0.7833   -8.3003    5.1188 H   0  0  0  0  0  0  0  0  0  0  0  0
   -0.4138   -8.8511    1.8421 H   0  0  0  0  0  0  0  0  0  0  0  0
   -1.0979   -7.8501    3.1023 H   0  0  0  0  0  0  0  0  0  0  0  0
   -0.3922   -9.4060    3.5008 H   0  0  0  0  0  0  0  0  0  0  0  0
    1.0920   -6.9693    1.0632 H   0  0  0  0  0  0  0  0  0  0  0  0
    2.1622   -6.1375    2.1548 H   0  0  0  0  0  0  0  0  0  0  0  0
    0.4128   -5.9367    2.2744 H   0  0  0  0  0  0  0  0  0  0  0  0
    1.9164   -9.8849    3.1752 H   0  0  0  0  0  0  0  0  0  0  0  0
    1.3683   -9.5129    1.0250 H   0  0  0  0  0  0  0  0  0  0  0  0
    4.2878   -9.3267    2.8238 H   0  0  0  0  0  0  0  0  0  0  0  0
    3.9241   -7.6292    2.6941 H   0  0  0  0  0  0  0  0  0  0  0  0
    3.2743   -9.4631    5.0243 H   0  0  0  0  0  0  0  0  0  0  0  0
    4.6286   -8.3996    5.0206 H   0  0  0  0  0  0  0  0  0  0  0  0
    3.2703   -7.2245    7.4246 H   0  0  0  0  0  0  0  0  0  0  0  0
    2.6916   -8.8074    6.9824 H   0  0  0  0  0  0  0  0  0  0  0  0
    1.5695   -7.5271    7.1982 H   0  0  0  0  0  0  0  0  0  0  0  0
    3.2009   -5.8724    3.9721 H   0  0  0  0  0  0  0  0  0  0  0  0
  1  2  2  0
  1 35  1  0
  1 36  1  0
  2 34  1  0
  2  3  1  0
  3  4  1  0
  3 37  1  0
  3 38  1  0
  4 18  1  0
  4  5  2  0
  5 14  1  0
  5  6  1  0
  6 10  1  0
  6  7  1  0
  6 39  1  1
  7  8  1  0
  8  9  2  0
  8 10  1  0
 10 11  1  1
 10 12  1  0
 11 40  1  0
 12 13  1  0
 12 41  1  0
 12 42  1  0
 13 14  1  0
 13 43  1  0
 13 44  1  0
 14 15  1  6
 14 16  1  0
 15 45  1  0
 15 46  1  0
 15 47  1  0
 16 17  1  0
 16 48  1  0
 16 49  1  0
 17 18  1  0
 17 50  1  0
 17 51  1  0
 18 19  1  1
 18 20  1  0
 19 52  1  0
 19 53  1  0
 19 54  1  0
 20 34  1  0
 20 21  1  1
 20 22  1  0
 21 55  1  0
 21 56  1  0
 21 57  1  0
 22 23  1  0
 22 58  1  0
 22 59  1  0
 23 24  1  0
 23 60  1  0
 23 61  1  0
 24 32  1  0
 24 25  1  0
 24 62  1  1
 25 26  1  0
 25 27  1  0
 25 28  1  0
 26 63  1  0
 26 64  1  0
 26 65  1  0
 27 66  1  0
 27 67  1  0
 27 68  1  0
 28 29  1  0
 28 30  1  0
 28 69  1  1
 29 70  1  0
 30 31  1  0
 30 71  1  0
 30 72  1  0
 31 32  1  0
 31 73  1  0
 31 74  1  0
 32 33  1  1
 32 34  1  0
 33 75  1  0
 33 76  1  0
 33 77  1  0
 34 78  1  6
M  END
>  <i_m_ct_stereo_status>  (156) 
1

>  <s_m_source_file>  (156) 
/var/tmp/pbs.5076255.sched01/tmp0glzbzrw/400n8fk_jm.sdf

>  <i_m_source_file_index>  (156) 
23

>  <i_lp_mmshare_version>  (156) 
48012

>  <i_f3d_flags>  (156) 
0

>  <s_epik_input>  (156) 
W0NIMl0xW0NIMl1bQ0BIXShbT0hdKUMoW0NIM10pKFtDSDNdKVtDQEhdKFtDSDJdW0NIMl0yKVtDQF0xKFtDSDNdKVtDQEhdKEMoPVtDSDJdKVtDSDJdMylbQ0BAXTIoW0NIM10pW0NAQF0oW0NIM10pKEMzPUM0W0NAQEhdKE9DNT1PKVtDQEBdNTZbT0hdKVtDSDJdW0NIMl1bQ0BAXTQoW0NIM10pW0NIMl1bQ0gyXTY=

>  <s_epik_cmdline>  (156) 
J2VwaWtfcHl0aG9uJywgJy1waHQnLCAnMi4wJywgJy1waCcsICc3LjAnLCAnLXRuJywgJzgnLCAnLW1hJywgJzIwMCcsICctaW1hZScsICc8aW5maWxlLm1hZT4nLCAnLW9tYWUnLCAnPG91dGZpbGUubWFlPic=

>  <r_lp_tautomer_probability>  (156) 
1

>  <r_epik_Ionization_Penalty>  (156) 
2.90237e-06

>  <r_epik_Ionization_Penalty_Charging>  (156) 
0

>  <r_epik_Ionization_Penalty_Neutral>  (156) 
2.90237e-06

>  <r_epik_State_Penalty>  (156) 
-0

>  <r_epik_Charging_Adjusted_Penalty>  (156) 
0

>  <i_epik_Tot_Q>  (156) 
0

>  <i_epik_Tot_abs_Q>  (156) 
0

>  <s_epik_Chemistry_Notes>  (156) 
This compound has an ester and may undergo hydrolysis at high or low pH.

>  <s_lp_Force_Field>  (156) 
OPLS3e

>  <r_lp_Energy>  (156) 
108.179

>  <b_lp_Chiralities_Consistent>  (156) 
1

>  <s_lp_Variant>  (156) 
48:0-1

>  <s_i_glide_gridfile>  (156) 
pfpi4k_grid

>  <i_i_glide_lignum>  (156) 
23

>  <i_i_glide_rotatable_bonds>  (156) 
2

>  <r_i_docking_score>  (156) 
-3.05428

>  <r_i_glide_ligand_efficiency>  (156) 
-0.0898316

>  <r_i_glide_ligand_efficiency_sa>  (156) 
-0.29102

>  <r_i_glide_ligand_efficiency_ln>  (156) 
-0.674775

>  <r_i_glide_gscore>  (156) 
-3.05428

>  <r_i_glide_lipo>  (156) 
-0.364579

>  <r_i_glide_hbond>  (156) 
-0.32

>  <r_i_glide_metal>  (156) 
-0

>  <r_i_glide_rewards>  (156) 
-0.252283

>  <r_i_glide_evdw>  (156) 
-28.1663

>  <r_i_glide_ecoul>  (156) 
-4.72731

>  <r_i_glide_erotb>  (156) 
0

>  <r_i_glide_esite>  (156) 
0

>  <r_i_glide_emodel>  (156) 
-38.8256

>  <r_i_glide_energy>  (156) 
-32.8936

>  <r_i_glide_einternal>  (156) 
0.365262

>  <r_i_glide_intrahb_reward>  (156) 
-0

>  <i_i_glide_confnum>  (156) 
2

>  <i_i_glide_posenum>  (156) 
1

>  <r_i_glide_eff_state_penalty>  (156) 
0

>  <ligand_id>  (156) 
48

>  <original_smiles>  (156) 
C=C1CC2=C3C4OC(=O)C4(O)CCC3(C)CCC2(C)C2(C)CCC3C(C)(C)C(O)CCC3(C)C12

>  <smiles>  (156) 
[H]OC1([H])C([H])([H])C([H])([H])C2(C([H])([H])[H])C3([H])C(=C([H])[H])C([H])([H])C4=C5C6([H])OC(=O)C6(O[H])C([H])([H])C([H])([H])C5(C([H])([H])[H])C([H])([H])C([H])([H])C4(C([H])([H])[H])C3(C([H])([H])[H])C([H])([H])C([H])([H])C2([H])C1(C([H])([H])[H])C([H])([H])[H]

$$$$
48:0:1
     RDKit          3D

 78 83  0  0  1  0  0  0  0  0999 V2000
    5.6947   -9.1175    2.0877 C   0  0  0  0  0  0  0  0  0  0  0  0
    4.8765   -8.0708    2.2910 C   0  0  0  0  0  0  0  0  0  0  0  0
    4.8467   -6.8826    1.3453 C   0  0  0  0  0  0  0  0  0  0  0  0
    4.7044   -5.5392    2.0819 C   0  0  0  0  0  0  0  0  0  0  0  0
    4.2240   -4.4389    1.4420 C   0  0  0  0  0  0  0  0  0  0  0  0
    3.7450   -4.5327   -0.0110 C   0  0  1  0  0  0  0  0  0  0  0  0
    2.2965   -4.6405   -0.0917 O   0  0  0  0  0  0  0  0  0  0  0  0
    2.2720   -3.7286   -1.1030 C   0  0  0  0  0  0  0  0  0  0  0  0
    1.3799   -3.4643   -1.9007 O   0  0  0  0  0  0  0  0  0  0  0  0
    3.7226   -3.2678   -0.8586 C   0  0  2  0  0  0  0  0  0  0  0  0
    4.4280   -3.2929   -2.0795 O   0  0  0  0  0  0  0  0  0  0  0  0
    3.8124   -1.8926   -0.2098 C   0  0  0  0  0  0  0  0  0  0  0  0
    4.6499   -1.9593    1.0653 C   0  0  0  0  0  0  0  0  0  0  0  0
    4.1826   -3.0392    2.0731 C   0  0  1  0  0  0  0  0  0  0  0  0
    2.7444   -2.7216    2.5616 C   0  0  0  0  0  0  0  0  0  0  0  0
    5.1693   -2.9727    3.2509 C   0  0  0  0  0  0  0  0  0  0  0  0
    5.0017   -4.1476    4.2139 C   0  0  0  0  0  0  0  0  0  0  0  0
    5.1971   -5.5503    3.5526 C   0  0  2  0  0  0  0  0  0  0  0  0
    6.7407   -5.7426    3.4149 C   0  0  0  0  0  0  0  0  0  0  0  0
    4.5090   -6.7361    4.4196 C   0  0  1  0  0  0  0  0  0  0  0  0
    5.5561   -7.2581    5.4436 C   0  0  0  0  0  0  0  0  0  0  0  0
    3.2672   -6.2713    5.2336 C   0  0  0  0  0  0  0  0  0  0  0  0
    2.4338   -7.3949    5.9004 C   0  0  0  0  0  0  0  0  0  0  0  0
    1.9575   -8.5397    4.9622 C   0  0  1  0  0  0  0  0  0  0  0  0
    0.5610   -8.2712    4.2498 C   0  0  0  0  0  0  0  0  0  0  0  0
   -0.5602   -8.4345    5.2918 C   0  0  0  0  0  0  0  0  0  0  0  0
    0.4142   -6.8447    3.6564 C   0  0  0  0  0  0  0  0  0  0  0  0
    0.2714   -9.3364    3.1639 C   0  0  1  0  0  0  0  0  0  0  0  0
   -0.8616   -9.0063    2.3791 O   0  0  0  0  0  0  0  0  0  0  0  0
    1.4587   -9.5098    2.2349 C   0  0  0  0  0  0  0  0  0  0  0  0
    2.6377  -10.0555    3.0193 C   0  0  0  0  0  0  0  0  0  0  0  0
    3.1696   -9.0838    4.1093 C   0  0  2  0  0  0  0  0  0  0  0  0
    4.0747   -9.9644    5.0251 C   0  0  0  0  0  0  0  0  0  0  0  0
    3.9417   -7.8592    3.4770 C   0  0  2  0  0  0  0  0  0  0  0  0
    5.7376   -9.9589    2.7593 H   0  0  0  0  0  0  0  0  0  0  0  0
    6.3434   -9.1470    1.2236 H   0  0  0  0  0  0  0  0  0  0  0  0
    5.7567   -6.8654    0.7425 H   0  0  0  0  0  0  0  0  0  0  0  0
    4.0017   -7.0437    0.6721 H   0  0  0  0  0  0  0  0  0  0  0  0
    4.2311   -5.3294   -0.5712 H   0  0  0  0  0  0  0  0  0  0  0  0
    4.1815   -4.0975   -2.5122 H   0  0  0  0  0  0  0  0  0  0  0  0
    4.2387   -1.1593   -0.8985 H   0  0  0  0  0  0  0  0  0  0  0  0
    2.8237   -1.4965    0.0326 H   0  0  0  0  0  0  0  0  0  0  0  0
    5.6752   -2.1720    0.7634 H   0  0  0  0  0  0  0  0  0  0  0  0
    4.6703   -0.9760    1.5335 H   0  0  0  0  0  0  0  0  0  0  0  0
    2.7031   -1.7483    3.0580 H   0  0  0  0  0  0  0  0  0  0  0  0
    2.3890   -3.4737    3.2688 H   0  0  0  0  0  0  0  0  0  0  0  0
    2.0174   -2.7052    1.7454 H   0  0  0  0  0  0  0  0  0  0  0  0
    6.1899   -2.9531    2.8655 H   0  0  0  0  0  0  0  0  0  0  0  0
    5.0331   -2.0365    3.7921 H   0  0  0  0  0  0  0  0  0  0  0  0
    5.6883   -4.0309    5.0484 H   0  0  0  0  0  0  0  0  0  0  0  0
    4.0214   -4.0067    4.6526 H   0  0  0  0  0  0  0  0  0  0  0  0
    7.2725   -5.5370    4.3440 H   0  0  0  0  0  0  0  0  0  0  0  0
    7.1597   -5.0592    2.6752 H   0  0  0  0  0  0  0  0  0  0  0  0
    7.0376   -6.7370    3.0847 H   0  0  0  0  0  0  0  0  0  0  0  0
    5.1277   -7.8700    6.2263 H   0  0  0  0  0  0  0  0  0  0  0  0
    6.0445   -6.4388    5.9730 H   0  0  0  0  0  0  0  0  0  0  0  0
    6.3265   -7.8597    4.9616 H   0  0  0  0  0  0  0  0  0  0  0  0
    3.5755   -5.6002    6.0350 H   0  0  0  0  0  0  0  0  0  0  0  0
    2.6207   -5.6863    4.5836 H   0  0  0  0  0  0  0  0  0  0  0  0
    3.0091   -7.8253    6.7172 H   0  0  0  0  0  0  0  0  0  0  0  0
    1.5832   -6.9427    6.4021 H   0  0  0  0  0  0  0  0  0  0  0  0
    1.7200   -9.3690    5.6286 H   0  0  0  0  0  0  0  0  0  0  0  0
   -1.5536   -8.3001    4.8563 H   0  0  0  0  0  0  0  0  0  0  0  0
   -0.4495   -7.7101    6.0956 H   0  0  0  0  0  0  0  0  0  0  0  0
   -0.5494   -9.4303    5.7432 H   0  0  0  0  0  0  0  0  0  0  0  0
   -0.5703   -6.6944    3.2115 H   0  0  0  0  0  0  0  0  0  0  0  0
    1.1424   -6.6340    2.8763 H   0  0  0  0  0  0  0  0  0  0  0  0
    0.4921   -6.0792    4.4263 H   0  0  0  0  0  0  0  0  0  0  0  0
    0.0586  -10.2995    3.6331 H   0  0  0  0  0  0  0  0  0  0  0  0
   -0.8280   -9.5136    1.5792 H   0  0  0  0  0  0  0  0  0  0  0  0
    1.2087  -10.2469    1.4800 H   0  0  0  0  0  0  0  0  0  0  0  0
    1.6985   -8.6002    1.6906 H   0  0  0  0  0  0  0  0  0  0  0  0
    2.2903  -10.9808    3.4830 H   0  0  0  0  0  0  0  0  0  0  0  0
    3.4140  -10.3737    2.3255 H   0  0  0  0  0  0  0  0  0  0  0  0
    5.1274   -9.9302    4.7529 H   0  0  0  0  0  0  0  0  0  0  0  0
    3.7863  -11.0173    5.0144 H   0  0  0  0  0  0  0  0  0  0  0  0
    4.0120   -9.6857    6.0746 H   0  0  0  0  0  0  0  0  0  0  0  0
    3.1186   -7.3699    2.9673 H   0  0  0  0  0  0  0  0  0  0  0  0
  1  2  2  0
  1 35  1  0
  1 36  1  0
  2 34  1  0
  2  3  1  0
  3  4  1  0
  3 37  1  0
  3 38  1  0
  4 18  1  0
  4  5  2  0
  5 14  1  0
  5  6  1  0
  6 10  1  0
  6  7  1  0
  6 39  1  6
  7  8  1  0
  8  9  2  0
  8 10  1  0
 10 11  1  6
 10 12  1  0
 11 40  1  0
 12 13  1  0
 12 41  1  0
 12 42  1  0
 13 14  1  0
 13 43  1  0
 13 44  1  0
 14 15  1  1
 14 16  1  0
 15 45  1  0
 15 46  1  0
 15 47  1  0
 16 17  1  0
 16 48  1  0
 16 49  1  0
 17 18  1  0
 17 50  1  0
 17 51  1  0
 18 19  1  6
 18 20  1  0
 19 52  1  0
 19 53  1  0
 19 54  1  0
 20 34  1  0
 20 21  1  1
 20 22  1  0
 21 55  1  0
 21 56  1  0
 21 57  1  0
 22 23  1  0
 22 58  1  0
 22 59  1  0
 23 24  1  0
 23 60  1  0
 23 61  1  0
 24 32  1  0
 24 25  1  0
 24 62  1  1
 25 26  1  0
 25 27  1  0
 25 28  1  0
 26 63  1  0
 26 64  1  0
 26 65  1  0
 27 66  1  0
 27 67  1  0
 27 68  1  0
 28 29  1  0
 28 30  1  0
 28 69  1  1
 29 70  1  0
 30 31  1  0
 30 71  1  0
 30 72  1  0
 31 32  1  0
 31 73  1  0
 31 74  1  0
 32 33  1  1
 32 34  1  0
 33 75  1  0
 33 76  1  0
 33 77  1  0
 34 78  1  6
M  END
>  <i_m_ct_stereo_status>  (157) 
1

>  <s_m_source_file>  (157) 
/var/tmp/pbs.5076255.sched01/tmp0glzbzrw/400n8fk_jm.sdf

>  <i_m_source_file_index>  (157) 
23

>  <i_lp_mmshare_version>  (157) 
48012

>  <i_f3d_flags>  (157) 
0

>  <s_epik_input>  (157) 
W0NIMl0xW0NIMl1bQ0BIXShbT0hdKUMoW0NIM10pKFtDSDNdKVtDQEhdKFtDSDJdW0NIMl0yKVtDQF0xKFtDSDNdKVtDQEhdKEMoPVtDSDJdKVtDSDJdMylbQ0BAXTIoW0NIM10pW0NAQF0oW0NIM10pKEMzPUM0W0NAQEhdKE9DNT1PKVtDQEBdNTZbT0hdKVtDSDJdW0NIMl1bQ0BAXTQoW0NIM10pW0NIMl1bQ0gyXTY=

>  <s_epik_cmdline>  (157) 
J2VwaWtfcHl0aG9uJywgJy1waHQnLCAnMi4wJywgJy1waCcsICc3LjAnLCAnLXRuJywgJzgnLCAnLW1hJywgJzIwMCcsICctaW1hZScsICc8aW5maWxlLm1hZT4nLCAnLW9tYWUnLCAnPG91dGZpbGUubWFlPic=

>  <r_lp_tautomer_probability>  (157) 
1

>  <r_epik_Ionization_Penalty>  (157) 
2.90237e-06

>  <r_epik_Ionization_Penalty_Charging>  (157) 
0

>  <r_epik_Ionization_Penalty_Neutral>  (157) 
2.90237e-06

>  <r_epik_State_Penalty>  (157) 
-0

>  <r_epik_Charging_Adjusted_Penalty>  (157) 
0

>  <i_epik_Tot_Q>  (157) 
0

>  <i_epik_Tot_abs_Q>  (157) 
0

>  <s_epik_Chemistry_Notes>  (157) 
This compound has an ester and may undergo hydrolysis at high or low pH.

>  <s_lp_Force_Field>  (157) 
OPLS3e

>  <r_lp_Energy>  (157) 
108.179

>  <b_lp_Chiralities_Consistent>  (157) 
1

>  <s_lp_Variant>  (157) 
48:0-1

>  <s_i_glide_gridfile>  (157) 
pfpi4k_grid

>  <i_i_glide_lignum>  (157) 
23

>  <i_i_glide_rotatable_bonds>  (157) 
2

>  <r_i_docking_score>  (157) 
-2.93276

>  <r_i_glide_ligand_efficiency>  (157) 
-0.0862577

>  <r_i_glide_ligand_efficiency_sa>  (157) 
-0.279441

>  <r_i_glide_ligand_efficiency_ln>  (157) 
-0.647929

>  <r_i_glide_gscore>  (157) 
-2.93276

>  <r_i_glide_lipo>  (157) 
-0.326429

>  <r_i_glide_hbond>  (157) 
-0.295226

>  <r_i_glide_metal>  (157) 
-0

>  <r_i_glide_rewards>  (157) 
-0.213628

>  <r_i_glide_evdw>  (157) 
-27.0538

>  <r_i_glide_ecoul>  (157) 
-4.79365

>  <r_i_glide_erotb>  (157) 
0

>  <r_i_glide_esite>  (157) 
-0.0257442

>  <r_i_glide_emodel>  (157) 
-35.8553

>  <r_i_glide_energy>  (157) 
-31.8474

>  <r_i_glide_einternal>  (157) 
3.39936

>  <r_i_glide_intrahb_reward>  (157) 
-0

>  <i_i_glide_confnum>  (157) 
2

>  <i_i_glide_posenum>  (157) 
40

>  <r_i_glide_eff_state_penalty>  (157) 
0

>  <ligand_id>  (157) 
48

>  <original_smiles>  (157) 
C=C1CC2=C3C4OC(=O)C4(O)CCC3(C)CCC2(C)C2(C)CCC3C(C)(C)C(O)CCC3(C)C12

>  <smiles>  (157) 
[H]OC1([H])C([H])([H])C([H])([H])C2(C([H])([H])[H])C3([H])C(=C([H])[H])C([H])([H])C4=C5C6([H])OC(=O)C6(O[H])C([H])([H])C([H])([H])C5(C([H])([H])[H])C([H])([H])C([H])([H])C4(C([H])([H])[H])C3(C([H])([H])[H])C([H])([H])C([H])([H])C2([H])C1(C([H])([H])[H])C([H])([H])[H]

$$$$
48:0:2
     RDKit          3D

 78 83  0  0  1  0  0  0  0  0999 V2000
    5.6424   -6.1650    6.2630 C   0  0  0  0  0  0  0  0  0  0  0  0
    4.8310   -5.6580    5.3128 C   0  0  0  0  0  0  0  0  0  0  0  0
    5.3067   -4.5861    4.3514 C   0  0  0  0  0  0  0  0  0  0  0  0
    4.2358   -3.5206    4.0659 C   0  0  0  0  0  0  0  0  0  0  0  0
    4.2808   -2.7657    2.9321 C   0  0  0  0  0  0  0  0  0  0  0  0
    5.3722   -3.0027    1.8719 C   0  0  1  0  0  0  0  0  0  0  0  0
    4.9047   -3.8149    0.7550 O   0  0  0  0  0  0  0  0  0  0  0  0
    5.4730   -2.9512   -0.1365 C   0  0  0  0  0  0  0  0  0  0  0  0
    5.6807   -3.0748   -1.3450 O   0  0  0  0  0  0  0  0  0  0  0  0
    5.7268   -1.8608    0.9210 C   0  0  2  0  0  0  0  0  0  0  0  0
    7.0771   -1.4560    0.8468 O   0  0  0  0  0  0  0  0  0  0  0  0
    4.8080   -0.6541    0.7795 C   0  0  0  0  0  0  0  0  0  0  0  0
    4.0818   -0.3704    2.0948 C   0  0  0  0  0  0  0  0  0  0  0  0
    3.3242   -1.5923    2.6716 C   0  0  1  0  0  0  0  0  0  0  0  0
    2.2198   -2.0381    1.6859 C   0  0  0  0  0  0  0  0  0  0  0  0
    2.6852   -1.1166    3.9958 C   0  0  0  0  0  0  0  0  0  0  0  0
    2.1109   -2.2766    4.8076 C   0  0  0  0  0  0  0  0  0  0  0  0
    3.1673   -3.3646    5.1821 C   0  0  2  0  0  0  0  0  0  0  0  0
    3.9653   -2.7519    6.3803 C   0  0  0  0  0  0  0  0  0  0  0  0
    2.4646   -4.7852    5.5535 C   0  0  1  0  0  0  0  0  0  0  0  0
    2.1571   -4.7938    7.0797 C   0  0  0  0  0  0  0  0  0  0  0  0
    1.1138   -5.0298    4.8153 C   0  0  0  0  0  0  0  0  0  0  0  0
    0.5105   -6.4532    4.9502 C   0  0  0  0  0  0  0  0  0  0  0  0
    1.4545   -7.6332    4.5712 C   0  0  1  0  0  0  0  0  0  0  0  0
    1.4110   -8.0433    3.0334 C   0  0  0  0  0  0  0  0  0  0  0  0
    0.0701   -8.7789    2.7705 C   0  0  0  0  0  0  0  0  0  0  0  0
    1.4694   -6.8363    2.0580 C   0  0  0  0  0  0  0  0  0  0  0  0
    2.5450   -9.0609    2.6955 C   0  0  1  0  0  0  0  0  0  0  0  0
    2.6617   -9.3337    1.3092 O   0  0  0  0  0  0  0  0  0  0  0  0
    3.9085   -8.6003    3.2047 C   0  0  0  0  0  0  0  0  0  0  0  0
    3.8536   -8.5250    4.7277 C   0  0  0  0  0  0  0  0  0  0  0  0
    2.8498   -7.4746    5.2969 C   0  0  2  0  0  0  0  0  0  0  0  0
    2.6755   -7.8521    6.8020 C   0  0  0  0  0  0  0  0  0  0  0  0
    3.3637   -5.9927    5.0946 C   0  0  2  0  0  0  0  0  0  0  0  0
    5.3196   -6.9127    6.9667 H   0  0  0  0  0  0  0  0  0  0  0  0
    6.6657   -5.8281    6.3443 H   0  0  0  0  0  0  0  0  0  0  0  0
    6.1961   -4.1017    4.7548 H   0  0  0  0  0  0  0  0  0  0  0  0
    5.5894   -5.0983    3.4310 H   0  0  0  0  0  0  0  0  0  0  0  0
    6.2831   -3.4195    2.2997 H   0  0  0  0  0  0  0  0  0  0  0  0
    7.2087   -0.7924    1.5107 H   0  0  0  0  0  0  0  0  0  0  0  0
    5.3707    0.2308    0.4843 H   0  0  0  0  0  0  0  0  0  0  0  0
    4.0809   -0.7931   -0.0212 H   0  0  0  0  0  0  0  0  0  0  0  0
    4.8241   -0.0366    2.8214 H   0  0  0  0  0  0  0  0  0  0  0  0
    3.4030    0.4728    1.9557 H   0  0  0  0  0  0  0  0  0  0  0  0
    1.4951   -1.2400    1.5093 H   0  0  0  0  0  0  0  0  0  0  0  0
    1.6795   -2.9049    2.0644 H   0  0  0  0  0  0  0  0  0  0  0  0
    2.6178   -2.3329    0.7156 H   0  0  0  0  0  0  0  0  0  0  0  0
    3.4165   -0.5774    4.6009 H   0  0  0  0  0  0  0  0  0  0  0  0
    1.8958   -0.3925    3.7880 H   0  0  0  0  0  0  0  0  0  0  0  0
    1.6309   -1.8896    5.7062 H   0  0  0  0  0  0  0  0  0  0  0  0
    1.2935   -2.6512    4.2048 H   0  0  0  0  0  0  0  0  0  0  0  0
    3.3208   -2.3863    7.1798 H   0  0  0  0  0  0  0  0  0  0  0  0
    4.5613   -1.8947    6.0679 H   0  0  0  0  0  0  0  0  0  0  0  0
    4.6634   -3.4533    6.8333 H   0  0  0  0  0  0  0  0  0  0  0  0
    1.4753   -5.5786    7.3817 H   0  0  0  0  0  0  0  0  0  0  0  0
    1.6682   -3.8713    7.3941 H   0  0  0  0  0  0  0  0  0  0  0  0
    3.0619   -4.9184    7.6738 H   0  0  0  0  0  0  0  0  0  0  0  0
    0.3582   -4.3347    5.1805 H   0  0  0  0  0  0  0  0  0  0  0  0
    1.2503   -4.7980    3.7624 H   0  0  0  0  0  0  0  0  0  0  0  0
    0.1638   -6.5925    5.9718 H   0  0  0  0  0  0  0  0  0  0  0  0
   -0.4049   -6.4993    4.3674 H   0  0  0  0  0  0  0  0  0  0  0  0
    1.0137   -8.5071    5.0531 H   0  0  0  0  0  0  0  0  0  0  0  0
   -0.0007   -9.1067    1.7334 H   0  0  0  0  0  0  0  0  0  0  0  0
   -0.8022   -8.1570    2.9630 H   0  0  0  0  0  0  0  0  0  0  0  0
   -0.0254   -9.6737    3.3892 H   0  0  0  0  0  0  0  0  0  0  0  0
    1.4153   -7.1570    1.0168 H   0  0  0  0  0  0  0  0  0  0  0  0
    2.3867   -6.2581    2.1500 H   0  0  0  0  0  0  0  0  0  0  0  0
    0.6239   -6.1658    2.1951 H   0  0  0  0  0  0  0  0  0  0  0  0
    2.3135  -10.0179    3.1670 H   0  0  0  0  0  0  0  0  0  0  0  0
    3.1872  -10.1156    1.1905 H   0  0  0  0  0  0  0  0  0  0  0  0
    4.6727   -9.3220    2.9141 H   0  0  0  0  0  0  0  0  0  0  0  0
    4.2086   -7.6498    2.7650 H   0  0  0  0  0  0  0  0  0  0  0  0
    3.5674   -9.5232    5.0655 H   0  0  0  0  0  0  0  0  0  0  0  0
    4.8576   -8.3829    5.1197 H   0  0  0  0  0  0  0  0  0  0  0  0
    3.3323   -7.2961    7.4639 H   0  0  0  0  0  0  0  0  0  0  0  0
    2.8653   -8.9081    6.9969 H   0  0  0  0  0  0  0  0  0  0  0  0
    1.6633   -7.6955    7.1649 H   0  0  0  0  0  0  0  0  0  0  0  0
    3.3301   -5.9399    4.0115 H   0  0  0  0  0  0  0  0  0  0  0  0
  1  2  2  0
  1 35  1  0
  1 36  1  0
  2 34  1  0
  2  3  1  0
  3  4  1  0
  3 37  1  0
  3 38  1  0
  4 18  1  0
  4  5  2  0
  5 14  1  0
  5  6  1  0
  6 10  1  0
  6  7  1  0
  6 39  1  1
  7  8  1  0
  8  9  2  0
  8 10  1  0
 10 11  1  1
 10 12  1  0
 11 40  1  0
 12 13  1  0
 12 41  1  0
 12 42  1  0
 13 14  1  0
 13 43  1  0
 13 44  1  0
 14 15  1  6
 14 16  1  0
 15 45  1  0
 15 46  1  0
 15 47  1  0
 16 17  1  0
 16 48  1  0
 16 49  1  0
 17 18  1  0
 17 50  1  0
 17 51  1  0
 18 19  1  1
 18 20  1  0
 19 52  1  0
 19 53  1  0
 19 54  1  0
 20 34  1  0
 20 21  1  1
 20 22  1  0
 21 55  1  0
 21 56  1  0
 21 57  1  0
 22 23  1  0
 22 58  1  0
 22 59  1  0
 23 24  1  0
 23 60  1  0
 23 61  1  0
 24 32  1  0
 24 25  1  0
 24 62  1  1
 25 26  1  0
 25 27  1  0
 25 28  1  0
 26 63  1  0
 26 64  1  0
 26 65  1  0
 27 66  1  0
 27 67  1  0
 27 68  1  0
 28 29  1  0
 28 30  1  0
 28 69  1  1
 29 70  1  0
 30 31  1  0
 30 71  1  0
 30 72  1  0
 31 32  1  0
 31 73  1  0
 31 74  1  0
 32 33  1  1
 32 34  1  0
 33 75  1  0
 33 76  1  0
 33 77  1  0
 34 78  1  6
M  END
>  <i_m_ct_stereo_status>  (158) 
1

>  <s_m_source_file>  (158) 
/var/tmp/pbs.5076255.sched01/tmp0glzbzrw/400n8fk_jm.sdf

>  <i_m_source_file_index>  (158) 
23

>  <i_lp_mmshare_version>  (158) 
48012

>  <i_f3d_flags>  (158) 
0

>  <s_epik_input>  (158) 
W0NIMl0xW0NIMl1bQ0BIXShbT0hdKUMoW0NIM10pKFtDSDNdKVtDQEhdKFtDSDJdW0NIMl0yKVtDQF0xKFtDSDNdKVtDQEhdKEMoPVtDSDJdKVtDSDJdMylbQ0BAXTIoW0NIM10pW0NAQF0oW0NIM10pKEMzPUM0W0NAQEhdKE9DNT1PKVtDQEBdNTZbT0hdKVtDSDJdW0NIMl1bQ0BAXTQoW0NIM10pW0NIMl1bQ0gyXTY=

>  <s_epik_cmdline>  (158) 
J2VwaWtfcHl0aG9uJywgJy1waHQnLCAnMi4wJywgJy1waCcsICc3LjAnLCAnLXRuJywgJzgnLCAnLW1hJywgJzIwMCcsICctaW1hZScsICc8aW5maWxlLm1hZT4nLCAnLW9tYWUnLCAnPG91dGZpbGUubWFlPic=

>  <r_lp_tautomer_probability>  (158) 
1

>  <r_epik_Ionization_Penalty>  (158) 
2.90237e-06

>  <r_epik_Ionization_Penalty_Charging>  (158) 
0

>  <r_epik_Ionization_Penalty_Neutral>  (158) 
2.90237e-06

>  <r_epik_State_Penalty>  (158) 
-0

>  <r_epik_Charging_Adjusted_Penalty>  (158) 
0

>  <i_epik_Tot_Q>  (158) 
0

>  <i_epik_Tot_abs_Q>  (158) 
0

>  <s_epik_Chemistry_Notes>  (158) 
This compound has an ester and may undergo hydrolysis at high or low pH.

>  <s_lp_Force_Field>  (158) 
OPLS3e

>  <r_lp_Energy>  (158) 
108.179

>  <b_lp_Chiralities_Consistent>  (158) 
1

>  <s_lp_Variant>  (158) 
48:0-1

>  <s_i_glide_gridfile>  (158) 
pfpi4k_grid

>  <i_i_glide_lignum>  (158) 
23

>  <i_i_glide_rotatable_bonds>  (158) 
2

>  <r_i_docking_score>  (158) 
-2.50935

>  <r_i_glide_ligand_efficiency>  (158) 
-0.0738045

>  <r_i_glide_ligand_efficiency_sa>  (158) 
-0.239098

>  <r_i_glide_ligand_efficiency_ln>  (158) 
-0.554387

>  <r_i_glide_gscore>  (158) 
-2.50935

>  <r_i_glide_lipo>  (158) 
-0.360911

>  <r_i_glide_hbond>  (158) 
-0.0348147

>  <r_i_glide_metal>  (158) 
-0

>  <r_i_glide_rewards>  (158) 
-0.253874

>  <r_i_glide_evdw>  (158) 
-27.6747

>  <r_i_glide_ecoul>  (158) 
-3.17345

>  <r_i_glide_erotb>  (158) 
0

>  <r_i_glide_esite>  (158) 
0

>  <r_i_glide_emodel>  (158) 
-35.5797

>  <r_i_glide_energy>  (158) 
-30.8482

>  <r_i_glide_einternal>  (158) 
0.446333

>  <r_i_glide_intrahb_reward>  (158) 
-0

>  <i_i_glide_confnum>  (158) 
2

>  <i_i_glide_posenum>  (158) 
38

>  <r_i_glide_eff_state_penalty>  (158) 
0

>  <ligand_id>  (158) 
48

>  <original_smiles>  (158) 
C=C1CC2=C3C4OC(=O)C4(O)CCC3(C)CCC2(C)C2(C)CCC3C(C)(C)C(O)CCC3(C)C12

>  <smiles>  (158) 
[H]OC1([H])C([H])([H])C([H])([H])C2(C([H])([H])[H])C3([H])C(=C([H])[H])C([H])([H])C4=C5C6([H])OC(=O)C6(O[H])C([H])([H])C([H])([H])C5(C([H])([H])[H])C([H])([H])C([H])([H])C4(C([H])([H])[H])C3(C([H])([H])[H])C([H])([H])C([H])([H])C2([H])C1(C([H])([H])[H])C([H])([H])[H]

$$$$
50:1:0
     RDKit          3D

 71 76  0  0  1  0  0  0  0  0999 V2000
    4.7192   -3.6201    6.3329 C   0  0  0  0  0  0  0  0  0  0  0  0
    4.1410   -3.0055    5.0581 C   0  0  0  0  0  0  0  0  0  0  0  0
    3.8972   -3.5107    3.8243 C   0  0  0  0  0  0  0  0  0  0  0  0
    3.1901   -2.5327    2.9434 C   0  0  0  0  0  0  0  0  0  0  0  0
    1.9610   -2.5571    2.8802 O   0  0  0  0  0  0  0  0  0  0  0  0
    4.0106   -1.4894    2.1811 C   0  0  2  0  0  0  0  0  0  0  0  0
    4.4153   -0.3688    3.1506 C   0  0  0  0  0  0  0  0  0  0  0  0
    3.3237   -0.9824    0.8842 C   0  0  0  0  0  0  0  0  0  0  0  0
    4.6868   -1.0104    0.1902 C   0  0  1  0  0  0  0  0  0  0  0  0
    5.1209   -2.0246    1.2404 C   0  0  2  0  0  0  0  0  0  0  0  0
    5.1359   -3.4921    0.8224 C   0  0  1  0  0  0  0  0  0  0  0  0
    5.8575   -3.6888   -0.5323 C   0  0  0  0  0  0  0  0  0  0  0  0
    5.5682   -2.6452   -1.6177 C   0  0  2  0  0  0  0  0  0  0  0  0
    4.8962   -1.3101   -1.2905 C   0  0  1  0  0  0  0  0  0  0  0  0
    4.2066   -2.3366   -2.1919 C   0  0  0  0  0  0  0  0  0  0  0  0
    4.1239   -2.0312   -3.6779 C   0  0  0  0  0  0  0  0  0  0  0  0
    2.9514   -3.0994   -1.8113 C   0  0  0  0  0  0  0  0  0  0  0  0
    5.8259   -4.1469    1.8882 O   0  0  0  0  0  0  0  0  0  0  0  0
    5.3407   -5.3511    2.5104 C   0  0  2  0  0  0  0  0  0  0  0  0
    6.6493   -5.7613    3.2951 C   0  0  0  0  0  0  0  0  0  0  0  0
    7.9468   -5.6258    2.4349 C   0  0  0  0  0  0  0  0  0  0  0  0
    6.6888   -7.1692    3.9236 C   0  0  0  0  0  0  0  0  0  0  0  0
    4.9566   -6.3603    1.4155 C   0  0  2  0  0  0  0  0  0  0  0  0
    3.4517   -6.3850    1.3067 C   0  0  2  0  0  0  0  0  0  0  0  0
    2.8511   -5.5339    2.4129 C   0  0  1  0  0  0  0  0  0  0  0  0
    1.8000   -6.2395    3.0607 O   0  0  0  0  0  0  0  0  0  0  0  0
    4.0217   -5.0052    3.3395 C   0  0  2  0  0  0  0  0  0  0  0  0
    3.9719   -5.8193    4.4935 O   0  0  0  0  0  0  0  0  0  0  0  0
    4.1971   -7.6826    1.4658 C   0  0  0  0  0  0  0  0  0  0  0  0
    4.3141   -8.5766    0.2539 C   0  0  0  0  0  0  0  0  0  0  0  0
    3.9926   -8.5856    2.6673 C   0  0  0  0  0  0  0  0  0  0  0  0
    4.0479   -3.3934    7.1653 H   0  0  0  0  0  0  0  0  0  0  0  0
    5.6723   -3.1456    6.5613 H   0  0  0  0  0  0  0  0  0  0  0  0
    4.8795   -4.6945    6.3351 H   0  0  0  0  0  0  0  0  0  0  0  0
    3.8765   -1.9702    5.2385 H   0  0  0  0  0  0  0  0  0  0  0  0
    4.8189    0.4937    2.6256 H   0  0  0  0  0  0  0  0  0  0  0  0
    5.1828   -0.6823    3.8556 H   0  0  0  0  0  0  0  0  0  0  0  0
    3.5623   -0.0024    3.7171 H   0  0  0  0  0  0  0  0  0  0  0  0
    2.6052   -1.6893    0.4635 H   0  0  0  0  0  0  0  0  0  0  0  0
    2.8915    0.0203    0.9540 H   0  0  0  0  0  0  0  0  0  0  0  0
    5.1908   -0.0703    0.4267 H   0  0  0  0  0  0  0  0  0  0  0  0
    6.1020   -1.7278    1.6181 H   0  0  0  0  0  0  0  0  0  0  0  0
    4.1285   -3.8852    0.7652 H   0  0  0  0  0  0  0  0  0  0  0  0
    6.9315   -3.6906   -0.3474 H   0  0  0  0  0  0  0  0  0  0  0  0
    5.6268   -4.6650   -0.9490 H   0  0  0  0  0  0  0  0  0  0  0  0
    6.3911   -2.5890   -2.3290 H   0  0  0  0  0  0  0  0  0  0  0  0
    5.2529   -0.4373   -1.8350 H   0  0  0  0  0  0  0  0  0  0  0  0
    3.2370   -1.4340   -3.8799 H   0  0  0  0  0  0  0  0  0  0  0  0
    4.0594   -2.9546   -4.2527 H   0  0  0  0  0  0  0  0  0  0  0  0
    5.0017   -1.4775   -4.0001 H   0  0  0  0  0  0  0  0  0  0  0  0
    2.0650   -2.4943   -2.0004 H   0  0  0  0  0  0  0  0  0  0  0  0
    2.9327   -3.4160   -0.7756 H   0  0  0  0  0  0  0  0  0  0  0  0
    2.8715   -3.9822   -2.4341 H   0  0  0  0  0  0  0  0  0  0  0  0
    6.7267   -5.0566    4.1251 H   0  0  0  0  0  0  0  0  0  0  0  0
    7.9279   -6.2789    1.5596 H   0  0  0  0  0  0  0  0  0  0  0  0
    8.8327   -5.8915    3.0102 H   0  0  0  0  0  0  0  0  0  0  0  0
    8.1361   -4.6144    2.0707 H   0  0  0  0  0  0  0  0  0  0  0  0
    6.8816   -7.9373    3.1730 H   0  0  0  0  0  0  0  0  0  0  0  0
    5.7972   -7.4393    4.4773 H   0  0  0  0  0  0  0  0  0  0  0  0
    7.5136   -7.2246    4.6331 H   0  0  0  0  0  0  0  0  0  0  0  0
    5.5567   -6.2657    0.5150 H   0  0  0  0  0  0  0  0  0  0  0  0
    3.0096   -6.2059    0.3300 H   0  0  0  0  0  0  0  0  0  0  0  0
    2.3371   -4.7373    1.8843 H   0  0  0  0  0  0  0  0  0  0  0  0
    2.1589   -7.0357    3.4197 H   0  0  0  0  0  0  0  0  0  0  0  0
    4.1756   -6.6978    4.2331 H   0  0  0  0  0  0  0  0  0  0  0  0
    3.4435   -9.2275    0.1660 H   0  0  0  0  0  0  0  0  0  0  0  0
    5.1987   -9.2029    0.3468 H   0  0  0  0  0  0  0  0  0  0  0  0
    4.4029   -7.9809   -0.6580 H   0  0  0  0  0  0  0  0  0  0  0  0
    3.0965   -9.1915    2.5105 H   0  0  0  0  0  0  0  0  0  0  0  0
    3.8606   -8.0317    3.5869 H   0  0  0  0  0  0  0  0  0  0  0  0
    4.8443   -9.2638    2.7727 H   0  0  0  0  0  0  0  0  0  0  0  0
  1  2  1  0
  1 32  1  0
  1 33  1  0
  1 34  1  0
  2  3  2  3
  2 35  1  0
  3 27  1  0
  3  4  1  0
  4  5  2  0
  4  6  1  0
  6 10  1  0
  6  7  1  1
  6  8  1  0
  7 36  1  0
  7 37  1  0
  7 38  1  0
  8  9  1  0
  8 39  1  0
  8 40  1  0
  9 14  1  0
  9 10  1  0
  9 41  1  1
 10 11  1  0
 10 42  1  1
 11 12  1  0
 11 18  1  0
 11 43  1  6
 12 13  1  0
 12 44  1  0
 12 45  1  0
 13 15  1  0
 13 14  1  0
 13 46  1  6
 14 15  1  0
 14 47  1  6
 15 16  1  0
 15 17  1  0
 16 48  1  0
 16 49  1  0
 16 50  1  0
 17 51  1  0
 17 52  1  0
 17 53  1  0
 18 19  1  0
 19 27  1  0
 19 20  1  1
 19 23  1  0
 20 21  1  0
 20 22  1  0
 20 54  1  0
 21 55  1  0
 21 56  1  0
 21 57  1  0
 22 58  1  0
 22 59  1  0
 22 60  1  0
 23 29  1  0
 23 24  1  0
 23 61  1  6
 24 25  1  0
 24 29  1  0
 24 62  1  6
 25 26  1  0
 25 27  1  0
 25 63  1  6
 26 64  1  0
 27 28  1  1
 28 65  1  0
 29 30  1  0
 29 31  1  0
 30 66  1  0
 30 67  1  0
 30 68  1  0
 31 69  1  0
 31 70  1  0
 31 71  1  0
M  END
>  <i_m_ct_stereo_status>  (159) 
1

>  <s_m_source_file>  (159) 
/var/tmp/pbs.5076255.sched01/tmp0glzbzrw/400n8fk_jm.sdf

>  <i_m_source_file_index>  (159) 
26

>  <i_lp_mmshare_version>  (159) 
48012

>  <i_f3d_flags>  (159) 
0

>  <s_epik_input>  (159) 
W0NIM10vW0NIXT1DKFxDMT1PKVtDQEBdMihbT0hdKVtDQEhdKFtPSF0pW0NASF0oQzMoW0NIM10pW0NIM10pW0NASF0zW0NAQF0yKFtDSF0oW0NIM10pW0NIM10pT1tDQEBIXTRbQ0gyXVtDQEBIXShDNShbQ0gzXSlbQ0gzXSlbQ0BASF01W0NAQEhdKFtDSDJdNilbQ0BIXTRbQ0BdMTZbQ0gzXQ==

>  <s_epik_cmdline>  (159) 
J2VwaWtfcHl0aG9uJywgJy1waHQnLCAnMi4wJywgJy1waCcsICc3LjAnLCAnLXRuJywgJzgnLCAnLW1hJywgJzIwMCcsICctaW1hZScsICc8aW5maWxlLm1hZT4nLCAnLW9tYWUnLCAnPG91dGZpbGUubWFlPic=

>  <r_lp_tautomer_probability>  (159) 
1

>  <r_epik_Ionization_Penalty>  (159) 
1.24074e-07

>  <r_epik_Ionization_Penalty_Charging>  (159) 
0

>  <r_epik_Ionization_Penalty_Neutral>  (159) 
1.24074e-07

>  <r_epik_State_Penalty>  (159) 
-0

>  <r_epik_Charging_Adjusted_Penalty>  (159) 
0

>  <i_epik_Tot_Q>  (159) 
0

>  <i_epik_Tot_abs_Q>  (159) 
0

>  <s_lp_Force_Field>  (159) 
OPLS3e

>  <r_lp_Energy>  (159) 
83.8304

>  <b_lp_Chiralities_Consistent>  (159) 
1

>  <s_lp_Variant>  (159) 
50:0-2

>  <s_i_glide_gridfile>  (159) 
pfpi4k_grid

>  <i_i_glide_lignum>  (159) 
26

>  <i_i_glide_rotatable_bonds>  (159) 
3

>  <r_i_docking_score>  (159) 
-2.13721

>  <r_i_glide_ligand_efficiency>  (159) 
-0.0689422

>  <r_i_glide_ligand_efficiency_sa>  (159) 
-0.216574

>  <r_i_glide_ligand_efficiency_ln>  (159) 
-0.482006

>  <r_i_glide_gscore>  (159) 
-2.13721

>  <r_i_glide_lipo>  (159) 
-0.66239

>  <r_i_glide_hbond>  (159) 
0

>  <r_i_glide_metal>  (159) 
-0

>  <r_i_glide_rewards>  (159) 
-0.486812

>  <r_i_glide_evdw>  (159) 
-21.5805

>  <r_i_glide_ecoul>  (159) 
0.606805

>  <r_i_glide_erotb>  (159) 
0

>  <r_i_glide_esite>  (159) 
0

>  <r_i_glide_emodel>  (159) 
-21.5627

>  <r_i_glide_energy>  (159) 
-20.9737

>  <r_i_glide_einternal>  (159) 
2.98018

>  <r_i_glide_intrahb_reward>  (159) 
-0

>  <i_i_glide_confnum>  (159) 
2

>  <i_i_glide_posenum>  (159) 
1

>  <r_i_glide_eff_state_penalty>  (159) 
0

>  <ligand_id>  (159) 
50

>  <original_smiles>  (159) 
CC=C1C(=O)C2(C)CC3C2C(CC2C3C2(C)C)OC2(C(C)C)C3C(C(O)C12O)C3(C)C

>  <smiles>  (159) 
[H]OC1([H])C2(O[H])C(=C([H])C([H])([H])[H])C(=O)C3(C([H])([H])[H])C([H])([H])C4([H])C3([H])C([H])(OC2(C([H])(C([H])([H])[H])C([H])([H])[H])C2([H])C1([H])C2(C([H])([H])[H])C([H])([H])[H])C([H])([H])C1([H])C4([H])C1(C([H])([H])[H])C([H])([H])[H]

$$$$
50:1:1
     RDKit          3D

 71 76  0  0  1  0  0  0  0  0999 V2000
    4.7197   -3.5879    6.4875 C   0  0  0  0  0  0  0  0  0  0  0  0
    4.1473   -2.9938    5.2042 C   0  0  0  0  0  0  0  0  0  0  0  0
    3.8952   -3.5199    3.9729 C   0  0  0  0  0  0  0  0  0  0  0  0
    3.1968   -2.5458    3.0764 C   0  0  0  0  0  0  0  0  0  0  0  0
    1.9646   -2.5573    3.0165 O   0  0  0  0  0  0  0  0  0  0  0  0
    4.0260   -1.5271    2.2911 C   0  0  2  0  0  0  0  0  0  0  0  0
    4.4478   -0.3958    3.2390 C   0  0  0  0  0  0  0  0  0  0  0  0
    3.3426   -1.0343    0.9881 C   0  0  0  0  0  0  0  0  0  0  0  0
    4.7048   -1.0956    0.2901 C   0  0  1  0  0  0  0  0  0  0  0  0
    5.1282   -2.0952    1.3596 C   0  0  2  0  0  0  0  0  0  0  0  0
    5.1242   -3.5676    0.9686 C   0  0  1  0  0  0  0  0  0  0  0  0
    5.8413   -3.8024   -0.3826 C   0  0  0  0  0  0  0  0  0  0  0  0
    5.5601   -2.7748   -1.4855 C   0  0  2  0  0  0  0  0  0  0  0  0
    4.9035   -1.4294   -1.1844 C   0  0  1  0  0  0  0  0  0  0  0  0
    4.1985   -2.4661   -2.0624 C   0  0  0  0  0  0  0  0  0  0  0  0
    4.1184   -2.1864   -3.5550 C   0  0  0  0  0  0  0  0  0  0  0  0
    2.9366   -3.2120   -1.6543 C   0  0  0  0  0  0  0  0  0  0  0  0
    5.8119   -4.2030    2.0447 O   0  0  0  0  0  0  0  0  0  0  0  0
    5.3173   -5.3947    2.6804 C   0  0  2  0  0  0  0  0  0  0  0  0
    6.6228   -5.8034    3.4683 C   0  0  0  0  0  0  0  0  0  0  0  0
    7.9168   -5.6997    2.5990 C   0  0  0  0  0  0  0  0  0  0  0  0
    6.6474   -7.2020    4.1249 C   0  0  0  0  0  0  0  0  0  0  0  0
    4.9144   -6.4212    1.6098 C   0  0  2  0  0  0  0  0  0  0  0  0
    3.4121   -6.4313    1.5108 C   0  0  2  0  0  0  0  0  0  0  0  0
    2.8254   -5.5538    2.6034 C   0  0  1  0  0  0  0  0  0  0  0  0
    1.7787   -6.2417    3.2766 O   0  0  0  0  0  0  0  0  0  0  0  0
    4.0064   -5.0238    3.5108 C   0  0  2  0  0  0  0  0  0  0  0  0
    3.9550   -5.8333    4.6630 O   0  0  0  0  0  0  0  0  0  0  0  0
    4.1437   -7.7354    1.6870 C   0  0  0  0  0  0  0  0  0  0  0  0
    4.2349   -8.6566    0.4881 C   0  0  0  0  0  0  0  0  0  0  0  0
    3.9278   -8.6083    2.9080 C   0  0  0  0  0  0  0  0  0  0  0  0
    4.0542   -3.3263    7.3159 H   0  0  0  0  0  0  0  0  0  0  0  0
    5.6804   -3.1186    6.7033 H   0  0  0  0  0  0  0  0  0  0  0  0
    4.8631   -4.6645    6.5259 H   0  0  0  0  0  0  0  0  0  0  0  0
    3.8938   -1.9519    5.3602 H   0  0  0  0  0  0  0  0  0  0  0  0
    4.8603    0.4512    2.6973 H   0  0  0  0  0  0  0  0  0  0  0  0
    5.2145   -0.7074    3.9450 H   0  0  0  0  0  0  0  0  0  0  0  0
    3.6027   -0.0087    3.8038 H   0  0  0  0  0  0  0  0  0  0  0  0
    2.6133   -1.7372    0.5752 H   0  0  0  0  0  0  0  0  0  0  0  0
    2.9261   -0.0244    1.0398 H   0  0  0  0  0  0  0  0  0  0  0  0
    5.2218   -0.1562    0.5052 H   0  0  0  0  0  0  0  0  0  0  0  0
    6.1139   -1.8030    1.7306 H   0  0  0  0  0  0  0  0  0  0  0  0
    4.1118   -3.9495    0.9243 H   0  0  0  0  0  0  0  0  0  0  0  0
    6.9149   -3.8125   -0.2011 H   0  0  0  0  0  0  0  0  0  0  0  0
    5.5966   -4.7835   -0.7787 H   0  0  0  0  0  0  0  0  0  0  0  0
    6.3845   -2.7369   -2.1987 H   0  0  0  0  0  0  0  0  0  0  0  0
    5.2718   -0.5700   -1.7461 H   0  0  0  0  0  0  0  0  0  0  0  0
    3.2447   -1.5749   -3.7679 H   0  0  0  0  0  0  0  0  0  0  0  0
    4.0428   -3.1170   -4.1142 H   0  0  0  0  0  0  0  0  0  0  0  0
    5.0037   -1.6508   -3.8906 H   0  0  0  0  0  0  0  0  0  0  0  0
    2.0516   -2.6156   -1.8739 H   0  0  0  0  0  0  0  0  0  0  0  0
    2.9135   -3.4826   -0.6062 H   0  0  0  0  0  0  0  0  0  0  0  0
    2.8516   -4.1282   -2.2241 H   0  0  0  0  0  0  0  0  0  0  0  0
    6.7217   -5.0760    4.2775 H   0  0  0  0  0  0  0  0  0  0  0  0
    7.8743   -6.3578    1.7302 H   0  0  0  0  0  0  0  0  0  0  0  0
    8.7994   -5.9815    3.1740 H   0  0  0  0  0  0  0  0  0  0  0  0
    8.1190   -4.6972    2.2147 H   0  0  0  0  0  0  0  0  0  0  0  0
    6.8217   -7.9823    3.3836 H   0  0  0  0  0  0  0  0  0  0  0  0
    5.7535   -7.4620    4.6813 H   0  0  0  0  0  0  0  0  0  0  0  0
    7.4711   -7.2617    4.8357 H   0  0  0  0  0  0  0  0  0  0  0  0
    5.5132   -6.3537    0.7072 H   0  0  0  0  0  0  0  0  0  0  0  0
    2.9602   -6.2640    0.5360 H   0  0  0  0  0  0  0  0  0  0  0  0
    2.3133   -4.7614    2.0679 H   0  0  0  0  0  0  0  0  0  0  0  0
    2.1601   -7.0131    3.6658 H   0  0  0  0  0  0  0  0  0  0  0  0
    4.7718   -5.7294    5.1210 H   0  0  0  0  0  0  0  0  0  0  0  0
    3.3517   -9.2903    0.4222 H   0  0  0  0  0  0  0  0  0  0  0  0
    5.1110   -9.3021    0.5520 H   0  0  0  0  0  0  0  0  0  0  0  0
    4.3166   -8.0722   -0.4296 H   0  0  0  0  0  0  0  0  0  0  0  0
    3.0171   -9.1976    2.7779 H   0  0  0  0  0  0  0  0  0  0  0  0
    3.8105   -8.0250    3.8118 H   0  0  0  0  0  0  0  0  0  0  0  0
    4.7669   -9.2960    3.0326 H   0  0  0  0  0  0  0  0  0  0  0  0
  1  2  1  0
  1 32  1  0
  1 33  1  0
  1 34  1  0
  2  3  2  3
  2 35  1  0
  3 27  1  0
  3  4  1  0
  4  5  2  0
  4  6  1  0
  6 10  1  0
  6  7  1  1
  6  8  1  0
  7 36  1  0
  7 37  1  0
  7 38  1  0
  8  9  1  0
  8 39  1  0
  8 40  1  0
  9 14  1  0
  9 10  1  0
  9 41  1  1
 10 11  1  0
 10 42  1  1
 11 12  1  0
 11 18  1  0
 11 43  1  6
 12 13  1  0
 12 44  1  0
 12 45  1  0
 13 15  1  0
 13 14  1  0
 13 46  1  6
 14 15  1  0
 14 47  1  6
 15 16  1  0
 15 17  1  0
 16 48  1  0
 16 49  1  0
 16 50  1  0
 17 51  1  0
 17 52  1  0
 17 53  1  0
 18 19  1  0
 19 27  1  0
 19 20  1  1
 19 23  1  0
 20 21  1  0
 20 22  1  0
 20 54  1  0
 21 55  1  0
 21 56  1  0
 21 57  1  0
 22 58  1  0
 22 59  1  0
 22 60  1  0
 23 29  1  0
 23 24  1  0
 23 61  1  6
 24 25  1  0
 24 29  1  0
 24 62  1  6
 25 26  1  0
 25 27  1  0
 25 63  1  6
 26 64  1  0
 27 28  1  1
 28 65  1  0
 29 30  1  0
 29 31  1  0
 30 66  1  0
 30 67  1  0
 30 68  1  0
 31 69  1  0
 31 70  1  0
 31 71  1  0
M  END
>  <i_m_ct_stereo_status>  (160) 
1

>  <s_m_source_file>  (160) 
/var/tmp/pbs.5076255.sched01/tmp0glzbzrw/400n8fk_jm.sdf

>  <i_m_source_file_index>  (160) 
26

>  <i_lp_mmshare_version>  (160) 
48012

>  <i_f3d_flags>  (160) 
0

>  <s_epik_input>  (160) 
W0NIM10vW0NIXT1DKFxDMT1PKVtDQEBdMihbT0hdKVtDQEhdKFtPSF0pW0NASF0oQzMoW0NIM10pW0NIM10pW0NASF0zW0NAQF0yKFtDSF0oW0NIM10pW0NIM10pT1tDQEBIXTRbQ0gyXVtDQEBIXShDNShbQ0gzXSlbQ0gzXSlbQ0BASF01W0NAQEhdKFtDSDJdNilbQ0BIXTRbQ0BdMTZbQ0gzXQ==

>  <s_epik_cmdline>  (160) 
J2VwaWtfcHl0aG9uJywgJy1waHQnLCAnMi4wJywgJy1waCcsICc3LjAnLCAnLXRuJywgJzgnLCAnLW1hJywgJzIwMCcsICctaW1hZScsICc8aW5maWxlLm1hZT4nLCAnLW9tYWUnLCAnPG91dGZpbGUubWFlPic=

>  <r_lp_tautomer_probability>  (160) 
1

>  <r_epik_Ionization_Penalty>  (160) 
1.24074e-07

>  <r_epik_Ionization_Penalty_Charging>  (160) 
0

>  <r_epik_Ionization_Penalty_Neutral>  (160) 
1.24074e-07

>  <r_epik_State_Penalty>  (160) 
-0

>  <r_epik_Charging_Adjusted_Penalty>  (160) 
0

>  <i_epik_Tot_Q>  (160) 
0

>  <i_epik_Tot_abs_Q>  (160) 
0

>  <s_lp_Force_Field>  (160) 
OPLS3e

>  <r_lp_Energy>  (160) 
83.8304

>  <b_lp_Chiralities_Consistent>  (160) 
1

>  <s_lp_Variant>  (160) 
50:0-2

>  <s_i_glide_gridfile>  (160) 
pfpi4k_grid

>  <i_i_glide_lignum>  (160) 
26

>  <i_i_glide_rotatable_bonds>  (160) 
3

>  <r_i_docking_score>  (160) 
-2.10429

>  <r_i_glide_ligand_efficiency>  (160) 
-0.0678804

>  <r_i_glide_ligand_efficiency_sa>  (160) 
-0.213238

>  <r_i_glide_ligand_efficiency_ln>  (160) 
-0.474583

>  <r_i_glide_gscore>  (160) 
-2.10429

>  <r_i_glide_lipo>  (160) 
-0.677478

>  <r_i_glide_hbond>  (160) 
0

>  <r_i_glide_metal>  (160) 
-0

>  <r_i_glide_rewards>  (160) 
-0.486808

>  <r_i_glide_evdw>  (160) 
-21.0216

>  <r_i_glide_ecoul>  (160) 
0.740482

>  <r_i_glide_erotb>  (160) 
0

>  <r_i_glide_esite>  (160) 
0

>  <r_i_glide_emodel>  (160) 
-20.9354

>  <r_i_glide_energy>  (160) 
-20.2811

>  <r_i_glide_einternal>  (160) 
2.6838

>  <r_i_glide_intrahb_reward>  (160) 
-0

>  <i_i_glide_confnum>  (160) 
1

>  <i_i_glide_posenum>  (160) 
36

>  <r_i_glide_eff_state_penalty>  (160) 
0

>  <ligand_id>  (160) 
50

>  <original_smiles>  (160) 
CC=C1C(=O)C2(C)CC3C2C(CC2C3C2(C)C)OC2(C(C)C)C3C(C(O)C12O)C3(C)C

>  <smiles>  (160) 
[H]OC1([H])C2(O[H])C(=C([H])C([H])([H])[H])C(=O)C3(C([H])([H])[H])C([H])([H])C4([H])C3([H])C([H])(OC2(C([H])(C([H])([H])[H])C([H])([H])[H])C2([H])C1([H])C2(C([H])([H])[H])C([H])([H])[H])C([H])([H])C1([H])C4([H])C1(C([H])([H])[H])C([H])([H])[H]

$$$$
50:1:2
     RDKit          3D

 71 76  0  0  1  0  0  0  0  0999 V2000
    3.7247   -4.0608    6.9756 C   0  0  0  0  0  0  0  0  0  0  0  0
    3.2662   -3.4249    5.6678 C   0  0  0  0  0  0  0  0  0  0  0  0
    3.1938   -3.8833    4.3871 C   0  0  0  0  0  0  0  0  0  0  0  0
    2.5396   -2.8935    3.4743 C   0  0  0  0  0  0  0  0  0  0  0  0
    1.3238   -2.9667    3.2841 O   0  0  0  0  0  0  0  0  0  0  0  0
    3.3763   -1.7740    2.8498 C   0  0  2  0  0  0  0  0  0  0  0  0
    3.6181   -0.6810    3.9008 C   0  0  0  0  0  0  0  0  0  0  0  0
    2.8026   -1.2342    1.5132 C   0  0  0  0  0  0  0  0  0  0  0  0
    4.2280   -1.1675    0.9629 C   0  0  1  0  0  0  0  0  0  0  0  0
    4.6042   -2.2111    2.0110 C   0  0  2  0  0  0  0  0  0  0  0  0
    4.7454   -3.6491    1.5320 C   0  0  1  0  0  0  0  0  0  0  0  0
    5.6036   -3.7443    0.2487 C   0  0  0  0  0  0  0  0  0  0  0  0
    5.3712   -2.6587   -0.8075 C   0  0  2  0  0  0  0  0  0  0  0  0
    4.5953   -1.3841   -0.5006 C   0  0  1  0  0  0  0  0  0  0  0  0
    4.0611   -2.4006   -1.5146 C   0  0  0  0  0  0  0  0  0  0  0  0
    4.1184   -2.0159   -2.9859 C   0  0  0  0  0  0  0  0  0  0  0  0
    2.8210   -3.2530   -1.2970 C   0  0  0  0  0  0  0  0  0  0  0  0
    5.3767   -4.3315    2.6121 O   0  0  0  0  0  0  0  0  0  0  0  0
    4.8615   -5.5681    3.1393 C   0  0  2  0  0  0  0  0  0  0  0  0
    6.1321   -5.9741    3.9733 C   0  0  0  0  0  0  0  0  0  0  0  0
    6.2928   -7.4563    4.3463 C   0  0  0  0  0  0  0  0  0  0  0  0
    6.4279   -5.0833    5.1916 C   0  0  0  0  0  0  0  0  0  0  0  0
    4.6324   -6.5335    1.9631 C   0  0  2  0  0  0  0  0  0  0  0  0
    3.1524   -6.6362    1.7063 C   0  0  2  0  0  0  0  0  0  0  0  0
    2.4105   -5.8813    2.7947 C   0  0  1  0  0  0  0  0  0  0  0  0
    1.3363   -6.6599    3.3018 O   0  0  0  0  0  0  0  0  0  0  0  0
    3.4567   -5.3435    3.8579 C   0  0  2  0  0  0  0  0  0  0  0  0
    3.3696   -6.2352    4.9533 O   0  0  0  0  0  0  0  0  0  0  0  0
    3.9509   -7.9019    1.8672 C   0  0  0  0  0  0  0  0  0  0  0  0
    4.2258   -8.7210    0.6161 C   0  0  0  0  0  0  0  0  0  0  0  0
    3.6756   -8.8714    3.0044 C   0  0  0  0  0  0  0  0  0  0  0  0
    2.9710   -3.8868    7.7453 H   0  0  0  0  0  0  0  0  0  0  0  0
    4.6383   -3.5688    7.3108 H   0  0  0  0  0  0  0  0  0  0  0  0
    3.9071   -5.1304    6.9627 H   0  0  0  0  0  0  0  0  0  0  0  0
    2.9421   -2.4098    5.8517 H   0  0  0  0  0  0  0  0  0  0  0  0
    4.0320    0.2208    3.4537 H   0  0  0  0  0  0  0  0  0  0  0  0
    4.3236   -0.9947    4.6669 H   0  0  0  0  0  0  0  0  0  0  0  0
    2.6925   -0.3811    4.3878 H   0  0  0  0  0  0  0  0  0  0  0  0
    2.1718   -1.9452    0.9780 H   0  0  0  0  0  0  0  0  0  0  0  0
    2.3176   -0.2577    1.5772 H   0  0  0  0  0  0  0  0  0  0  0  0
    4.6559   -0.2149    1.2861 H   0  0  0  0  0  0  0  0  0  0  0  0
    5.5206   -1.8840    2.5044 H   0  0  0  0  0  0  0  0  0  0  0  0
    3.7688   -4.0793    1.3573 H   0  0  0  0  0  0  0  0  0  0  0  0
    6.6527   -3.7021    0.5387 H   0  0  0  0  0  0  0  0  0  0  0  0
    5.4638   -4.7086   -0.2328 H   0  0  0  0  0  0  0  0  0  0  0  0
    6.2584   -2.5195   -1.4224 H   0  0  0  0  0  0  0  0  0  0  0  0
    4.9631   -0.4696   -0.9631 H   0  0  0  0  0  0  0  0  0  0  0  0
    3.2354   -1.4395   -3.2558 H   0  0  0  0  0  0  0  0  0  0  0  0
    4.1640   -2.9041   -3.6139 H   0  0  0  0  0  0  0  0  0  0  0  0
    4.9971   -1.4066   -3.1877 H   0  0  0  0  0  0  0  0  0  0  0  0
    1.9295   -2.6900   -1.5700 H   0  0  0  0  0  0  0  0  0  0  0  0
    2.7038   -3.5894   -0.2759 H   0  0  0  0  0  0  0  0  0  0  0  0
    2.8621   -4.1381   -1.9243 H   0  0  0  0  0  0  0  0  0  0  0  0
    6.9726   -5.8013    3.2974 H   0  0  0  0  0  0  0  0  0  0  0  0
    5.5028   -7.8144    5.0027 H   0  0  0  0  0  0  0  0  0  0  0  0
    7.2363   -7.6120    4.8686 H   0  0  0  0  0  0  0  0  0  0  0  0
    6.3340   -8.0879    3.4598 H   0  0  0  0  0  0  0  0  0  0  0  0
    5.8647   -5.4148    6.0585 H   0  0  0  0  0  0  0  0  0  0  0  0
    6.1977   -4.0348    5.0044 H   0  0  0  0  0  0  0  0  0  0  0  0
    7.4827   -5.1430    5.4614 H   0  0  0  0  0  0  0  0  0  0  0  0
    5.3279   -6.3802    1.1442 H   0  0  0  0  0  0  0  0  0  0  0  0
    2.7957   -6.4253    0.7016 H   0  0  0  0  0  0  0  0  0  0  0  0
    1.9132   -5.0807    2.2574 H   0  0  0  0  0  0  0  0  0  0  0  0
    1.6864   -7.4797    3.6177 H   0  0  0  0  0  0  0  0  0  0  0  0
    3.5897   -7.0971    4.6497 H   0  0  0  0  0  0  0  0  0  0  0  0
    3.3951   -9.3958    0.4077 H   0  0  0  0  0  0  0  0  0  0  0  0
    5.1256   -9.3237    0.7381 H   0  0  0  0  0  0  0  0  0  0  0  0
    4.3678   -8.0745   -0.2514 H   0  0  0  0  0  0  0  0  0  0  0  0
    2.8126   -9.4933    2.7565 H   0  0  0  0  0  0  0  0  0  0  0  0
    3.4544   -8.3734    3.9374 H   0  0  0  0  0  0  0  0  0  0  0  0
    4.5346   -9.5264    3.1637 H   0  0  0  0  0  0  0  0  0  0  0  0
  1  2  1  0
  1 32  1  0
  1 33  1  0
  1 34  1  0
  2  3  2  3
  2 35  1  0
  3 27  1  0
  3  4  1  0
  4  5  2  0
  4  6  1  0
  6 10  1  0
  6  7  1  1
  6  8  1  0
  7 36  1  0
  7 37  1  0
  7 38  1  0
  8  9  1  0
  8 39  1  0
  8 40  1  0
  9 14  1  0
  9 10  1  0
  9 41  1  1
 10 11  1  0
 10 42  1  1
 11 12  1  0
 11 18  1  0
 11 43  1  6
 12 13  1  0
 12 44  1  0
 12 45  1  0
 13 15  1  0
 13 14  1  0
 13 46  1  6
 14 15  1  0
 14 47  1  6
 15 16  1  0
 15 17  1  0
 16 48  1  0
 16 49  1  0
 16 50  1  0
 17 51  1  0
 17 52  1  0
 17 53  1  0
 18 19  1  0
 19 27  1  0
 19 20  1  1
 19 23  1  0
 20 21  1  0
 20 22  1  0
 20 54  1  0
 21 55  1  0
 21 56  1  0
 21 57  1  0
 22 58  1  0
 22 59  1  0
 22 60  1  0
 23 29  1  0
 23 24  1  0
 23 61  1  6
 24 25  1  0
 24 29  1  0
 24 62  1  6
 25 26  1  0
 25 27  1  0
 25 63  1  6
 26 64  1  0
 27 28  1  1
 28 65  1  0
 29 30  1  0
 29 31  1  0
 30 66  1  0
 30 67  1  0
 30 68  1  0
 31 69  1  0
 31 70  1  0
 31 71  1  0
M  END
>  <i_m_ct_stereo_status>  (161) 
1

>  <s_m_source_file>  (161) 
/var/tmp/pbs.5076255.sched01/tmp0glzbzrw/400n8fk_jm.sdf

>  <i_m_source_file_index>  (161) 
26

>  <i_lp_mmshare_version>  (161) 
48012

>  <i_f3d_flags>  (161) 
0

>  <s_epik_input>  (161) 
W0NIM10vW0NIXT1DKFxDMT1PKVtDQEBdMihbT0hdKVtDQEhdKFtPSF0pW0NASF0oQzMoW0NIM10pW0NIM10pW0NASF0zW0NAQF0yKFtDSF0oW0NIM10pW0NIM10pT1tDQEBIXTRbQ0gyXVtDQEBIXShDNShbQ0gzXSlbQ0gzXSlbQ0BASF01W0NAQEhdKFtDSDJdNilbQ0BIXTRbQ0BdMTZbQ0gzXQ==

>  <s_epik_cmdline>  (161) 
J2VwaWtfcHl0aG9uJywgJy1waHQnLCAnMi4wJywgJy1waCcsICc3LjAnLCAnLXRuJywgJzgnLCAnLW1hJywgJzIwMCcsICctaW1hZScsICc8aW5maWxlLm1hZT4nLCAnLW9tYWUnLCAnPG91dGZpbGUubWFlPic=

>  <r_lp_tautomer_probability>  (161) 
1

>  <r_epik_Ionization_Penalty>  (161) 
1.24074e-07

>  <r_epik_Ionization_Penalty_Charging>  (161) 
0

>  <r_epik_Ionization_Penalty_Neutral>  (161) 
1.24074e-07

>  <r_epik_State_Penalty>  (161) 
-0

>  <r_epik_Charging_Adjusted_Penalty>  (161) 
0

>  <i_epik_Tot_Q>  (161) 
0

>  <i_epik_Tot_abs_Q>  (161) 
0

>  <s_lp_Force_Field>  (161) 
OPLS3e

>  <r_lp_Energy>  (161) 
83.8304

>  <b_lp_Chiralities_Consistent>  (161) 
1

>  <s_lp_Variant>  (161) 
50:0-2

>  <s_i_glide_gridfile>  (161) 
pfpi4k_grid

>  <i_i_glide_lignum>  (161) 
26

>  <i_i_glide_rotatable_bonds>  (161) 
3

>  <r_i_docking_score>  (161) 
-1.6865

>  <r_i_glide_ligand_efficiency>  (161) 
-0.0544033

>  <r_i_glide_ligand_efficiency_sa>  (161) 
-0.170901

>  <r_i_glide_ligand_efficiency_ln>  (161) 
-0.380358

>  <r_i_glide_gscore>  (161) 
-1.6865

>  <r_i_glide_lipo>  (161) 
-0.35693

>  <r_i_glide_hbond>  (161) 
0

>  <r_i_glide_metal>  (161) 
-0

>  <r_i_glide_rewards>  (161) 
-0.48839

>  <r_i_glide_evdw>  (161) 
-19.4119

>  <r_i_glide_ecoul>  (161) 
0.862762

>  <r_i_glide_erotb>  (161) 
0

>  <r_i_glide_esite>  (161) 
0

>  <r_i_glide_emodel>  (161) 
-20.513

>  <r_i_glide_energy>  (161) 
-18.5492

>  <r_i_glide_einternal>  (161) 
0.482708

>  <r_i_glide_intrahb_reward>  (161) 
-0

>  <i_i_glide_confnum>  (161) 
1

>  <i_i_glide_posenum>  (161) 
33

>  <r_i_glide_eff_state_penalty>  (161) 
0

>  <ligand_id>  (161) 
50

>  <original_smiles>  (161) 
CC=C1C(=O)C2(C)CC3C2C(CC2C3C2(C)C)OC2(C(C)C)C3C(C(O)C12O)C3(C)C

>  <smiles>  (161) 
[H]OC1([H])C2(O[H])C(=C([H])C([H])([H])[H])C(=O)C3(C([H])([H])[H])C([H])([H])C4([H])C3([H])C([H])(OC2(C([H])(C([H])([H])[H])C([H])([H])[H])C2([H])C1([H])C2(C([H])([H])[H])C([H])([H])[H])C([H])([H])C1([H])C4([H])C1(C([H])([H])[H])C([H])([H])[H]

$$$$
52:0:0
     RDKit          3D

 35 37  0  0  1  0  0  0  0  0999 V2000
    0.0138    1.7408    1.6851 N   0  0  0  0  0  0  0  0  0  0  0  0
   -0.3348    0.9123    2.8606 C   0  0  2  0  0  0  0  0  0  0  0  0
   -0.9778    1.7850    3.9604 C   0  0  0  0  0  0  0  0  0  0  0  0
   -1.2459    0.9926    5.2648 C   0  0  2  0  0  0  0  0  0  0  0  0
   -1.5307    1.8543    6.4697 C   0  0  0  0  0  0  0  0  0  0  0  0
   -2.5718    2.7689    6.6991 C   0  0  0  0  0  0  0  0  0  0  0  0
   -2.5931    3.4322    7.9483 C   0  0  0  0  0  0  0  0  0  0  0  0
   -1.6036    3.1771    8.9258 C   0  0  0  0  0  0  0  0  0  0  0  0
   -0.5668    2.2593    8.6709 C   0  0  0  0  0  0  0  0  0  0  0  0
   -0.5649    1.6118    7.4301 C   0  0  0  0  0  0  0  0  0  0  0  0
    0.3983    0.6138    6.9211 C   0  0  0  0  0  0  0  0  0  0  0  0
    1.3786    0.1941    7.5313 O   0  0  0  0  0  0  0  0  0  0  0  0
   -0.0218    0.2871    5.6819 N   0  0  0  0  0  0  0  0  0  0  0  0
    0.6490   -0.6067    4.7277 C   0  0  1  0  0  0  0  0  0  0  0  0
   -0.1603   -1.9185    4.6035 C   0  0  0  0  0  0  0  0  0  0  0  0
    0.6266   -2.9737    4.0907 O   0  0  0  0  0  0  0  0  0  0  0  0
    0.9124    0.1744    3.4013 C   0  0  1  0  0  0  0  0  0  0  0  0
    1.3857   -0.7466    2.4287 O   0  0  0  0  0  0  0  0  0  0  0  0
    0.6752    2.4695    1.9322 H   0  0  0  0  0  0  0  0  0  0  0  0
   -0.8047    2.2127    1.3174 H   0  0  0  0  0  0  0  0  0  0  0  0
   -1.0691    0.1824    2.5299 H   0  0  0  0  0  0  0  0  0  0  0  0
   -0.3137    2.6215    4.1822 H   0  0  0  0  0  0  0  0  0  0  0  0
   -1.9181    2.2075    3.6059 H   0  0  0  0  0  0  0  0  0  0  0  0
   -2.0549    0.2718    5.1227 H   0  0  0  0  0  0  0  0  0  0  0  0
   -3.3322    2.9519    5.9486 H   0  0  0  0  0  0  0  0  0  0  0  0
   -3.3744    4.1398    8.1671 H   0  0  0  0  0  0  0  0  0  0  0  0
   -1.6432    3.6954    9.8729 H   0  0  0  0  0  0  0  0  0  0  0  0
    0.1963    2.0565    9.4116 H   0  0  0  0  0  0  0  0  0  0  0  0
    1.6239   -0.8801    5.1382 H   0  0  0  0  0  0  0  0  0  0  0  0
   -0.5081   -2.2454    5.5840 H   0  0  0  0  0  0  0  0  0  0  0  0
   -1.0500   -1.7842    3.9902 H   0  0  0  0  0  0  0  0  0  0  0  0
    1.0097   -2.6754    3.2753 H   0  0  0  0  0  0  0  0  0  0  0  0
    1.6890    0.9198    3.6128 H   0  0  0  0  0  0  0  0  0  0  0  0
    1.4963   -0.3278    1.5772 H   0  0  0  0  0  0  0  0  0  0  0  0
    0.3851    1.1726    0.9416 H   0  0  0  0  0  0  0  0  0  0  0  0
  1  2  1  0
  1 19  1  0
  1 20  1  0
  1 35  1  0
  2 17  1  0
  2  3  1  0
  2 21  1  6
  3  4  1  0
  3 22  1  0
  3 23  1  0
  4 13  1  0
  4  5  1  0
  4 24  1  6
  5 10  2  0
  5  6  1  0
  6  7  2  0
  6 25  1  0
  7  8  1  0
  7 26  1  0
  8  9  2  0
  8 27  1  0
  9 10  1  0
  9 28  1  0
 10 11  1  0
 11 12  2  0
 11 13  1  0
 13 14  1  0
 14 15  1  0
 14 17  1  0
 14 29  1  1
 15 16  1  0
 15 30  1  0
 15 31  1  0
 16 32  1  0
 17 18  1  0
 17 33  1  1
 18 34  1  0
M  CHG  1   1   1
M  END
>  <i_m_ct_stereo_status>  (162) 
1

>  <s_m_source_file>  (162) 
/var/tmp/pbs.5076255.sched01/tmp0glzbzrw/400n8fk_jm.sdf

>  <i_m_source_file_index>  (162) 
28

>  <i_lp_mmshare_version>  (162) 
48012

>  <i_f3d_flags>  (162) 
0

>  <s_epik_input>  (162) 
W05IMl1bQ0BIXShbQ0gyXTEpW0NASF0oW09IXSlbQ0BIXShbQ0gyXVtPSF0pTjJDKD1PKWMoYzNbQ0BASF0xMilbY0hdW2NIXVtjSF1bY0hdMw==

>  <s_epik_cmdline>  (162) 
J2VwaWtfcHl0aG9uJywgJy1waHQnLCAnMi4wJywgJy1waCcsICc3LjAnLCAnLXRuJywgJzgnLCAnLW1hJywgJzIwMCcsICctaW1hZScsICc8aW5maWxlLm1hZT4nLCAnLW9tYWUnLCAnPG91dGZpbGUubWFlPic=

>  <r_epik_Ionization_Penalty>  (162) 
0.0236027

>  <r_epik_Ionization_Penalty_Charging>  (162) 
0.0236015

>  <r_epik_Ionization_Penalty_Neutral>  (162) 
1.24319e-06

>  <r_epik_State_Penalty>  (162) 
0.0191109

>  <r_epik_Charging_Adjusted_Penalty>  (162) 
0.0427124

>  <i_epik_Tot_Q>  (162) 
1

>  <i_epik_Tot_abs_Q>  (162) 
1

>  <s_lp_Force_Field>  (162) 
OPLS3e

>  <r_lp_Energy>  (162) 
23.6006

>  <b_lp_Chiralities_Consistent>  (162) 
1

>  <s_lp_Variant>  (162) 
52:0-1

>  <s_i_glide_gridfile>  (162) 
pfpi4k_grid

>  <i_i_glide_lignum>  (162) 
28

>  <i_i_glide_rotatable_bonds>  (162) 
3

>  <r_i_docking_score>  (162) 
-3.81707

>  <r_i_glide_ligand_efficiency>  (162) 
-0.212059

>  <r_i_glide_ligand_efficiency_sa>  (162) 
-0.555753

>  <r_i_glide_ligand_efficiency_ln>  (162) 
-0.981158

>  <r_i_glide_gscore>  (162) 
-3.81707

>  <r_i_glide_lipo>  (162) 
-0.255066

>  <r_i_glide_hbond>  (162) 
-0.0128741

>  <r_i_glide_metal>  (162) 
-0

>  <r_i_glide_rewards>  (162) 
-2.20942

>  <r_i_glide_evdw>  (162) 
-14.9858

>  <r_i_glide_ecoul>  (162) 
-5.10476

>  <r_i_glide_erotb>  (162) 
0.281377

>  <r_i_glide_esite>  (162) 
-0.106085

>  <r_i_glide_emodel>  (162) 
-33.2399

>  <r_i_glide_energy>  (162) 
-20.0906

>  <r_i_glide_einternal>  (162) 
0.684901

>  <r_i_glide_intrahb_reward>  (162) 
-0.5

>  <i_i_glide_confnum>  (162) 
1

>  <i_i_glide_posenum>  (162) 
11

>  <r_i_glide_eff_state_penalty>  (162) 
0

>  <ligand_id>  (162) 
52

>  <original_smiles>  (162) 
NC1CC2c3ccccc3C(=O)N2C(CO)C1O

>  <smiles>  (162) 
[H]OC([H])([H])C1([H])N2C(=O)c3c([H])c([H])c([H])c([H])c3C2([H])C([H])([H])C([H])([N+]([H])([H])[H])C1([H])O[H]

$$$$
52:0:1
     RDKit          3D

 35 37  0  0  1  0  0  0  0  0999 V2000
    0.1543    1.7332    1.6852 N   0  0  0  0  0  0  0  0  0  0  0  0
   -0.3047    0.8919    2.8061 C   0  0  2  0  0  0  0  0  0  0  0  0
   -0.9449    1.7696    3.9043 C   0  0  0  0  0  0  0  0  0  0  0  0
   -1.3229    0.9565    5.1626 C   0  0  2  0  0  0  0  0  0  0  0  0
   -1.6026    1.7910    6.3886 C   0  0  0  0  0  0  0  0  0  0  0  0
   -2.5902    2.7708    6.6033 C   0  0  0  0  0  0  0  0  0  0  0  0
   -2.6320    3.3822    7.8740 C   0  0  0  0  0  0  0  0  0  0  0  0
   -1.7150    3.0206    8.8914 C   0  0  0  0  0  0  0  0  0  0  0  0
   -0.7285    2.0414    8.6500 C   0  0  0  0  0  0  0  0  0  0  0  0
   -0.7074    1.4440    7.3814 C   0  0  0  0  0  0  0  0  0  0  0  0
    0.2111    0.4061    6.8782 C   0  0  0  0  0  0  0  0  0  0  0  0
    1.1276   -0.1073    7.5180 O   0  0  0  0  0  0  0  0  0  0  0  0
   -0.1647    0.1558    5.6086 N   0  0  0  0  0  0  0  0  0  0  0  0
    0.4894   -0.7496    4.6629 C   0  0  1  0  0  0  0  0  0  0  0  0
   -0.3922   -2.0005    4.4437 C   0  0  0  0  0  0  0  0  0  0  0  0
   -0.5449   -2.7212    5.6518 O   0  0  0  0  0  0  0  0  0  0  0  0
    0.8657    0.0555    3.3822 C   0  0  1  0  0  0  0  0  0  0  0  0
    1.3405   -0.8563    2.4026 O   0  0  0  0  0  0  0  0  0  0  0  0
    0.8542    2.3948    1.9974 H   0  0  0  0  0  0  0  0  0  0  0  0
   -0.6022    2.2811    1.2920 H   0  0  0  0  0  0  0  0  0  0  0  0
   -1.0644    0.2211    2.4179 H   0  0  0  0  0  0  0  0  0  0  0  0
   -0.2359    2.5483    4.1857 H   0  0  0  0  0  0  0  0  0  0  0  0
   -1.8336    2.2686    3.5207 H   0  0  0  0  0  0  0  0  0  0  0  0
   -2.1736    0.2996    4.9602 H   0  0  0  0  0  0  0  0  0  0  0  0
   -3.2963    3.0276    5.8249 H   0  0  0  0  0  0  0  0  0  0  0  0
   -3.3768    4.1329    8.0845 H   0  0  0  0  0  0  0  0  0  0  0  0
   -1.7690    3.5023    9.8555 H   0  0  0  0  0  0  0  0  0  0  0  0
   -0.0217    1.7588    9.4142 H   0  0  0  0  0  0  0  0  0  0  0  0
    1.4322   -1.1071    5.0850 H   0  0  0  0  0  0  0  0  0  0  0  0
   -1.3829   -1.7275    4.0798 H   0  0  0  0  0  0  0  0  0  0  0  0
    0.0474   -2.6704    3.7007 H   0  0  0  0  0  0  0  0  0  0  0  0
    0.2930   -3.0894    5.8951 H   0  0  0  0  0  0  0  0  0  0  0  0
    1.6727    0.7438    3.6581 H   0  0  0  0  0  0  0  0  0  0  0  0
    1.4844   -0.4284    1.5686 H   0  0  0  0  0  0  0  0  0  0  0  0
    0.5251    1.1661    0.9371 H   0  0  0  0  0  0  0  0  0  0  0  0
  1  2  1  0
  1 19  1  0
  1 20  1  0
  1 35  1  0
  2 17  1  0
  2  3  1  0
  2 21  1  6
  3  4  1  0
  3 22  1  0
  3 23  1  0
  4 13  1  0
  4  5  1  0
  4 24  1  6
  5 10  2  0
  5  6  1  0
  6  7  2  0
  6 25  1  0
  7  8  1  0
  7 26  1  0
  8  9  2  0
  8 27  1  0
  9 10  1  0
  9 28  1  0
 10 11  1  0
 11 12  2  0
 11 13  1  0
 13 14  1  0
 14 15  1  0
 14 17  1  0
 14 29  1  1
 15 16  1  0
 15 30  1  0
 15 31  1  0
 16 32  1  0
 17 18  1  0
 17 33  1  1
 18 34  1  0
M  CHG  1   1   1
M  END
>  <i_m_ct_stereo_status>  (163) 
1

>  <s_m_source_file>  (163) 
/var/tmp/pbs.5076255.sched01/tmp0glzbzrw/400n8fk_jm.sdf

>  <i_m_source_file_index>  (163) 
28

>  <i_lp_mmshare_version>  (163) 
48012

>  <i_f3d_flags>  (163) 
0

>  <s_epik_input>  (163) 
W05IMl1bQ0BIXShbQ0gyXTEpW0NASF0oW09IXSlbQ0BIXShbQ0gyXVtPSF0pTjJDKD1PKWMoYzNbQ0BASF0xMilbY0hdW2NIXVtjSF1bY0hdMw==

>  <s_epik_cmdline>  (163) 
J2VwaWtfcHl0aG9uJywgJy1waHQnLCAnMi4wJywgJy1waCcsICc3LjAnLCAnLXRuJywgJzgnLCAnLW1hJywgJzIwMCcsICctaW1hZScsICc8aW5maWxlLm1hZT4nLCAnLW9tYWUnLCAnPG91dGZpbGUubWFlPic=

>  <r_epik_Ionization_Penalty>  (163) 
0.0236027

>  <r_epik_Ionization_Penalty_Charging>  (163) 
0.0236015

>  <r_epik_Ionization_Penalty_Neutral>  (163) 
1.24319e-06

>  <r_epik_State_Penalty>  (163) 
0.0191109

>  <r_epik_Charging_Adjusted_Penalty>  (163) 
0.0427124

>  <i_epik_Tot_Q>  (163) 
1

>  <i_epik_Tot_abs_Q>  (163) 
1

>  <s_lp_Force_Field>  (163) 
OPLS3e

>  <r_lp_Energy>  (163) 
23.6006

>  <b_lp_Chiralities_Consistent>  (163) 
1

>  <s_lp_Variant>  (163) 
52:0-1

>  <s_i_glide_gridfile>  (163) 
pfpi4k_grid

>  <i_i_glide_lignum>  (163) 
28

>  <i_i_glide_rotatable_bonds>  (163) 
3

>  <r_i_docking_score>  (163) 
-3.67876

>  <r_i_glide_ligand_efficiency>  (163) 
-0.204376

>  <r_i_glide_ligand_efficiency_sa>  (163) 
-0.535616

>  <r_i_glide_ligand_efficiency_ln>  (163) 
-0.945607

>  <r_i_glide_gscore>  (163) 
-3.67876

>  <r_i_glide_lipo>  (163) 
-0.267351

>  <r_i_glide_hbond>  (163) 
-0.0271748

>  <r_i_glide_metal>  (163) 
-0

>  <r_i_glide_rewards>  (163) 
-1.70942

>  <r_i_glide_evdw>  (163) 
-15.8025

>  <r_i_glide_ecoul>  (163) 
-6.99887

>  <r_i_glide_erotb>  (163) 
0.281377

>  <r_i_glide_esite>  (163) 
-0.116242

>  <r_i_glide_emodel>  (163) 
-29.3053

>  <r_i_glide_energy>  (163) 
-22.8014

>  <r_i_glide_einternal>  (163) 
3.29919

>  <r_i_glide_intrahb_reward>  (163) 
-0

>  <i_i_glide_confnum>  (163) 
3

>  <i_i_glide_posenum>  (163) 
28

>  <r_i_glide_eff_state_penalty>  (163) 
0

>  <ligand_id>  (163) 
52

>  <original_smiles>  (163) 
NC1CC2c3ccccc3C(=O)N2C(CO)C1O

>  <smiles>  (163) 
[H]OC([H])([H])C1([H])N2C(=O)c3c([H])c([H])c([H])c([H])c3C2([H])C([H])([H])C([H])([N+]([H])([H])[H])C1([H])O[H]

$$$$
52:0:2
     RDKit          3D

 35 37  0  0  1  0  0  0  0  0999 V2000
    0.9426    2.1389    2.1403 N   0  0  0  0  0  0  0  0  0  0  0  0
    1.3444    2.7313    3.4306 C   0  0  2  0  0  0  0  0  0  0  0  0
    0.3348    2.3486    4.5326 C   0  0  0  0  0  0  0  0  0  0  0  0
    0.6394    3.0556    5.8738 C   0  0  2  0  0  0  0  0  0  0  0  0
   -0.5013    3.0086    6.8631 C   0  0  0  0  0  0  0  0  0  0  0  0
   -1.1261    1.9027    7.4615 C   0  0  0  0  0  0  0  0  0  0  0  0
   -2.1647    2.1684    8.3825 C   0  0  0  0  0  0  0  0  0  0  0  0
   -2.5593    3.4923    8.6909 C   0  0  0  0  0  0  0  0  0  0  0  0
   -1.9077    4.5847    8.0809 C   0  0  0  0  0  0  0  0  0  0  0  0
   -0.8812    4.3021    7.1674 C   0  0  0  0  0  0  0  0  0  0  0  0
   -0.0580    5.2561    6.3905 C   0  0  0  0  0  0  0  0  0  0  0  0
   -0.1971    6.4754    6.3918 O   0  0  0  0  0  0  0  0  0  0  0  0
    0.8021    4.5069    5.6696 N   0  0  0  0  0  0  0  0  0  0  0  0
    1.7642    4.9760    4.6736 C   0  0  1  0  0  0  0  0  0  0  0  0
    3.2003    4.8173    5.2230 C   0  0  0  0  0  0  0  0  0  0  0  0
    4.0762    5.7470    4.6245 O   0  0  0  0  0  0  0  0  0  0  0  0
    1.4564    4.2695    3.3247 C   0  0  1  0  0  0  0  0  0  0  0  0
    2.4525    4.5818    2.3835 O   0  0  0  0  0  0  0  0  0  0  0  0
    0.0502    2.5265    1.8587 H   0  0  0  0  0  0  0  0  0  0  0  0
    0.8888    1.1365    2.1964 H   0  0  0  0  0  0  0  0  0  0  0  0
    2.3197    2.3152    3.6782 H   0  0  0  0  0  0  0  0  0  0  0  0
   -0.6642    2.6297    4.1969 H   0  0  0  0  0  0  0  0  0  0  0  0
    0.3304    1.2695    4.6842 H   0  0  0  0  0  0  0  0  0  0  0  0
    1.5443    2.6530    6.3339 H   0  0  0  0  0  0  0  0  0  0  0  0
   -0.8091    0.8942    7.2387 H   0  0  0  0  0  0  0  0  0  0  0  0
   -2.6559    1.3516    8.8778 H   0  0  0  0  0  0  0  0  0  0  0  0
   -3.3537    3.6675    9.4017 H   0  0  0  0  0  0  0  0  0  0  0  0
   -2.1921    5.6008    8.3130 H   0  0  0  0  0  0  0  0  0  0  0  0
    1.5973    6.0453    4.5153 H   0  0  0  0  0  0  0  0  0  0  0  0
    3.2161    5.0250    6.2931 H   0  0  0  0  0  0  0  0  0  0  0  0
    3.5821    3.8030    5.0906 H   0  0  0  0  0  0  0  0  0  0  0  0
    4.0215    5.6324    3.6857 H   0  0  0  0  0  0  0  0  0  0  0  0
    0.5138    4.6755    2.9485 H   0  0  0  0  0  0  0  0  0  0  0  0
    2.0210    4.6051    1.5329 H   0  0  0  0  0  0  0  0  0  0  0  0
    1.6069    2.4021    1.4293 H   0  0  0  0  0  0  0  0  0  0  0  0
  1  2  1  0
  1 19  1  0
  1 20  1  0
  1 35  1  0
  2 17  1  0
  2  3  1  0
  2 21  1  1
  3  4  1  0
  3 22  1  0
  3 23  1  0
  4 13  1  0
  4  5  1  0
  4 24  1  1
  5 10  2  0
  5  6  1  0
  6  7  2  0
  6 25  1  0
  7  8  1  0
  7 26  1  0
  8  9  2  0
  8 27  1  0
  9 10  1  0
  9 28  1  0
 10 11  1  0
 11 12  2  0
 11 13  1  0
 13 14  1  0
 14 15  1  0
 14 17  1  0
 14 29  1  6
 15 16  1  0
 15 30  1  0
 15 31  1  0
 16 32  1  0
 17 18  1  0
 17 33  1  6
 18 34  1  0
M  CHG  1   1   1
M  END
>  <i_m_ct_stereo_status>  (164) 
1

>  <s_m_source_file>  (164) 
/var/tmp/pbs.5076255.sched01/tmp0glzbzrw/400n8fk_jm.sdf

>  <i_m_source_file_index>  (164) 
28

>  <i_lp_mmshare_version>  (164) 
48012

>  <i_f3d_flags>  (164) 
0

>  <s_epik_input>  (164) 
W05IMl1bQ0BIXShbQ0gyXTEpW0NASF0oW09IXSlbQ0BIXShbQ0gyXVtPSF0pTjJDKD1PKWMoYzNbQ0BASF0xMilbY0hdW2NIXVtjSF1bY0hdMw==

>  <s_epik_cmdline>  (164) 
J2VwaWtfcHl0aG9uJywgJy1waHQnLCAnMi4wJywgJy1waCcsICc3LjAnLCAnLXRuJywgJzgnLCAnLW1hJywgJzIwMCcsICctaW1hZScsICc8aW5maWxlLm1hZT4nLCAnLW9tYWUnLCAnPG91dGZpbGUubWFlPic=

>  <r_epik_Ionization_Penalty>  (164) 
0.0236027

>  <r_epik_Ionization_Penalty_Charging>  (164) 
0.0236015

>  <r_epik_Ionization_Penalty_Neutral>  (164) 
1.24319e-06

>  <r_epik_State_Penalty>  (164) 
0.0191109

>  <r_epik_Charging_Adjusted_Penalty>  (164) 
0.0427124

>  <i_epik_Tot_Q>  (164) 
1

>  <i_epik_Tot_abs_Q>  (164) 
1

>  <s_lp_Force_Field>  (164) 
OPLS3e

>  <r_lp_Energy>  (164) 
23.6006

>  <b_lp_Chiralities_Consistent>  (164) 
1

>  <s_lp_Variant>  (164) 
52:0-1

>  <s_i_glide_gridfile>  (164) 
pfpi4k_grid

>  <i_i_glide_lignum>  (164) 
28

>  <i_i_glide_rotatable_bonds>  (164) 
3

>  <r_i_docking_score>  (164) 
-3.60546

>  <r_i_glide_ligand_efficiency>  (164) 
-0.200303

>  <r_i_glide_ligand_efficiency_sa>  (164) 
-0.524943

>  <r_i_glide_ligand_efficiency_ln>  (164) 
-0.926765

>  <r_i_glide_gscore>  (164) 
-3.60546

>  <r_i_glide_lipo>  (164) 
-0.0236025

>  <r_i_glide_hbond>  (164) 
-0.0562715

>  <r_i_glide_metal>  (164) 
-0

>  <r_i_glide_rewards>  (164) 
-2.20942

>  <r_i_glide_evdw>  (164) 
-11.7064

>  <r_i_glide_ecoul>  (164) 
-6.06442

>  <r_i_glide_erotb>  (164) 
0.281377

>  <r_i_glide_esite>  (164) 
-0.102562

>  <r_i_glide_emodel>  (164) 
-30.3654

>  <r_i_glide_energy>  (164) 
-17.7708

>  <r_i_glide_einternal>  (164) 
0.749439

>  <r_i_glide_intrahb_reward>  (164) 
-0.5

>  <i_i_glide_confnum>  (164) 
5

>  <i_i_glide_posenum>  (164) 
2

>  <r_i_glide_eff_state_penalty>  (164) 
0

>  <ligand_id>  (164) 
52

>  <original_smiles>  (164) 
NC1CC2c3ccccc3C(=O)N2C(CO)C1O

>  <smiles>  (164) 
[H]OC([H])([H])C1([H])N2C(=O)c3c([H])c([H])c([H])c([H])c3C2([H])C([H])([H])C([H])([N+]([H])([H])[H])C1([H])O[H]

$$$$
52:1:0
     RDKit          3D

 34 36  0  0  1  0  0  0  0  0999 V2000
    3.3893    0.9270    3.0434 N   0  0  0  0  0  0  0  0  0  0  0  0
    3.8899   -0.3104    2.4098 C   0  0  2  0  0  0  0  0  0  0  0  0
    3.8500   -0.1933    0.8714 C   0  0  0  0  0  0  0  0  0  0  0  0
    4.3636   -1.4808    0.2032 C   0  0  2  0  0  0  0  0  0  0  0  0
    4.0857   -1.5728   -1.2780 C   0  0  0  0  0  0  0  0  0  0  0  0
    4.4916   -0.7414   -2.3320 C   0  0  0  0  0  0  0  0  0  0  0  0
    4.0948   -1.0879   -3.6436 C   0  0  0  0  0  0  0  0  0  0  0  0
    3.3123   -2.2444   -3.8727 C   0  0  0  0  0  0  0  0  0  0  0  0
    2.8914   -3.0522   -2.7990 C   0  0  0  0  0  0  0  0  0  0  0  0
    3.3151   -2.6969   -1.5096 C   0  0  0  0  0  0  0  0  0  0  0  0
    3.0223   -3.3796   -0.2272 C   0  0  0  0  0  0  0  0  0  0  0  0
    2.3378   -4.3955   -0.0917 O   0  0  0  0  0  0  0  0  0  0  0  0
    3.6373   -2.6532    0.7319 N   0  0  0  0  0  0  0  0  0  0  0  0
    3.5868   -2.8659    2.1833 C   0  0  1  0  0  0  0  0  0  0  0  0
    4.9627   -3.4028    2.6618 C   0  0  0  0  0  0  0  0  0  0  0  0
    4.9025   -4.0918    3.8981 O   0  0  0  0  0  0  0  0  0  0  0  0
    3.0887   -1.5570    2.8574 C   0  0  1  0  0  0  0  0  0  0  0  0
    3.1677   -1.6671    4.2644 O   0  0  0  0  0  0  0  0  0  0  0  0
    3.5149    0.8949    4.0538 H   0  0  0  0  0  0  0  0  0  0  0  0
    3.9273    1.7331    2.7111 H   0  0  0  0  0  0  0  0  0  0  0  0
    4.9349   -0.4498    2.7015 H   0  0  0  0  0  0  0  0  0  0  0  0
    2.8256    0.0059    0.5578 H   0  0  0  0  0  0  0  0  0  0  0  0
    4.4434    0.6548    0.5334 H   0  0  0  0  0  0  0  0  0  0  0  0
    5.4323   -1.6041    0.3790 H   0  0  0  0  0  0  0  0  0  0  0  0
    5.0838    0.1390   -2.1513 H   0  0  0  0  0  0  0  0  0  0  0  0
    4.3852   -0.4702   -4.4780 H   0  0  0  0  0  0  0  0  0  0  0  0
    3.0139   -2.5144   -4.8681 H   0  0  0  0  0  0  0  0  0  0  0  0
    2.2769   -3.9209   -2.9673 H   0  0  0  0  0  0  0  0  0  0  0  0
    2.8459   -3.6392    2.3909 H   0  0  0  0  0  0  0  0  0  0  0  0
    5.3435   -4.1266    1.9383 H   0  0  0  0  0  0  0  0  0  0  0  0
    5.7081   -2.6077    2.7233 H   0  0  0  0  0  0  0  0  0  0  0  0
    4.2845   -4.8011    3.8208 H   0  0  0  0  0  0  0  0  0  0  0  0
    2.0387   -1.4109    2.5977 H   0  0  0  0  0  0  0  0  0  0  0  0
    2.7605   -0.9062    4.6474 H   0  0  0  0  0  0  0  0  0  0  0  0
  1  2  1  0
  1 19  1  0
  1 20  1  0
  2 17  1  0
  2  3  1  0
  2 21  1  1
  3  4  1  0
  3 22  1  0
  3 23  1  0
  4 13  1  0
  4  5  1  0
  4 24  1  6
  5 10  2  0
  5  6  1  0
  6  7  2  0
  6 25  1  0
  7  8  1  0
  7 26  1  0
  8  9  2  0
  8 27  1  0
  9 10  1  0
  9 28  1  0
 10 11  1  0
 11 12  2  0
 11 13  1  0
 13 14  1  0
 14 15  1  0
 14 17  1  0
 14 29  1  6
 15 16  1  0
 15 30  1  0
 15 31  1  0
 16 32  1  0
 17 18  1  0
 17 33  1  1
 18 34  1  0
M  END
>  <i_m_ct_stereo_status>  (165) 
1

>  <s_m_source_file>  (165) 
/var/tmp/pbs.5076255.sched01/tmp0glzbzrw/400n8fk_jm.sdf

>  <i_m_source_file_index>  (165) 
29

>  <i_lp_mmshare_version>  (165) 
48012

>  <i_f3d_flags>  (165) 
0

>  <s_epik_input>  (165) 
W05IMl1bQ0BIXShbQ0gyXTEpW0NASF0oW09IXSlbQ0BIXShbQ0gyXVtPSF0pTjJDKD1PKWMoYzNbQ0BASF0xMilbY0hdW2NIXVtjSF1bY0hdMw==

>  <s_epik_cmdline>  (165) 
J2VwaWtfcHl0aG9uJywgJy1waHQnLCAnMi4wJywgJy1waCcsICc3LjAnLCAnLXRuJywgJzgnLCAnLW1hJywgJzIwMCcsICctaW1hZScsICc8aW5maWxlLm1hZT4nLCAnLW9tYWUnLCAnPG91dGZpbGUubWFlPic=

>  <r_epik_Ionization_Penalty>  (165) 
1.92135

>  <r_epik_Ionization_Penalty_Charging>  (165) 
0

>  <r_epik_Ionization_Penalty_Neutral>  (165) 
1.92135

>  <r_epik_State_Penalty>  (165) 
2.04416

>  <r_epik_Charging_Adjusted_Penalty>  (165) 
2.04416

>  <i_epik_Tot_Q>  (165) 
0

>  <i_epik_Tot_abs_Q>  (165) 
0

>  <s_lp_Force_Field>  (165) 
OPLS3e

>  <r_lp_Energy>  (165) 
22.577

>  <b_lp_Chiralities_Consistent>  (165) 
1

>  <s_lp_Variant>  (165) 
52:0-2

>  <s_i_glide_gridfile>  (165) 
pfpi4k_grid

>  <i_i_glide_lignum>  (165) 
29

>  <i_i_glide_rotatable_bonds>  (165) 
3

>  <r_i_docking_score>  (165) 
-3.69839

>  <r_i_glide_ligand_efficiency>  (165) 
-0.205466

>  <r_i_glide_ligand_efficiency_sa>  (165) 
-0.538474

>  <r_i_glide_ligand_efficiency_ln>  (165) 
-0.950653

>  <r_i_glide_gscore>  (165) 
-3.69839

>  <r_i_glide_lipo>  (165) 
-0.461397

>  <r_i_glide_hbond>  (165) 
-0.32

>  <r_i_glide_metal>  (165) 
-0

>  <r_i_glide_rewards>  (165) 
-1.72966

>  <r_i_glide_evdw>  (165) 
-19.8742

>  <r_i_glide_ecoul>  (165) 
-3.07948

>  <r_i_glide_erotb>  (165) 
0.283337

>  <r_i_glide_esite>  (165) 
-0.0150445

>  <r_i_glide_emodel>  (165) 
-27.9845

>  <r_i_glide_energy>  (165) 
-22.9536

>  <r_i_glide_einternal>  (165) 
0.337671

>  <r_i_glide_intrahb_reward>  (165) 
-0

>  <i_i_glide_confnum>  (165) 
3

>  <i_i_glide_posenum>  (165) 
17

>  <r_i_glide_eff_state_penalty>  (165) 
0

>  <ligand_id>  (165) 
52

>  <original_smiles>  (165) 
NC1CC2c3ccccc3C(=O)N2C(CO)C1O

>  <smiles>  (165) 
[H]OC([H])([H])C1([H])N2C(=O)c3c([H])c([H])c([H])c([H])c3C2([H])C([H])([H])C([H])(N([H])[H])C1([H])O[H]

$$$$
52:1:1
     RDKit          3D

 34 36  0  0  1  0  0  0  0  0999 V2000
    3.1699   -1.1005    3.7131 N   0  0  0  0  0  0  0  0  0  0  0  0
    3.4838   -2.1088    2.6809 C   0  0  2  0  0  0  0  0  0  0  0  0
    3.6227   -1.4549    1.2905 C   0  0  0  0  0  0  0  0  0  0  0  0
    3.9461   -2.5120    0.2152 C   0  0  2  0  0  0  0  0  0  0  0  0
    3.8198   -2.0428   -1.2144 C   0  0  0  0  0  0  0  0  0  0  0  0
    4.4742   -0.9975   -1.8787 C   0  0  0  0  0  0  0  0  0  0  0  0
    4.1318   -0.7672   -3.2296 C   0  0  0  0  0  0  0  0  0  0  0  0
    3.1772   -1.5821   -3.8842 C   0  0  0  0  0  0  0  0  0  0  0  0
    2.5285   -2.6373   -3.2063 C   0  0  0  0  0  0  0  0  0  0  0  0
    2.8839   -2.8361   -1.8607 C   0  0  0  0  0  0  0  0  0  0  0  0
    2.3167   -3.8063   -0.8977 C   0  0  0  0  0  0  0  0  0  0  0  0
    1.4090   -4.6011   -1.1161 O   0  0  0  0  0  0  0  0  0  0  0  0
    2.9637   -3.6034    0.2717 N   0  0  0  0  0  0  0  0  0  0  0  0
    2.7102   -4.2847    1.5411 C   0  0  1  0  0  0  0  0  0  0  0  0
    3.8947   -5.2388    1.8263 C   0  0  0  0  0  0  0  0  0  0  0  0
    3.5276   -6.2599    2.7257 O   0  0  0  0  0  0  0  0  0  0  0  0
    2.4149   -3.2237    2.6321 C   0  0  1  0  0  0  0  0  0  0  0  0
    2.3645   -3.8496    3.8981 O   0  0  0  0  0  0  0  0  0  0  0  0
    3.1878   -1.5064    4.6487 H   0  0  0  0  0  0  0  0  0  0  0  0
    3.8683   -0.3591    3.7050 H   0  0  0  0  0  0  0  0  0  0  0  0
    4.4489   -2.5732    2.9208 H   0  0  0  0  0  0  0  0  0  0  0  0
    2.6926   -0.9367    1.0479 H   0  0  0  0  0  0  0  0  0  0  0  0
    4.3971   -0.6867    1.2986 H   0  0  0  0  0  0  0  0  0  0  0  0
    4.9446   -2.9237    0.3624 H   0  0  0  0  0  0  0  0  0  0  0  0
    5.1901   -0.3735   -1.3556 H   0  0  0  0  0  0  0  0  0  0  0  0
    4.6040    0.0411   -3.7682 H   0  0  0  0  0  0  0  0  0  0  0  0
    2.9314   -1.3491   -4.9094 H   0  0  0  0  0  0  0  0  0  0  0  0
    1.7596   -3.2407   -3.6798 H   0  0  0  0  0  0  0  0  0  0  0  0
    1.8209   -4.9117    1.4447 H   0  0  0  0  0  0  0  0  0  0  0  0
    4.1876   -5.7419    0.9053 H   0  0  0  0  0  0  0  0  0  0  0  0
    4.7781   -4.7079    2.1955 H   0  0  0  0  0  0  0  0  0  0  0  0
    3.2923   -5.8379    3.5443 H   0  0  0  0  0  0  0  0  0  0  0  0
    1.4378   -2.7699    2.4348 H   0  0  0  0  0  0  0  0  0  0  0  0
    2.0654   -3.2064    4.5297 H   0  0  0  0  0  0  0  0  0  0  0  0
  1  2  1  0
  1 19  1  0
  1 20  1  0
  2 17  1  0
  2  3  1  0
  2 21  1  1
  3  4  1  0
  3 22  1  0
  3 23  1  0
  4 13  1  0
  4  5  1  0
  4 24  1  1
  5 10  2  0
  5  6  1  0
  6  7  2  0
  6 25  1  0
  7  8  1  0
  7 26  1  0
  8  9  2  0
  8 27  1  0
  9 10  1  0
  9 28  1  0
 10 11  1  0
 11 12  2  0
 11 13  1  0
 13 14  1  0
 14 15  1  0
 14 17  1  0
 14 29  1  6
 15 16  1  0
 15 30  1  0
 15 31  1  0
 16 32  1  0
 17 18  1  0
 17 33  1  6
 18 34  1  0
M  END
>  <i_m_ct_stereo_status>  (166) 
1

>  <s_m_source_file>  (166) 
/var/tmp/pbs.5076255.sched01/tmp0glzbzrw/400n8fk_jm.sdf

>  <i_m_source_file_index>  (166) 
29

>  <i_lp_mmshare_version>  (166) 
48012

>  <i_f3d_flags>  (166) 
0

>  <s_epik_input>  (166) 
W05IMl1bQ0BIXShbQ0gyXTEpW0NASF0oW09IXSlbQ0BIXShbQ0gyXVtPSF0pTjJDKD1PKWMoYzNbQ0BASF0xMilbY0hdW2NIXVtjSF1bY0hdMw==

>  <s_epik_cmdline>  (166) 
J2VwaWtfcHl0aG9uJywgJy1waHQnLCAnMi4wJywgJy1waCcsICc3LjAnLCAnLXRuJywgJzgnLCAnLW1hJywgJzIwMCcsICctaW1hZScsICc8aW5maWxlLm1hZT4nLCAnLW9tYWUnLCAnPG91dGZpbGUubWFlPic=

>  <r_epik_Ionization_Penalty>  (166) 
1.92135

>  <r_epik_Ionization_Penalty_Charging>  (166) 
0

>  <r_epik_Ionization_Penalty_Neutral>  (166) 
1.92135

>  <r_epik_State_Penalty>  (166) 
2.04416

>  <r_epik_Charging_Adjusted_Penalty>  (166) 
2.04416

>  <i_epik_Tot_Q>  (166) 
0

>  <i_epik_Tot_abs_Q>  (166) 
0

>  <s_lp_Force_Field>  (166) 
OPLS3e

>  <r_lp_Energy>  (166) 
22.577

>  <b_lp_Chiralities_Consistent>  (166) 
1

>  <s_lp_Variant>  (166) 
52:0-2

>  <s_i_glide_gridfile>  (166) 
pfpi4k_grid

>  <i_i_glide_lignum>  (166) 
29

>  <i_i_glide_rotatable_bonds>  (166) 
3

>  <r_i_docking_score>  (166) 
-3.44936

>  <r_i_glide_ligand_efficiency>  (166) 
-0.191631

>  <r_i_glide_ligand_efficiency_sa>  (166) 
-0.502216

>  <r_i_glide_ligand_efficiency_ln>  (166) 
-0.886641

>  <r_i_glide_gscore>  (166) 
-3.44936

>  <r_i_glide_lipo>  (166) 
-0.430992

>  <r_i_glide_hbond>  (166) 
-0.00373876

>  <r_i_glide_metal>  (166) 
-0

>  <r_i_glide_rewards>  (166) 
-2.21629

>  <r_i_glide_evdw>  (166) 
-16.6121

>  <r_i_glide_ecoul>  (166) 
-1.28464

>  <r_i_glide_erotb>  (166) 
0.283337

>  <r_i_glide_esite>  (166) 
-0.0583793

>  <r_i_glide_emodel>  (166) 
-27.5576

>  <r_i_glide_energy>  (166) 
-17.8967

>  <r_i_glide_einternal>  (166) 
0.353926

>  <r_i_glide_intrahb_reward>  (166) 
-0.5

>  <i_i_glide_confnum>  (166) 
3

>  <i_i_glide_posenum>  (166) 
2

>  <r_i_glide_eff_state_penalty>  (166) 
0

>  <ligand_id>  (166) 
52

>  <original_smiles>  (166) 
NC1CC2c3ccccc3C(=O)N2C(CO)C1O

>  <smiles>  (166) 
[H]OC([H])([H])C1([H])N2C(=O)c3c([H])c([H])c([H])c([H])c3C2([H])C([H])([H])C([H])(N([H])[H])C1([H])O[H]

$$$$
52:1:2
     RDKit          3D

 34 36  0  0  1  0  0  0  0  0999 V2000
    0.6711    1.3283    1.6867 N   0  0  0  0  0  0  0  0  0  0  0  0
    0.2647    0.4882    2.8329 C   0  0  2  0  0  0  0  0  0  0  0  0
   -0.4007    1.3378    3.9388 C   0  0  0  0  0  0  0  0  0  0  0  0
   -0.8040    0.4670    5.1457 C   0  0  2  0  0  0  0  0  0  0  0  0
   -1.1716    1.2387    6.3858 C   0  0  0  0  0  0  0  0  0  0  0  0
   -2.1943    2.1822    6.5916 C   0  0  0  0  0  0  0  0  0  0  0  0
   -2.3308    2.7236    7.8902 C   0  0  0  0  0  0  0  0  0  0  0  0
   -1.4647    2.3341    8.9380 C   0  0  0  0  0  0  0  0  0  0  0  0
   -0.4367    1.3932    8.7077 C   0  0  0  0  0  0  0  0  0  0  0  0
   -0.3272    0.8620    7.4131 C   0  0  0  0  0  0  0  0  0  0  0  0
    0.6517   -0.1297    6.9101 C   0  0  0  0  0  0  0  0  0  0  0  0
    1.5430   -0.6459    7.5804 O   0  0  0  0  0  0  0  0  0  0  0  0
    0.3500   -0.3257    5.6099 N   0  0  0  0  0  0  0  0  0  0  0  0
    1.0802   -1.1629    4.6523 C   0  0  1  0  0  0  0  0  0  0  0  0
    0.2432   -2.4266    4.3456 C   0  0  0  0  0  0  0  0  0  0  0  0
    1.0196   -3.4536    3.7691 O   0  0  0  0  0  0  0  0  0  0  0  0
    1.4607   -0.3009    3.4144 C   0  0  1  0  0  0  0  0  0  0  0  0
    1.9621   -1.1491    2.3982 O   0  0  0  0  0  0  0  0  0  0  0  0
    0.9562    0.7554    0.8895 H   0  0  0  0  0  0  0  0  0  0  0  0
   -0.1136    1.8857    1.3412 H   0  0  0  0  0  0  0  0  0  0  0  0
   -0.4774   -0.2337    2.4964 H   0  0  0  0  0  0  0  0  0  0  0  0
    0.2935    2.1126    4.2568 H   0  0  0  0  0  0  0  0  0  0  0  0
   -1.2754    1.8565    3.5483 H   0  0  0  0  0  0  0  0  0  0  0  0
   -1.6213   -0.2038    4.8713 H   0  0  0  0  0  0  0  0  0  0  0  0
   -2.8536    2.4778    5.7859 H   0  0  0  0  0  0  0  0  0  0  0  0
   -3.1097    3.4489    8.0905 H   0  0  0  0  0  0  0  0  0  0  0  0
   -1.5842    2.7636    9.9238 H   0  0  0  0  0  0  0  0  0  0  0  0
    0.2361    1.0869    9.4960 H   0  0  0  0  0  0  0  0  0  0  0  0
    2.0116   -1.5034    5.1110 H   0  0  0  0  0  0  0  0  0  0  0  0
   -0.1839   -2.8344    5.2636 H   0  0  0  0  0  0  0  0  0  0  0  0
   -0.5906   -2.1981    3.6840 H   0  0  0  0  0  0  0  0  0  0  0  0
    1.4597   -3.0721    3.0171 H   0  0  0  0  0  0  0  0  0  0  0  0
    2.2351    0.4100    3.7090 H   0  0  0  0  0  0  0  0  0  0  0  0
    2.0557   -0.6390    1.6025 H   0  0  0  0  0  0  0  0  0  0  0  0
  1  2  1  0
  1 19  1  0
  1 20  1  0
  2 17  1  0
  2  3  1  0
  2 21  1  6
  3  4  1  0
  3 22  1  0
  3 23  1  0
  4 13  1  0
  4  5  1  0
  4 24  1  6
  5 10  2  0
  5  6  1  0
  6  7  2  0
  6 25  1  0
  7  8  1  0
  7 26  1  0
  8  9  2  0
  8 27  1  0
  9 10  1  0
  9 28  1  0
 10 11  1  0
 11 12  2  0
 11 13  1  0
 13 14  1  0
 14 15  1  0
 14 17  1  0
 14 29  1  1
 15 16  1  0
 15 30  1  0
 15 31  1  0
 16 32  1  0
 17 18  1  0
 17 33  1  1
 18 34  1  0
M  END
>  <i_m_ct_stereo_status>  (167) 
1

>  <s_m_source_file>  (167) 
/var/tmp/pbs.5076255.sched01/tmp0glzbzrw/400n8fk_jm.sdf

>  <i_m_source_file_index>  (167) 
29

>  <i_lp_mmshare_version>  (167) 
48012

>  <i_f3d_flags>  (167) 
0

>  <s_epik_input>  (167) 
W05IMl1bQ0BIXShbQ0gyXTEpW0NASF0oW09IXSlbQ0BIXShbQ0gyXVtPSF0pTjJDKD1PKWMoYzNbQ0BASF0xMilbY0hdW2NIXVtjSF1bY0hdMw==

>  <s_epik_cmdline>  (167) 
J2VwaWtfcHl0aG9uJywgJy1waHQnLCAnMi4wJywgJy1waCcsICc3LjAnLCAnLXRuJywgJzgnLCAnLW1hJywgJzIwMCcsICctaW1hZScsICc8aW5maWxlLm1hZT4nLCAnLW9tYWUnLCAnPG91dGZpbGUubWFlPic=

>  <r_epik_Ionization_Penalty>  (167) 
1.92135

>  <r_epik_Ionization_Penalty_Charging>  (167) 
0

>  <r_epik_Ionization_Penalty_Neutral>  (167) 
1.92135

>  <r_epik_State_Penalty>  (167) 
2.04416

>  <r_epik_Charging_Adjusted_Penalty>  (167) 
2.04416

>  <i_epik_Tot_Q>  (167) 
0

>  <i_epik_Tot_abs_Q>  (167) 
0

>  <s_lp_Force_Field>  (167) 
OPLS3e

>  <r_lp_Energy>  (167) 
22.577

>  <b_lp_Chiralities_Consistent>  (167) 
1

>  <s_lp_Variant>  (167) 
52:0-2

>  <s_i_glide_gridfile>  (167) 
pfpi4k_grid

>  <i_i_glide_lignum>  (167) 
29

>  <i_i_glide_rotatable_bonds>  (167) 
3

>  <r_i_docking_score>  (167) 
-3.3119

>  <r_i_glide_ligand_efficiency>  (167) 
-0.183995

>  <r_i_glide_ligand_efficiency_sa>  (167) 
-0.482202

>  <r_i_glide_ligand_efficiency_ln>  (167) 
-0.851308

>  <r_i_glide_gscore>  (167) 
-3.3119

>  <r_i_glide_lipo>  (167) 
-0.155476

>  <r_i_glide_hbond>  (167) 
-0.0177241

>  <r_i_glide_metal>  (167) 
-0

>  <r_i_glide_rewards>  (167) 
-2.21629

>  <r_i_glide_evdw>  (167) 
-15.2883

>  <r_i_glide_ecoul>  (167) 
-2.7732

>  <r_i_glide_erotb>  (167) 
0.283337

>  <r_i_glide_esite>  (167) 
-0.025357

>  <r_i_glide_emodel>  (167) 
-27.1348

>  <r_i_glide_energy>  (167) 
-18.0615

>  <r_i_glide_einternal>  (167) 
0.855135

>  <r_i_glide_intrahb_reward>  (167) 
-0.5

>  <i_i_glide_confnum>  (167) 
4

>  <i_i_glide_posenum>  (167) 
1

>  <r_i_glide_eff_state_penalty>  (167) 
0

>  <ligand_id>  (167) 
52

>  <original_smiles>  (167) 
NC1CC2c3ccccc3C(=O)N2C(CO)C1O

>  <smiles>  (167) 
[H]OC([H])([H])C1([H])N2C(=O)c3c([H])c([H])c([H])c([H])c3C2([H])C([H])([H])C([H])(N([H])[H])C1([H])O[H]

$$$$
53:0:0
     RDKit          3D

 13 14  0  0  1  0  0  0  0  0999 V2000
    3.9779   -1.0799   -4.0227 C   0  0  0  0  0  0  0  0  0  0  0  0
    4.2120   -0.6424   -2.7114 C   0  0  0  0  0  0  0  0  0  0  0  0
    3.8178   -1.4583   -1.6350 C   0  0  0  0  0  0  0  0  0  0  0  0
    4.0028   -1.0915   -0.3497 N   0  0  0  0  0  0  0  0  0  0  0  0
    3.5977   -1.9180    0.6187 N   0  0  0  0  0  0  0  0  0  0  0  0
    3.0229   -3.0959    0.3424 N   0  0  0  0  0  0  0  0  0  0  0  0
    2.8208   -3.4997   -0.9153 N   0  0  0  0  0  0  0  0  0  0  0  0
    3.2110   -2.6997   -1.9276 C   0  0  0  0  0  0  0  0  0  0  0  0
    3.0370   -3.0488   -3.2817 C   0  0  0  0  0  0  0  0  0  0  0  0
    3.4298   -2.2715   -4.3128 N   0  0  0  0  0  0  0  0  0  0  0  0
    4.2760   -0.4705   -4.8616 H   0  0  0  0  0  0  0  0  0  0  0  0
    4.6623    0.3187   -2.5325 H   0  0  0  0  0  0  0  0  0  0  0  0
    2.5760   -3.9861   -3.5516 H   0  0  0  0  0  0  0  0  0  0  0  0
  1 10  2  0
  1  2  1  0
  1 11  1  0
  2  3  2  0
  2 12  1  0
  3  8  1  0
  3  4  1  0
  4  5  2  0
  5  6  1  0
  6  7  2  0
  7  8  1  0
  8  9  2  0
  9 10  1  0
  9 13  1  0
M  END
>  <i_m_ct_stereo_status>  (168) 
1

>  <s_m_source_file>  (168) 
/var/tmp/pbs.5076255.sched01/tmp0glzbzrw/400n8fk_jm.sdf

>  <i_m_source_file_index>  (168) 
30

>  <i_lp_mmshare_version>  (168) 
48012

>  <i_f3d_flags>  (168) 
0

>  <s_epik_input>  (168) 
W2NIXTFbY0hdbltjSF1jKGMxMilubm5uMg==

>  <s_epik_cmdline>  (168) 
J2VwaWtfcHl0aG9uJywgJy1waHQnLCAnMi4wJywgJy1waCcsICc3LjAnLCAnLXRuJywgJzgnLCAnLW1hJywgJzIwMCcsICctaW1hZScsICc8aW5maWxlLm1hZT4nLCAnLW9tYWUnLCAnPG91dGZpbGUubWFlPic=

>  <r_lp_tautomer_probability>  (168) 
1

>  <r_epik_Ionization_Penalty>  (168) 
2.14377e-10

>  <r_epik_Ionization_Penalty_Charging>  (168) 
0

>  <r_epik_Ionization_Penalty_Neutral>  (168) 
2.14377e-10

>  <r_epik_State_Penalty>  (168) 
-0

>  <r_epik_Charging_Adjusted_Penalty>  (168) 
0

>  <i_epik_Tot_Q>  (168) 
0

>  <i_epik_Tot_abs_Q>  (168) 
0

>  <s_lp_Force_Field>  (168) 
OPLS3e

>  <r_lp_Energy>  (168) 
23.1213

>  <b_lp_Chiralities_Consistent>  (168) 
1

>  <s_lp_Variant>  (168) 
53:0-1

>  <s_i_glide_gridfile>  (168) 
pfpi4k_grid

>  <i_i_glide_lignum>  (168) 
30

>  <i_i_glide_rotatable_bonds>  (168) 
0

>  <r_i_docking_score>  (168) 
-4.19775

>  <r_i_glide_ligand_efficiency>  (168) 
-0.419775

>  <r_i_glide_ligand_efficiency_sa>  (168) 
-0.904378

>  <r_i_glide_ligand_efficiency_ln>  (168) 
-1.27105

>  <r_i_glide_gscore>  (168) 
-4.19775

>  <r_i_glide_lipo>  (168) 
-0.331322

>  <r_i_glide_hbond>  (168) 
-0.32

>  <r_i_glide_metal>  (168) 
-0

>  <r_i_glide_rewards>  (168) 
-2.25

>  <r_i_glide_evdw>  (168) 
-17.2647

>  <r_i_glide_ecoul>  (168) 
-2.20302

>  <r_i_glide_erotb>  (168) 
0

>  <r_i_glide_esite>  (168) 
-0.102745

>  <r_i_glide_emodel>  (168) 
-24.4662

>  <r_i_glide_energy>  (168) 
-19.4677

>  <r_i_glide_einternal>  (168) 
0

>  <r_i_glide_intrahb_reward>  (168) 
-0

>  <i_i_glide_confnum>  (168) 
1

>  <i_i_glide_posenum>  (168) 
12

>  <r_i_glide_eff_state_penalty>  (168) 
0

>  <ligand_id>  (168) 
53

>  <original_smiles>  (168) 
c1cc2nnnnc2cn1

>  <smiles>  (168) 
[H]c1nc([H])c2nnnnc2c1[H]

$$$$
53:0:1
     RDKit          3D

 13 14  0  0  1  0  0  0  0  0999 V2000
    2.6204   -2.9217   -3.5283 C   0  0  0  0  0  0  0  0  0  0  0  0
    2.4474   -3.2784   -2.1813 C   0  0  0  0  0  0  0  0  0  0  0  0
    3.2426   -2.6566   -1.2016 C   0  0  0  0  0  0  0  0  0  0  0  0
    3.1307   -2.9542    0.1084 N   0  0  0  0  0  0  0  0  0  0  0  0
    3.9111   -2.3132    0.9840 N   0  0  0  0  0  0  0  0  0  0  0  0
    4.8003   -1.3916    0.5909 N   0  0  0  0  0  0  0  0  0  0  0  0
    4.9509   -1.0660   -0.6966 N   0  0  0  0  0  0  0  0  0  0  0  0
    4.1798   -1.6828   -1.6151 C   0  0  0  0  0  0  0  0  0  0  0  0
    4.2627   -1.3943   -2.9912 C   0  0  0  0  0  0  0  0  0  0  0  0
    3.5223   -2.0051   -3.9361 N   0  0  0  0  0  0  0  0  0  0  0  0
    2.0286   -3.3926   -4.3001 H   0  0  0  0  0  0  0  0  0  0  0  0
    1.7224   -4.0304   -1.9120 H   0  0  0  0  0  0  0  0  0  0  0  0
    4.9717   -0.6626   -3.3469 H   0  0  0  0  0  0  0  0  0  0  0  0
  1 10  2  0
  1  2  1  0
  1 11  1  0
  2  3  2  0
  2 12  1  0
  3  8  1  0
  3  4  1  0
  4  5  2  0
  5  6  1  0
  6  7  2  0
  7  8  1  0
  8  9  2  0
  9 10  1  0
  9 13  1  0
M  END
>  <i_m_ct_stereo_status>  (169) 
1

>  <s_m_source_file>  (169) 
/var/tmp/pbs.5076255.sched01/tmp0glzbzrw/400n8fk_jm.sdf

>  <i_m_source_file_index>  (169) 
30

>  <i_lp_mmshare_version>  (169) 
48012

>  <i_f3d_flags>  (169) 
0

>  <s_epik_input>  (169) 
W2NIXTFbY0hdbltjSF1jKGMxMilubm5uMg==

>  <s_epik_cmdline>  (169) 
J2VwaWtfcHl0aG9uJywgJy1waHQnLCAnMi4wJywgJy1waCcsICc3LjAnLCAnLXRuJywgJzgnLCAnLW1hJywgJzIwMCcsICctaW1hZScsICc8aW5maWxlLm1hZT4nLCAnLW9tYWUnLCAnPG91dGZpbGUubWFlPic=

>  <r_lp_tautomer_probability>  (169) 
1

>  <r_epik_Ionization_Penalty>  (169) 
2.14377e-10

>  <r_epik_Ionization_Penalty_Charging>  (169) 
0

>  <r_epik_Ionization_Penalty_Neutral>  (169) 
2.14377e-10

>  <r_epik_State_Penalty>  (169) 
-0

>  <r_epik_Charging_Adjusted_Penalty>  (169) 
0

>  <i_epik_Tot_Q>  (169) 
0

>  <i_epik_Tot_abs_Q>  (169) 
0

>  <s_lp_Force_Field>  (169) 
OPLS3e

>  <r_lp_Energy>  (169) 
23.1213

>  <b_lp_Chiralities_Consistent>  (169) 
1

>  <s_lp_Variant>  (169) 
53:0-1

>  <s_i_glide_gridfile>  (169) 
pfpi4k_grid

>  <i_i_glide_lignum>  (169) 
30

>  <i_i_glide_rotatable_bonds>  (169) 
0

>  <r_i_docking_score>  (169) 
-3.9315

>  <r_i_glide_ligand_efficiency>  (169) 
-0.39315

>  <r_i_glide_ligand_efficiency_sa>  (169) 
-0.847015

>  <r_i_glide_ligand_efficiency_ln>  (169) 
-1.19043

>  <r_i_glide_gscore>  (169) 
-3.9315

>  <r_i_glide_lipo>  (169) 
-0.356047

>  <r_i_glide_hbond>  (169) 
-0.0731037

>  <r_i_glide_metal>  (169) 
-0

>  <r_i_glide_rewards>  (169) 
-2.25

>  <r_i_glide_evdw>  (169) 
-16.9339

>  <r_i_glide_ecoul>  (169) 
-2.22975

>  <r_i_glide_erotb>  (169) 
0

>  <r_i_glide_esite>  (169) 
-0.0711882

>  <r_i_glide_emodel>  (169) 
-23.8463

>  <r_i_glide_energy>  (169) 
-19.1637

>  <r_i_glide_einternal>  (169) 
0

>  <r_i_glide_intrahb_reward>  (169) 
-0

>  <i_i_glide_confnum>  (169) 
1

>  <i_i_glide_posenum>  (169) 
23

>  <r_i_glide_eff_state_penalty>  (169) 
0

>  <ligand_id>  (169) 
53

>  <original_smiles>  (169) 
c1cc2nnnnc2cn1

>  <smiles>  (169) 
[H]c1nc([H])c2nnnnc2c1[H]

$$$$
53:0:2
     RDKit          3D

 13 14  0  0  1  0  0  0  0  0999 V2000
    4.9927   -1.3114   -1.7200 C   0  0  0  0  0  0  0  0  0  0  0  0
    3.7982   -1.9408   -1.3387 C   0  0  0  0  0  0  0  0  0  0  0  0
    3.8537   -3.2003   -0.7149 C   0  0  0  0  0  0  0  0  0  0  0  0
    2.7443   -3.8580   -0.3187 N   0  0  0  0  0  0  0  0  0  0  0  0
    2.8775   -5.0480    0.2725 N   0  0  0  0  0  0  0  0  0  0  0  0
    4.0798   -5.6001    0.4782 N   0  0  0  0  0  0  0  0  0  0  0  0
    5.2065   -4.9847    0.1055 N   0  0  0  0  0  0  0  0  0  0  0  0
    5.1232   -3.7812   -0.4950 C   0  0  0  0  0  0  0  0  0  0  0  0
    6.2614   -3.0641   -0.9174 C   0  0  0  0  0  0  0  0  0  0  0  0
    6.2110   -1.8568   -1.5169 N   0  0  0  0  0  0  0  0  0  0  0  0
    4.9714   -0.3431   -2.1998 H   0  0  0  0  0  0  0  0  0  0  0  0
    2.8477   -1.4604   -1.5206 H   0  0  0  0  0  0  0  0  0  0  0  0
    7.2503   -3.4755   -0.7683 H   0  0  0  0  0  0  0  0  0  0  0  0
  1 10  2  0
  1  2  1  0
  1 11  1  0
  2  3  2  0
  2 12  1  0
  3  8  1  0
  3  4  1  0
  4  5  2  0
  5  6  1  0
  6  7  2  0
  7  8  1  0
  8  9  2  0
  9 10  1  0
  9 13  1  0
M  END
>  <i_m_ct_stereo_status>  (170) 
1

>  <s_m_source_file>  (170) 
/var/tmp/pbs.5076255.sched01/tmp0glzbzrw/400n8fk_jm.sdf

>  <i_m_source_file_index>  (170) 
30

>  <i_lp_mmshare_version>  (170) 
48012

>  <i_f3d_flags>  (170) 
0

>  <s_epik_input>  (170) 
W2NIXTFbY0hdbltjSF1jKGMxMilubm5uMg==

>  <s_epik_cmdline>  (170) 
J2VwaWtfcHl0aG9uJywgJy1waHQnLCAnMi4wJywgJy1waCcsICc3LjAnLCAnLXRuJywgJzgnLCAnLW1hJywgJzIwMCcsICctaW1hZScsICc8aW5maWxlLm1hZT4nLCAnLW9tYWUnLCAnPG91dGZpbGUubWFlPic=

>  <r_lp_tautomer_probability>  (170) 
1

>  <r_epik_Ionization_Penalty>  (170) 
2.14377e-10

>  <r_epik_Ionization_Penalty_Charging>  (170) 
0

>  <r_epik_Ionization_Penalty_Neutral>  (170) 
2.14377e-10

>  <r_epik_State_Penalty>  (170) 
-0

>  <r_epik_Charging_Adjusted_Penalty>  (170) 
0

>  <i_epik_Tot_Q>  (170) 
0

>  <i_epik_Tot_abs_Q>  (170) 
0

>  <s_lp_Force_Field>  (170) 
OPLS3e

>  <r_lp_Energy>  (170) 
23.1213

>  <b_lp_Chiralities_Consistent>  (170) 
1

>  <s_lp_Variant>  (170) 
53:0-1

>  <s_i_glide_gridfile>  (170) 
pfpi4k_grid

>  <i_i_glide_lignum>  (170) 
30

>  <i_i_glide_rotatable_bonds>  (170) 
0

>  <r_i_docking_score>  (170) 
-3.74143

>  <r_i_glide_ligand_efficiency>  (170) 
-0.374143

>  <r_i_glide_ligand_efficiency_sa>  (170) 
-0.806067

>  <r_i_glide_ligand_efficiency_ln>  (170) 
-1.13288

>  <r_i_glide_gscore>  (170) 
-3.74143

>  <r_i_glide_lipo>  (170) 
-0.135771

>  <r_i_glide_hbond>  (170) 
-0.143566

>  <r_i_glide_metal>  (170) 
-0

>  <r_i_glide_rewards>  (170) 
-2.25

>  <r_i_glide_evdw>  (170) 
-13.9845

>  <r_i_glide_ecoul>  (170) 
-2.95055

>  <r_i_glide_erotb>  (170) 
0

>  <r_i_glide_esite>  (170) 
-0.0702877

>  <r_i_glide_emodel>  (170) 
-21.3914

>  <r_i_glide_energy>  (170) 
-16.9351

>  <r_i_glide_einternal>  (170) 
0

>  <r_i_glide_intrahb_reward>  (170) 
-0

>  <i_i_glide_confnum>  (170) 
2

>  <i_i_glide_posenum>  (170) 
34

>  <r_i_glide_eff_state_penalty>  (170) 
0

>  <ligand_id>  (170) 
53

>  <original_smiles>  (170) 
c1cc2nnnnc2cn1

>  <smiles>  (170) 
[H]c1nc([H])c2nnnnc2c1[H]

$$$$
55:0:0
     RDKit          3D

 54 59  0  0  1  0  0  0  0  0999 V2000
    2.3911   -3.0536   -2.6699 C   0  0  0  0  0  0  0  0  0  0  0  0
    3.3294   -2.2006   -1.7940 C   0  0  2  0  0  0  0  0  0  0  0  0
    4.3944   -1.5503   -2.6596 C   0  0  0  0  0  0  0  0  0  0  0  0
    4.1561   -0.7340   -3.5467 O   0  0  0  0  0  0  0  0  0  0  0  0
    5.5946   -1.9947   -2.3015 O   0  0  0  0  0  0  0  0  0  0  0  0
    5.5584   -3.0367   -1.3452 C   0  0  1  0  0  0  0  0  0  0  0  0
    6.5773   -2.9763   -0.1777 C   0  0  1  0  0  0  0  0  0  0  0  0
    7.4432   -1.8614   -0.2636 O   0  0  0  0  0  0  0  0  0  0  0  0
    5.7134   -2.9414    1.1116 C   0  0  2  0  0  0  0  0  0  0  0  0
    5.5069   -4.3501    1.8031 C   0  0  2  0  0  0  0  0  0  0  0  0
    5.7458   -5.6486    0.9711 C   0  0  1  0  0  0  0  0  0  0  0  0
    7.0281   -6.2009    1.2207 O   0  0  0  0  0  0  0  0  0  0  0  0
    4.4898   -6.5688    1.1207 C   0  0  1  0  0  0  0  0  0  0  0  0
    4.6639   -7.7662    2.0977 C   0  0  0  0  0  0  0  0  0  0  0  0
    5.6252   -8.5232    1.9759 O   0  0  0  0  0  0  0  0  0  0  0  0
    3.6804   -8.0222    3.0032 O   0  0  0  0  0  0  0  0  0  0  0  0
    2.6228   -7.1323    3.3219 C   0  0  0  0  0  0  0  0  0  0  0  0
    2.1687   -6.3286    2.1064 C   0  0  1  0  0  0  0  0  0  0  0  0
    1.1042   -5.4761    2.4805 O   0  0  0  0  0  0  0  0  0  0  0  0
    3.3538   -5.5627    1.4594 C   0  0  2  0  0  0  0  0  0  0  0  0
    2.8216   -4.9023    0.1504 C   0  0  0  0  0  0  0  0  0  0  0  0
    3.8308   -4.3536   -0.6933 O   0  0  0  0  0  0  0  0  0  0  0  0
    4.1475   -2.9587   -0.7279 C   0  0  2  0  0  0  0  0  0  0  0  0
    4.4065   -2.2336    0.6476 C   0  0  2  0  0  0  0  0  0  0  0  0
    4.6715   -0.7022    0.4792 C   0  0  0  0  0  0  0  0  0  0  0  0
    3.2366   -2.2632    1.6739 C   0  0  0  0  0  0  0  0  0  0  0  0
    3.4010   -3.2694    2.8110 C   0  0  0  0  0  0  0  0  0  0  0  0
    4.1000   -4.5681    2.4002 C   0  0  2  0  0  0  0  0  0  0  0  0
    1.8963   -2.4491   -3.4317 H   0  0  0  0  0  0  0  0  0  0  0  0
    1.6025   -3.5120   -2.0705 H   0  0  0  0  0  0  0  0  0  0  0  0
    2.9278   -3.8504   -3.1836 H   0  0  0  0  0  0  0  0  0  0  0  0
    2.7370   -1.4149   -1.3334 H   0  0  0  0  0  0  0  0  0  0  0  0
    5.6882   -3.9629   -1.9052 H   0  0  0  0  0  0  0  0  0  0  0  0
    7.2438   -3.8383   -0.2002 H   0  0  0  0  0  0  0  0  0  0  0  0
    8.0559   -1.9080    0.4562 H   0  0  0  0  0  0  0  0  0  0  0  0
    6.1983   -2.3125    1.8607 H   0  0  0  0  0  0  0  0  0  0  0  0
    6.2044   -4.3690    2.6424 H   0  0  0  0  0  0  0  0  0  0  0  0
    5.7950   -5.4460   -0.0909 H   0  0  0  0  0  0  0  0  0  0  0  0
    7.0615   -6.5425    2.1042 H   0  0  0  0  0  0  0  0  0  0  0  0
    4.2887   -7.0423    0.1627 H   0  0  0  0  0  0  0  0  0  0  0  0
    1.7880   -7.7176    3.7116 H   0  0  0  0  0  0  0  0  0  0  0  0
    2.9317   -6.4839    4.1437 H   0  0  0  0  0  0  0  0  0  0  0  0
    1.7670   -7.0345    1.3797 H   0  0  0  0  0  0  0  0  0  0  0  0
    1.4178   -4.8805    3.1438 H   0  0  0  0  0  0  0  0  0  0  0  0
    2.3646   -5.7012   -0.4310 H   0  0  0  0  0  0  0  0  0  0  0  0
    1.9998   -4.2081    0.3015 H   0  0  0  0  0  0  0  0  0  0  0  0
    3.7614   -0.1695    0.2021 H   0  0  0  0  0  0  0  0  0  0  0  0
    5.4137   -0.4422   -0.2692 H   0  0  0  0  0  0  0  0  0  0  0  0
    5.0200   -0.2601    1.4151 H   0  0  0  0  0  0  0  0  0  0  0  0
    3.1238   -1.2951    2.1683 H   0  0  0  0  0  0  0  0  0  0  0  0
    2.2817   -2.3708    1.1649 H   0  0  0  0  0  0  0  0  0  0  0  0
    4.0285   -2.8030    3.5706 H   0  0  0  0  0  0  0  0  0  0  0  0
    2.4463   -3.4532    3.2984 H   0  0  0  0  0  0  0  0  0  0  0  0
    4.2861   -5.0930    3.3362 H   0  0  0  0  0  0  0  0  0  0  0  0
  1  2  1  0
  1 29  1  0
  1 30  1  0
  1 31  1  0
  2 23  1  0
  2  3  1  0
  2 32  1  1
  3  4  2  0
  3  5  1  0
  5  6  1  0
  6 23  1  0
  6  7  1  0
  6 33  1  6
  7  8  1  0
  7  9  1  0
  7 34  1  1
  8 35  1  0
  9 24  1  0
  9 10  1  0
  9 36  1  1
 10 28  1  0
 10 11  1  0
 10 37  1  1
 11 12  1  0
 11 13  1  0
 11 38  1  6
 12 39  1  0
 13 20  1  0
 13 14  1  0
 13 40  1  6
 14 15  2  0
 14 16  1  0
 16 17  1  0
 17 18  1  0
 17 41  1  0
 17 42  1  0
 18 19  1  0
 18 20  1  0
 18 43  1  6
 19 44  1  0
 20 28  1  0
 20 21  1  6
 21 22  1  0
 21 45  1  0
 21 46  1  0
 23 22  1  1
 23 24  1  0
 24 25  1  6
 24 26  1  0
 25 47  1  0
 25 48  1  0
 25 49  1  0
 26 27  1  0
 26 50  1  0
 26 51  1  0
 27 28  1  0
 27 52  1  0
 27 53  1  0
 28 54  1  1
M  END
>  <i_m_ct_stereo_status>  (171) 
1

>  <s_m_source_file>  (171) 
/var/tmp/pbs.5076255.sched01/tmp0glzbzrw/400n8fk_jm.sdf

>  <i_m_source_file_index>  (171) 
32

>  <i_lp_mmshare_version>  (171) 
48012

>  <i_f3d_flags>  (171) 
0

>  <s_epik_input>  (171) 
W0NIM11bQ0BASF0xQyg9TylPW0NAQEhdKFtDQEhdMltPSF0pW0NAQF0xKE9bQ0gyXTMpW0NAQF0oW0NIM10pKFtDSDJdW0NIMl1bQ0BIXTQ1KVtDQEhdMltDQEBIXTRbQ0BASF0oW09IXSlbQ0BIXShbQ0BdMzU2KUMoPU8pT1tDSDJdW0NASF02W09IXQ==

>  <s_epik_cmdline>  (171) 
J2VwaWtfcHl0aG9uJywgJy1waHQnLCAnMi4wJywgJy1waCcsICc3LjAnLCAnLXRuJywgJzgnLCAnLW1hJywgJzIwMCcsICctaW1hZScsICc8aW5maWxlLm1hZT4nLCAnLW9tYWUnLCAnPG91dGZpbGUubWFlPic=

>  <r_lp_tautomer_probability>  (171) 
1

>  <r_epik_Ionization_Penalty>  (171) 
6.69646e-07

>  <r_epik_Ionization_Penalty_Charging>  (171) 
0

>  <r_epik_Ionization_Penalty_Neutral>  (171) 
6.69646e-07

>  <r_epik_State_Penalty>  (171) 
-0

>  <r_epik_Charging_Adjusted_Penalty>  (171) 
0

>  <i_epik_Tot_Q>  (171) 
0

>  <i_epik_Tot_abs_Q>  (171) 
0

>  <s_epik_Chemistry_Notes>  (171) 
This compound has an ester and may undergo hydrolysis at high or low pH.

>  <s_lp_Force_Field>  (171) 
OPLS3e

>  <r_lp_Energy>  (171) 
77.0572

>  <b_lp_Chiralities_Consistent>  (171) 
1

>  <s_lp_Variant>  (171) 
55:0-1

>  <s_i_glide_gridfile>  (171) 
pfpi4k_grid

>  <i_i_glide_lignum>  (171) 
32

>  <i_i_glide_rotatable_bonds>  (171) 
3

>  <r_i_docking_score>  (171) 
-3.75112

>  <r_i_glide_ligand_efficiency>  (171) 
-0.133969

>  <r_i_glide_ligand_efficiency_sa>  (171) 
-0.406807

>  <r_i_glide_ligand_efficiency_ln>  (171) 
-0.865868

>  <r_i_glide_gscore>  (171) 
-3.75112

>  <r_i_glide_lipo>  (171) 
-0.605436

>  <r_i_glide_hbond>  (171) 
-0.0296155

>  <r_i_glide_metal>  (171) 
-0

>  <r_i_glide_rewards>  (171) 
-0.739394

>  <r_i_glide_evdw>  (171) 
-31.3212

>  <r_i_glide_ecoul>  (171) 
-5.25145

>  <r_i_glide_erotb>  (171) 
0

>  <r_i_glide_esite>  (171) 
-0.0228985

>  <r_i_glide_emodel>  (171) 
-45.4006

>  <r_i_glide_energy>  (171) 
-36.5726

>  <r_i_glide_einternal>  (171) 
0.319761

>  <r_i_glide_intrahb_reward>  (171) 
-0

>  <i_i_glide_confnum>  (171) 
1

>  <i_i_glide_posenum>  (171) 
37

>  <r_i_glide_eff_state_penalty>  (171) 
0

>  <ligand_id>  (171) 
55

>  <original_smiles>  (171) 
CC1C(=O)OC2C(O)C3C4C(O)C5C(=O)OCC(O)C56COC12C3(C)CCC46

>  <smiles>  (171) 
[H]OC1([H])C2([H])C(=O)OC([H])([H])C([H])(O[H])C23C([H])([H])OC24C([H])(OC(=O)C2([H])C([H])([H])[H])C([H])(O[H])C2([H])C1([H])C3([H])C([H])([H])C([H])([H])C24C([H])([H])[H]

$$$$
55:0:1
     RDKit          3D

 54 59  0  0  1  0  0  0  0  0999 V2000
    2.3338   -3.0565   -2.6655 C   0  0  0  0  0  0  0  0  0  0  0  0
    3.2728   -2.2071   -1.7871 C   0  0  2  0  0  0  0  0  0  0  0  0
    4.3309   -1.5415   -2.6540 C   0  0  0  0  0  0  0  0  0  0  0  0
    4.0855   -0.7200   -3.5321 O   0  0  0  0  0  0  0  0  0  0  0  0
    5.5360   -1.9825   -2.3038 O   0  0  0  0  0  0  0  0  0  0  0  0
    5.5088   -3.0330   -1.3545 C   0  0  1  0  0  0  0  0  0  0  0  0
    6.5341   -2.9765   -0.1912 C   0  0  1  0  0  0  0  0  0  0  0  0
    7.4038   -1.8585   -0.2714 O   0  0  0  0  0  0  0  0  0  0  0  0
    5.6731   -2.9625    1.1026 C   0  0  2  0  0  0  0  0  0  0  0  0
    5.4747   -4.3804    1.7798 C   0  0  2  0  0  0  0  0  0  0  0  0
    5.7131   -5.6671    0.9322 C   0  0  1  0  0  0  0  0  0  0  0  0
    6.9821   -6.2349    1.2030 O   0  0  0  0  0  0  0  0  0  0  0  0
    4.4672   -6.5955    1.0887 C   0  0  1  0  0  0  0  0  0  0  0  0
    4.6508   -7.8081    2.0536 C   0  0  0  0  0  0  0  0  0  0  0  0
    5.5930   -8.5818    1.9072 O   0  0  0  0  0  0  0  0  0  0  0  0
    3.6731   -8.0715    2.9641 O   0  0  0  0  0  0  0  0  0  0  0  0
    2.6143   -7.1888    3.2951 C   0  0  0  0  0  0  0  0  0  0  0  0
    2.1491   -6.3766    2.0878 C   0  0  1  0  0  0  0  0  0  0  0  0
    1.0804   -5.5349    2.4777 O   0  0  0  0  0  0  0  0  0  0  0  0
    3.3264   -5.5986    1.4384 C   0  0  2  0  0  0  0  0  0  0  0  0
    2.7860   -4.9281    0.1361 C   0  0  0  0  0  0  0  0  0  0  0  0
    3.7868   -4.3659   -0.7052 O   0  0  0  0  0  0  0  0  0  0  0  0
    4.0989   -2.9696   -0.7285 C   0  0  2  0  0  0  0  0  0  0  0  0
    4.3600   -2.2554    0.6510 C   0  0  2  0  0  0  0  0  0  0  0  0
    4.6174   -0.7217    0.4926 C   0  0  0  0  0  0  0  0  0  0  0  0
    3.1955   -2.3021    1.6817 C   0  0  0  0  0  0  0  0  0  0  0  0
    3.3702   -3.3189    2.8063 C   0  0  0  0  0  0  0  0  0  0  0  0
    4.0727   -4.6107    2.3828 C   0  0  2  0  0  0  0  0  0  0  0  0
    1.8307   -2.4456   -3.4190 H   0  0  0  0  0  0  0  0  0  0  0  0
    1.5504   -3.5206   -2.0671 H   0  0  0  0  0  0  0  0  0  0  0  0
    2.8702   -3.8507   -3.1859 H   0  0  0  0  0  0  0  0  0  0  0  0
    2.6779   -1.4320   -1.3136 H   0  0  0  0  0  0  0  0  0  0  0  0
    5.6409   -3.9550   -1.9232 H   0  0  0  0  0  0  0  0  0  0  0  0
    7.2017   -3.8350   -0.2299 H   0  0  0  0  0  0  0  0  0  0  0  0
    8.0046   -1.8990    0.4592 H   0  0  0  0  0  0  0  0  0  0  0  0
    6.1572   -2.3390    1.8570 H   0  0  0  0  0  0  0  0  0  0  0  0
    6.1761   -4.4057    2.6164 H   0  0  0  0  0  0  0  0  0  0  0  0
    5.7623   -5.4564   -0.1299 H   0  0  0  0  0  0  0  0  0  0  0  0
    7.6569   -5.6016    1.0163 H   0  0  0  0  0  0  0  0  0  0  0  0
    4.2638   -7.0661    0.1282 H   0  0  0  0  0  0  0  0  0  0  0  0
    1.7849   -7.7845    3.6804 H   0  0  0  0  0  0  0  0  0  0  0  0
    2.9242   -6.5466    4.1198 H   0  0  0  0  0  0  0  0  0  0  0  0
    1.7430   -7.0786    1.3579 H   0  0  0  0  0  0  0  0  0  0  0  0
    1.3976   -4.9451    3.1466 H   0  0  0  0  0  0  0  0  0  0  0  0
    2.3314   -5.7218   -0.4522 H   0  0  0  0  0  0  0  0  0  0  0  0
    1.9598   -4.2448    0.2971 H   0  0  0  0  0  0  0  0  0  0  0  0
    3.7036   -0.1913    0.2257 H   0  0  0  0  0  0  0  0  0  0  0  0
    5.3544   -0.4512   -0.2577 H   0  0  0  0  0  0  0  0  0  0  0  0
    4.9689   -0.2839    1.4284 H   0  0  0  0  0  0  0  0  0  0  0  0
    3.0861   -1.3408    2.1900 H   0  0  0  0  0  0  0  0  0  0  0  0
    2.2383   -2.4065    1.1780 H   0  0  0  0  0  0  0  0  0  0  0  0
    3.9959   -2.8546    3.5676 H   0  0  0  0  0  0  0  0  0  0  0  0
    2.4195   -3.5096    3.2995 H   0  0  0  0  0  0  0  0  0  0  0  0
    4.2658   -5.1401    3.3148 H   0  0  0  0  0  0  0  0  0  0  0  0
  1  2  1  0
  1 29  1  0
  1 30  1  0
  1 31  1  0
  2 23  1  0
  2  3  1  0
  2 32  1  1
  3  4  2  0
  3  5  1  0
  5  6  1  0
  6 23  1  0
  6  7  1  0
  6 33  1  6
  7  8  1  0
  7  9  1  0
  7 34  1  1
  8 35  1  0
  9 24  1  0
  9 10  1  0
  9 36  1  1
 10 28  1  0
 10 11  1  0
 10 37  1  1
 11 12  1  0
 11 13  1  0
 11 38  1  6
 12 39  1  0
 13 20  1  0
 13 14  1  0
 13 40  1  6
 14 15  2  0
 14 16  1  0
 16 17  1  0
 17 18  1  0
 17 41  1  0
 17 42  1  0
 18 19  1  0
 18 20  1  0
 18 43  1  6
 19 44  1  0
 20 28  1  0
 20 21  1  6
 21 22  1  0
 21 45  1  0
 21 46  1  0
 23 22  1  1
 23 24  1  0
 24 25  1  6
 24 26  1  0
 25 47  1  0
 25 48  1  0
 25 49  1  0
 26 27  1  0
 26 50  1  0
 26 51  1  0
 27 28  1  0
 27 52  1  0
 27 53  1  0
 28 54  1  1
M  END
>  <i_m_ct_stereo_status>  (172) 
1

>  <s_m_source_file>  (172) 
/var/tmp/pbs.5076255.sched01/tmp0glzbzrw/400n8fk_jm.sdf

>  <i_m_source_file_index>  (172) 
32

>  <i_lp_mmshare_version>  (172) 
48012

>  <i_f3d_flags>  (172) 
0

>  <s_epik_input>  (172) 
W0NIM11bQ0BASF0xQyg9TylPW0NAQEhdKFtDQEhdMltPSF0pW0NAQF0xKE9bQ0gyXTMpW0NAQF0oW0NIM10pKFtDSDJdW0NIMl1bQ0BIXTQ1KVtDQEhdMltDQEBIXTRbQ0BASF0oW09IXSlbQ0BIXShbQ0BdMzU2KUMoPU8pT1tDSDJdW0NASF02W09IXQ==

>  <s_epik_cmdline>  (172) 
J2VwaWtfcHl0aG9uJywgJy1waHQnLCAnMi4wJywgJy1waCcsICc3LjAnLCAnLXRuJywgJzgnLCAnLW1hJywgJzIwMCcsICctaW1hZScsICc8aW5maWxlLm1hZT4nLCAnLW9tYWUnLCAnPG91dGZpbGUubWFlPic=

>  <r_lp_tautomer_probability>  (172) 
1

>  <r_epik_Ionization_Penalty>  (172) 
6.69646e-07

>  <r_epik_Ionization_Penalty_Charging>  (172) 
0

>  <r_epik_Ionization_Penalty_Neutral>  (172) 
6.69646e-07

>  <r_epik_State_Penalty>  (172) 
-0

>  <r_epik_Charging_Adjusted_Penalty>  (172) 
0

>  <i_epik_Tot_Q>  (172) 
0

>  <i_epik_Tot_abs_Q>  (172) 
0

>  <s_epik_Chemistry_Notes>  (172) 
This compound has an ester and may undergo hydrolysis at high or low pH.

>  <s_lp_Force_Field>  (172) 
OPLS3e

>  <r_lp_Energy>  (172) 
77.0572

>  <b_lp_Chiralities_Consistent>  (172) 
1

>  <s_lp_Variant>  (172) 
55:0-1

>  <s_i_glide_gridfile>  (172) 
pfpi4k_grid

>  <i_i_glide_lignum>  (172) 
32

>  <i_i_glide_rotatable_bonds>  (172) 
3

>  <r_i_docking_score>  (172) 
-3.73033

>  <r_i_glide_ligand_efficiency>  (172) 
-0.133226

>  <r_i_glide_ligand_efficiency_sa>  (172) 
-0.404553

>  <r_i_glide_ligand_efficiency_ln>  (172) 
-0.861069

>  <r_i_glide_gscore>  (172) 
-3.73033

>  <r_i_glide_lipo>  (172) 
-0.611249

>  <r_i_glide_hbond>  (172) 
-0.0299103

>  <r_i_glide_metal>  (172) 
-0

>  <r_i_glide_rewards>  (172) 
-0.74087

>  <r_i_glide_evdw>  (172) 
-31.3716

>  <r_i_glide_ecoul>  (172) 
-5.0374

>  <r_i_glide_erotb>  (172) 
0

>  <r_i_glide_esite>  (172) 
-0.0241078

>  <r_i_glide_emodel>  (172) 
-45.0266

>  <r_i_glide_energy>  (172) 
-36.409

>  <r_i_glide_einternal>  (172) 
0.6587

>  <r_i_glide_intrahb_reward>  (172) 
-0

>  <i_i_glide_confnum>  (172) 
2

>  <i_i_glide_posenum>  (172) 
10

>  <r_i_glide_eff_state_penalty>  (172) 
0

>  <ligand_id>  (172) 
55

>  <original_smiles>  (172) 
CC1C(=O)OC2C(O)C3C4C(O)C5C(=O)OCC(O)C56COC12C3(C)CCC46

>  <smiles>  (172) 
[H]OC1([H])C2([H])C(=O)OC([H])([H])C([H])(O[H])C23C([H])([H])OC24C([H])(OC(=O)C2([H])C([H])([H])[H])C([H])(O[H])C2([H])C1([H])C3([H])C([H])([H])C([H])([H])C24C([H])([H])[H]

$$$$
55:0:2
     RDKit          3D

 54 59  0  0  1  0  0  0  0  0999 V2000
    0.4555   -6.9790    1.0562 C   0  0  0  0  0  0  0  0  0  0  0  0
    1.6325   -7.2615    2.0082 C   0  0  2  0  0  0  0  0  0  0  0  0
    1.1001   -7.6248    3.3874 C   0  0  0  0  0  0  0  0  0  0  0  0
    0.4175   -8.6221    3.6077 O   0  0  0  0  0  0  0  0  0  0  0  0
    1.4831   -6.7107    4.2757 O   0  0  0  0  0  0  0  0  0  0  0  0
    2.1372   -5.5939    3.7026 C   0  0  1  0  0  0  0  0  0  0  0  0
    3.4065   -5.0574    4.4163 C   0  0  1  0  0  0  0  0  0  0  0  0
    3.7172   -5.7647    5.6018 O   0  0  0  0  0  0  0  0  0  0  0  0
    4.5374   -5.1604    3.3582 C   0  0  2  0  0  0  0  0  0  0  0  0
    4.8172   -3.8175    2.5671 C   0  0  2  0  0  0  0  0  0  0  0  0
    3.7194   -2.7084    2.5381 C   0  0  1  0  0  0  0  0  0  0  0  0
    4.0007   -1.6770    3.4700 O   0  0  0  0  0  0  0  0  0  0  0  0
    3.4825   -2.2916    1.0498 C   0  0  1  0  0  0  0  0  0  0  0  0
    4.1534   -0.9508    0.6229 C   0  0  0  0  0  0  0  0  0  0  0  0
    3.9591    0.0698    1.2809 O   0  0  0  0  0  0  0  0  0  0  0  0
    4.8410   -0.9107   -0.5495 O   0  0  0  0  0  0  0  0  0  0  0  0
    5.2153   -2.0467   -1.3072 C   0  0  0  0  0  0  0  0  0  0  0  0
    4.1818   -3.1636   -1.2120 C   0  0  1  0  0  0  0  0  0  0  0  0
    4.6450   -4.2358   -1.9975 O   0  0  0  0  0  0  0  0  0  0  0  0
    3.9059   -3.5605    0.2615 C   0  0  2  0  0  0  0  0  0  0  0  0
    2.7385   -4.5993    0.2520 C   0  0  0  0  0  0  0  0  0  0  0  0
    2.1883   -4.9039    1.5293 O   0  0  0  0  0  0  0  0  0  0  0  0
    2.5635   -6.0626    2.2898 C   0  0  2  0  0  0  0  0  0  0  0  0
    4.0970   -6.3680    2.4782 C   0  0  2  0  0  0  0  0  0  0  0  0
    4.3487   -7.7046    3.2547 C   0  0  0  0  0  0  0  0  0  0  0  0
    4.9253   -6.5721    1.1777 C   0  0  0  0  0  0  0  0  0  0  0  0
    5.7830   -5.3787    0.7672 C   0  0  0  0  0  0  0  0  0  0  0  0
    5.1546   -4.0185    1.0753 C   0  0  2  0  0  0  0  0  0  0  0  0
   -0.1834   -7.8540    0.9459 H   0  0  0  0  0  0  0  0  0  0  0  0
    0.8199   -6.7204    0.0637 H   0  0  0  0  0  0  0  0  0  0  0  0
   -0.1737   -6.1673    1.4171 H   0  0  0  0  0  0  0  0  0  0  0  0
    2.1978   -8.1033    1.6118 H   0  0  0  0  0  0  0  0  0  0  0  0
    1.3873   -4.8042    3.6394 H   0  0  0  0  0  0  0  0  0  0  0  0
    3.2585   -4.0341    4.7563 H   0  0  0  0  0  0  0  0  0  0  0  0
    3.8420   -6.6738    5.3889 H   0  0  0  0  0  0  0  0  0  0  0  0
    5.4763   -5.4131    3.8548 H   0  0  0  0  0  0  0  0  0  0  0  0
    5.7067   -3.3849    3.0325 H   0  0  0  0  0  0  0  0  0  0  0  0
    2.7592   -3.0759    2.8766 H   0  0  0  0  0  0  0  0  0  0  0  0
    3.3263   -1.0187    3.3992 H   0  0  0  0  0  0  0  0  0  0  0  0
    2.4207   -2.1051    0.9042 H   0  0  0  0  0  0  0  0  0  0  0  0
    5.3360   -1.7421   -2.3467 H   0  0  0  0  0  0  0  0  0  0  0  0
    6.2007   -2.3819   -0.9860 H   0  0  0  0  0  0  0  0  0  0  0  0
    3.2583   -2.7981   -1.6625 H   0  0  0  0  0  0  0  0  0  0  0  0
    3.9428   -4.8683   -2.1500 H   0  0  0  0  0  0  0  0  0  0  0  0
    1.9109   -4.1439   -0.2935 H   0  0  0  0  0  0  0  0  0  0  0  0
    2.9583   -5.4963   -0.3206 H   0  0  0  0  0  0  0  0  0  0  0  0
    4.1044   -8.5755    2.6455 H   0  0  0  0  0  0  0  0  0  0  0  0
    3.7874   -7.8204    4.1756 H   0  0  0  0  0  0  0  0  0  0  0  0
    5.4013   -7.8036    3.5277 H   0  0  0  0  0  0  0  0  0  0  0  0
    5.6285   -7.4011    1.2869 H   0  0  0  0  0  0  0  0  0  0  0  0
    4.2898   -6.9131    0.3642 H   0  0  0  0  0  0  0  0  0  0  0  0
    6.7147   -5.4356    1.3329 H   0  0  0  0  0  0  0  0  0  0  0  0
    6.0725   -5.4576   -0.2778 H   0  0  0  0  0  0  0  0  0  0  0  0
    5.9486   -3.2994    0.8833 H   0  0  0  0  0  0  0  0  0  0  0  0
  1  2  1  0
  1 29  1  0
  1 30  1  0
  1 31  1  0
  2 23  1  0
  2  3  1  0
  2 32  1  6
  3  4  2  0
  3  5  1  0
  5  6  1  0
  6 23  1  0
  6  7  1  0
  6 33  1  6
  7  8  1  0
  7  9  1  0
  7 34  1  1
  8 35  1  0
  9 24  1  0
  9 10  1  0
  9 36  1  1
 10 28  1  0
 10 11  1  0
 10 37  1  1
 11 12  1  0
 11 13  1  0
 11 38  1  1
 12 39  1  0
 13 20  1  0
 13 14  1  0
 13 40  1  1
 14 15  2  0
 14 16  1  0
 16 17  1  0
 17 18  1  0
 17 41  1  0
 17 42  1  0
 18 19  1  0
 18 20  1  0
 18 43  1  6
 19 44  1  0
 20 28  1  0
 20 21  1  6
 21 22  1  0
 21 45  1  0
 21 46  1  0
 23 22  1  6
 23 24  1  0
 24 25  1  1
 24 26  1  0
 25 47  1  0
 25 48  1  0
 25 49  1  0
 26 27  1  0
 26 50  1  0
 26 51  1  0
 27 28  1  0
 27 52  1  0
 27 53  1  0
 28 54  1  6
M  END
>  <i_m_ct_stereo_status>  (173) 
1

>  <s_m_source_file>  (173) 
/var/tmp/pbs.5076255.sched01/tmp0glzbzrw/400n8fk_jm.sdf

>  <i_m_source_file_index>  (173) 
32

>  <i_lp_mmshare_version>  (173) 
48012

>  <i_f3d_flags>  (173) 
0

>  <s_epik_input>  (173) 
W0NIM11bQ0BASF0xQyg9TylPW0NAQEhdKFtDQEhdMltPSF0pW0NAQF0xKE9bQ0gyXTMpW0NAQF0oW0NIM10pKFtDSDJdW0NIMl1bQ0BIXTQ1KVtDQEhdMltDQEBIXTRbQ0BASF0oW09IXSlbQ0BIXShbQ0BdMzU2KUMoPU8pT1tDSDJdW0NASF02W09IXQ==

>  <s_epik_cmdline>  (173) 
J2VwaWtfcHl0aG9uJywgJy1waHQnLCAnMi4wJywgJy1waCcsICc3LjAnLCAnLXRuJywgJzgnLCAnLW1hJywgJzIwMCcsICctaW1hZScsICc8aW5maWxlLm1hZT4nLCAnLW9tYWUnLCAnPG91dGZpbGUubWFlPic=

>  <r_lp_tautomer_probability>  (173) 
1

>  <r_epik_Ionization_Penalty>  (173) 
6.69646e-07

>  <r_epik_Ionization_Penalty_Charging>  (173) 
0

>  <r_epik_Ionization_Penalty_Neutral>  (173) 
6.69646e-07

>  <r_epik_State_Penalty>  (173) 
-0

>  <r_epik_Charging_Adjusted_Penalty>  (173) 
0

>  <i_epik_Tot_Q>  (173) 
0

>  <i_epik_Tot_abs_Q>  (173) 
0

>  <s_epik_Chemistry_Notes>  (173) 
This compound has an ester and may undergo hydrolysis at high or low pH.

>  <s_lp_Force_Field>  (173) 
OPLS3e

>  <r_lp_Energy>  (173) 
77.0572

>  <b_lp_Chiralities_Consistent>  (173) 
1

>  <s_lp_Variant>  (173) 
55:0-1

>  <s_i_glide_gridfile>  (173) 
pfpi4k_grid

>  <i_i_glide_lignum>  (173) 
32

>  <i_i_glide_rotatable_bonds>  (173) 
3

>  <r_i_docking_score>  (173) 
-3.4598

>  <r_i_glide_ligand_efficiency>  (173) 
-0.123564

>  <r_i_glide_ligand_efficiency_sa>  (173) 
-0.375214

>  <r_i_glide_ligand_efficiency_ln>  (173) 
-0.798624

>  <r_i_glide_gscore>  (173) 
-3.4598

>  <r_i_glide_lipo>  (173) 
-0.275657

>  <r_i_glide_hbond>  (173) 
-0.324574

>  <r_i_glide_metal>  (173) 
-0

>  <r_i_glide_rewards>  (173) 
-0.743964

>  <r_i_glide_evdw>  (173) 
-26.0086

>  <r_i_glide_ecoul>  (173) 
-5.31991

>  <r_i_glide_erotb>  (173) 
0

>  <r_i_glide_esite>  (173) 
-0.0171948

>  <r_i_glide_emodel>  (173) 
-39.2266

>  <r_i_glide_energy>  (173) 
-31.3285

>  <r_i_glide_einternal>  (173) 
0.725

>  <r_i_glide_intrahb_reward>  (173) 
-0

>  <i_i_glide_confnum>  (173) 
2

>  <i_i_glide_posenum>  (173) 
35

>  <r_i_glide_eff_state_penalty>  (173) 
0

>  <ligand_id>  (173) 
55

>  <original_smiles>  (173) 
CC1C(=O)OC2C(O)C3C4C(O)C5C(=O)OCC(O)C56COC12C3(C)CCC46

>  <smiles>  (173) 
[H]OC1([H])C2([H])C(=O)OC([H])([H])C([H])(O[H])C23C([H])([H])OC24C([H])(OC(=O)C2([H])C([H])([H])[H])C([H])(O[H])C2([H])C1([H])C3([H])C([H])([H])C([H])([H])C24C([H])([H])[H]

$$$$
56:0:0
     RDKit          3D

 75 83  0  0  1  0  0  0  0  0999 V2000
   -3.2868    3.0462    3.2018 C   0  0  0  0  0  0  0  0  0  0  0  0
   -2.1492    3.6164    4.0769 C   0  0  2  0  0  0  0  0  0  0  0  0
   -1.7691    4.8044    3.4018 O   0  0  0  0  0  0  0  0  0  0  0  0
   -0.9324    2.6232    4.3483 C   0  0  1  0  0  0  0  0  0  0  0  0
   -0.4046    2.3499    2.9293 C   0  0  0  0  0  0  0  0  0  0  0  0
    0.4426    1.3638    2.6104 C   0  0  0  0  0  0  0  0  0  0  0  0
    1.0435    0.5691    3.7256 C   0  0  1  0  0  0  0  0  0  0  0  0
   -0.0670    0.2896    4.8683 C   0  0  1  0  0  0  0  0  0  0  0  0
    0.5892    0.3745    6.2091 C   0  0  0  0  0  0  0  0  0  0  0  0
    0.7906    1.8587    6.4789 C   0  0  0  0  0  0  0  0  0  0  0  0
    0.2147    2.9767    5.4304 C   0  0  2  0  0  0  0  0  0  0  0  0
    0.0600    4.3283    6.1431 C   0  0  1  0  0  0  0  0  0  0  0  0
   -0.9168    4.0444    7.3683 C   0  0  0  0  0  0  0  0  0  0  0  0
   -2.0812    2.9409    7.1642 C   0  0  0  0  0  0  0  0  0  0  0  0
   -2.0255    1.5561    6.3539 C   0  0  0  0  0  0  0  0  0  0  0  0
   -2.5655    0.5763    6.8257 O   0  0  0  0  0  0  0  0  0  0  0  0
   -1.3481    1.3014    4.9362 C   0  0  1  0  0  0  0  0  0  0  0  0
    1.4158    5.3923    5.9673 C   0  0  1  0  0  0  0  0  0  0  0  0
    0.9855    5.1638    4.6221 O   0  0  0  0  0  0  0  0  0  0  0  0
    1.4360    5.5885    3.3288 C   0  0  0  0  0  0  0  0  0  0  0  0
    2.8748    5.2007    3.2105 C   0  0  1  0  0  0  0  0  0  0  0  0
    3.4051    5.9954    4.3867 C   0  0  0  0  0  0  0  0  0  0  0  0
    2.9271    5.3505    5.5872 N   0  0  0  0  0  0  0  0  0  0  0  0
    3.5522    4.0437    5.6668 C   0  0  1  0  0  0  0  0  0  0  0  0
    3.0572    3.6390    6.8381 O   0  0  0  0  0  0  0  0  0  0  0  0
    2.0387    4.5350    7.2085 C   0  0  1  0  0  0  0  0  0  0  0  0
    2.5156    5.4498    8.1803 O   0  0  0  0  0  0  0  0  0  0  0  0
    3.3488    3.1434    4.3973 C   0  0  0  0  0  0  0  0  0  0  0  0
    3.5644    1.5807    4.5193 C   0  0  0  0  0  0  0  0  0  0  0  0
    2.6478    0.4493    3.7652 C   0  0  2  0  0  0  0  0  0  0  0  0
    3.2053    0.2083    2.3028 C   0  0  0  0  0  0  0  0  0  0  0  0
    4.1039   -0.9518    2.5081 C   0  0  0  0  0  0  0  0  0  0  0  0
    3.8843   -1.4683    3.7649 C   0  0  0  0  0  0  0  0  0  0  0  0
    4.5014   -2.5454    4.2335 N   0  0  0  0  0  0  0  0  0  0  0  0
    5.3574   -3.1123    3.3784 C   0  0  0  0  0  0  0  0  0  0  0  0
    5.6608   -2.6905    2.1457 N   0  0  0  0  0  0  0  0  0  0  0  0
    5.0432   -1.5935    1.6930 C   0  0  0  0  0  0  0  0  0  0  0  0
    5.3711   -1.1563    0.4016 N   0  0  0  0  0  0  0  0  0  0  0  0
    2.9568   -0.7697    4.4775 O   0  0  0  0  0  0  0  0  0  0  0  0
    3.0103    3.7254    3.3007 N   0  0  0  0  0  0  0  0  0  0  0  0
    5.9434   -1.7453   -0.1834 H   0  0  0  0  0  0  0  0  0  0  0  0
   -3.7651    2.1955    3.6751 H   0  0  0  0  0  0  0  0  0  0  0  0
   -2.9755    2.7379    2.2045 H   0  0  0  0  0  0  0  0  0  0  0  0
   -4.0760    3.7735    3.0257 H   0  0  0  0  0  0  0  0  0  0  0  0
   -2.6262    3.9453    4.9878 H   0  0  0  0  0  0  0  0  0  0  0  0
   -1.1727    4.5758    2.6941 H   0  0  0  0  0  0  0  0  0  0  0  0
   -0.8207    2.9238    2.1188 H   0  0  0  0  0  0  0  0  0  0  0  0
    0.7229    1.1745    1.5878 H   0  0  0  0  0  0  0  0  0  0  0  0
    1.3986    1.4506    4.1036 H   0  0  0  0  0  0  0  0  0  0  0  0
   -0.4197   -0.7317    4.7235 H   0  0  0  0  0  0  0  0  0  0  0  0
   -0.0402   -0.0712    6.9786 H   0  0  0  0  0  0  0  0  0  0  0  0
    1.5152   -0.1901    6.2732 H   0  0  0  0  0  0  0  0  0  0  0  0
    0.5086    2.0122    7.5155 H   0  0  0  0  0  0  0  0  0  0  0  0
    1.8582    1.8821    6.5062 H   0  0  0  0  0  0  0  0  0  0  0  0
    1.0100    3.1155    4.7844 H   0  0  0  0  0  0  0  0  0  0  0  0
   -0.7190    4.9009    5.6501 H   0  0  0  0  0  0  0  0  0  0  0  0
   -0.4413    3.7671    8.3056 H   0  0  0  0  0  0  0  0  0  0  0  0
   -1.3858    4.9870    7.6430 H   0  0  0  0  0  0  0  0  0  0  0  0
   -2.3193    2.6229    8.1773 H   0  0  0  0  0  0  0  0  0  0  0  0
   -3.0003    3.4489    6.8908 H   0  0  0  0  0  0  0  0  0  0  0  0
   -2.1201    0.8697    4.3065 H   0  0  0  0  0  0  0  0  0  0  0  0
    0.9099    5.0145    2.5823 H   0  0  0  0  0  0  0  0  0  0  0  0
    1.2697    6.6394    3.1278 H   0  0  0  0  0  0  0  0  0  0  0  0
    3.3175    5.5572    2.2772 H   0  0  0  0  0  0  0  0  0  0  0  0
    4.4938    5.9946    4.3756 H   0  0  0  0  0  0  0  0  0  0  0  0
    3.0934    7.0436    4.3432 H   0  0  0  0  0  0  0  0  0  0  0  0
    4.6209    4.1811    5.8070 H   0  0  0  0  0  0  0  0  0  0  0  0
    1.4501    3.8868    7.8337 H   0  0  0  0  0  0  0  0  0  0  0  0
    3.0335    6.0971    7.7099 H   0  0  0  0  0  0  0  0  0  0  0  0
    4.5795    1.4156    4.1689 H   0  0  0  0  0  0  0  0  0  0  0  0
    2.4457   -0.1432    1.6021 H   0  0  0  0  0  0  0  0  0  0  0  0
    3.7062    1.0655    1.8611 H   0  0  0  0  0  0  0  0  0  0  0  0
    5.8609   -3.9878    3.7413 H   0  0  0  0  0  0  0  0  0  0  0  0
    4.8652   -0.4074   -0.0514 H   0  0  0  0  0  0  0  0  0  0  0  0
    3.6420    1.3348    5.5739 H   0  0  0  0  0  0  0  0  0  0  0  0
  1  2  1  0
  1 42  1  0
  1 43  1  0
  1 44  1  0
  2  3  1  0
  2  4  1  0
  2 45  1  1
  3 46  1  0
  4 11  1  0
  4 17  1  0
  4  5  1  6
  5  6  2  0
  5 47  1  0
  6  7  1  0
  6 48  1  0
  7 30  1  0
  7  8  1  0
  7 49  1  6
  8 17  1  0
  8  9  1  0
  8 50  1  6
  9 10  1  0
  9 51  1  0
  9 52  1  0
 10 11  1  0
 10 53  1  0
 10 54  1  0
 11 12  1  0
 11 55  1  6
 12 13  1  0
 12 18  1  0
 12 56  1  6
 13 14  1  0
 13 57  1  0
 13 58  1  0
 14 15  1  0
 14 59  1  0
 14 60  1  0
 15 16  2  0
 15 17  1  0
 17 61  1  6
 18 23  1  0
 18 26  1  0
 18 19  1  1
 19 20  1  0
 20 21  1  0
 20 62  1  0
 20 63  1  0
 21 40  1  0
 21 22  1  0
 21 64  1  6
 22 23  1  0
 22 65  1  0
 22 66  1  0
 23 24  1  0
 24 25  1  0
 24 28  1  0
 24 67  1  1
 25 26  1  0
 26 27  1  0
 26 68  1  1
 27 69  1  0
 28 29  1  0
 28 40  2  0
 29 30  1  0
 29 70  1  0
 29 75  1  0
 30 31  1  0
 30 39  1  1
 31 71  1  0
 31 72  1  0
 31 32  1  0
 32 37  1  0
 32 33  2  0
 33 34  1  0
 33 39  1  0
 34 35  2  0
 35 36  1  0
 35 73  1  0
 36 37  2  0
 37 38  1  0
 38 74  1  0
 38 41  1  0
M  END
>  <i_m_ct_stereo_status>  (174) 
1

>  <s_m_source_file>  (174) 
/var/tmp/pbs.5076255.sched01/tmp0glzbzrw/400n8fk_jm.sdf

>  <i_m_source_file_index>  (174) 
33

>  <i_lp_mmshare_version>  (174) 
48012

>  <i_f3d_flags>  (174) 
0

>  <s_epik_input>  (174) 
TzFbQ0gyXVtDQEhdKFtOSF0yKVtDSDJdTjNbQ0BASF0oT1tDQEhdNFtPSF0pL0MyPVtDSF0vW0NAQF01KFtDSF0oW0NIXT1bQ0hdNilbQ0BASF0oW0NIMl1bQ0gyXTcpW0NIXShbQ0BAXTYoW0NASF0oW0NIM10pW09IXSlbQ0BIXTdbQ0BASF04W0NAQF0xMzQpQyg9TylbQ0gyXVtDSDJdOClbQ0gyXWM5YyhPNSluW2NIXVtuSF1jXDk9TlxbSF0=

>  <s_epik_cmdline>  (174) 
J2VwaWtfcHl0aG9uJywgJy1waHQnLCAnMi4wJywgJy1waCcsICc3LjAnLCAnLXRuJywgJzgnLCAnLW1hJywgJzIwMCcsICctaW1hZScsICc8aW5maWxlLm1hZT4nLCAnLW9tYWUnLCAnPG91dGZpbGUubWFlPic=

>  <r_lp_tautomer_probability>  (174) 
0.999984

>  <r_epik_Ionization_Penalty>  (174) 
0.0119864

>  <r_epik_Ionization_Penalty_Charging>  (174) 
0

>  <r_epik_Ionization_Penalty_Neutral>  (174) 
0.0119864

>  <r_epik_State_Penalty>  (174) 
0.0010236

>  <r_epik_Charging_Adjusted_Penalty>  (174) 
0.0010236

>  <i_epik_Tot_Q>  (174) 
0

>  <i_epik_Tot_abs_Q>  (174) 
0

>  <s_epik_Chemistry_Notes>  (174) 
This compound has an imine and may undergo hydrolysis. This compound contains an acetal/aminal-like group ( X-CH(R)-Y where X, Y are N, S, or O) that may be acid/base labile, releasing an aldehyde.

>  <s_lp_Force_Field>  (174) 
OPLS3e

>  <r_lp_Energy>  (174) 
413.444

>  <b_lp_Chiralities_Consistent>  (174) 
1

>  <s_lp_Variant>  (174) 
56:0-1

>  <s_i_glide_gridfile>  (174) 
pfpi4k_grid

>  <i_i_glide_lignum>  (174) 
33

>  <i_i_glide_rotatable_bonds>  (174) 
3

>  <r_i_docking_score>  (174) 
-3.43586

>  <r_i_glide_ligand_efficiency>  (174) 
-0.0858965

>  <r_i_glide_ligand_efficiency_sa>  (174) 
-0.293762

>  <r_i_glide_ligand_efficiency_ln>  (174) 
-0.732767

>  <r_i_glide_gscore>  (174) 
-3.43586

>  <r_i_glide_lipo>  (174) 
-0.269912

>  <r_i_glide_hbond>  (174) 
-0.16

>  <r_i_glide_metal>  (174) 
-0

>  <r_i_glide_rewards>  (174) 
-0.0541106

>  <r_i_glide_evdw>  (174) 
-25.863

>  <r_i_glide_ecoul>  (174) 
-11.2259

>  <r_i_glide_erotb>  (174) 
0.0686194

>  <r_i_glide_esite>  (174) 
-0.0434231

>  <r_i_glide_emodel>  (174) 
-46.5111

>  <r_i_glide_energy>  (174) 
-37.0888

>  <r_i_glide_einternal>  (174) 
0.407065

>  <r_i_glide_intrahb_reward>  (174) 
-0

>  <i_i_glide_confnum>  (174) 
1

>  <i_i_glide_posenum>  (174) 
24

>  <r_i_glide_eff_state_penalty>  (174) 
0

>  <ligand_id>  (174) 
56

>  <original_smiles>  (174) 
CC(O)C12C=CC3C4CCC1C(CCC(=O)C42)C12OCC4CN1C(OC2O)C(=CC31Cc2c(nc[nH]c2=N)O1)N4

>  <smiles>  (174) 
[H]OC1([H])OC2([H])C3=NC4([H])C([H])([H])OC1(N2C4([H])[H])C1([H])C([H])([H])C([H])([H])C(=O)C2([H])C4([H])C([H])([H])C([H])([H])C1([H])C2(C([H])(O[H])C([H])([H])[H])C([H])=C([H])C4([H])C1(Oc2nc([H])nc(N([H])[H])c2C1([H])[H])C3([H])[H]

$$$$
56:0:1
     RDKit          3D

 75 83  0  0  1  0  0  0  0  0999 V2000
   -0.1797   -9.1457    6.8648 C   0  0  0  0  0  0  0  0  0  0  0  0
    1.0671   -9.5462    6.0518 C   0  0  2  0  0  0  0  0  0  0  0  0
    2.0436   -9.8518    7.0266 O   0  0  0  0  0  0  0  0  0  0  0  0
    1.5430   -8.4899    4.9464 C   0  0  1  0  0  0  0  0  0  0  0  0
    1.8822   -7.2371    5.7856 C   0  0  0  0  0  0  0  0  0  0  0  0
    2.0801   -6.0199    5.2631 C   0  0  0  0  0  0  0  0  0  0  0  0
    2.1183   -5.8737    3.7725 C   0  0  1  0  0  0  0  0  0  0  0  0
    0.9872   -6.8225    3.0979 C   0  0  1  0  0  0  0  0  0  0  0  0
    1.5329   -7.4146    1.8372 C   0  0  0  0  0  0  0  0  0  0  0  0
    2.5080   -8.4974    2.2755 C   0  0  0  0  0  0  0  0  0  0  0  0
    2.6659   -8.8779    3.8571 C   0  0  2  0  0  0  0  0  0  0  0  0
    3.2628  -10.2776    4.0268 C   0  0  1  0  0  0  0  0  0  0  0  0
    2.2490  -11.2239    3.2454 C   0  0  0  0  0  0  0  0  0  0  0  0
    0.6621  -10.8570    3.2443 C   0  0  0  0  0  0  0  0  0  0  0  0
   -0.0584   -9.4172    3.2127 C   0  0  0  0  0  0  0  0  0  0  0  0
   -1.0909   -9.3129    2.5500 O   0  0  0  0  0  0  0  0  0  0  0  0
    0.4459   -8.0989    3.9727 C   0  0  1  0  0  0  0  0  0  0  0  0
    4.9751  -10.3213    4.1991 C   0  0  1  0  0  0  0  0  0  0  0  0
    4.5319   -9.5373    5.3218 O   0  0  0  0  0  0  0  0  0  0  0  0
    5.1835   -8.8375    6.3863 C   0  0  0  0  0  0  0  0  0  0  0  0
    6.2227   -7.9083    5.7925 C   0  0  1  0  0  0  0  0  0  0  0  0
    7.0420   -8.9596    5.0585 C   0  0  0  0  0  0  0  0  0  0  0  0
    6.2230   -9.4356    3.9664 N   0  0  0  0  0  0  0  0  0  0  0  0
    6.0511   -8.3495    3.0285 C   0  0  1  0  0  0  0  0  0  0  0  0
    5.3662   -8.9624    2.0631 O   0  0  0  0  0  0  0  0  0  0  0  0
    5.0018  -10.2273    2.5723 C   0  0  1  0  0  0  0  0  0  0  0  0
    5.8227  -11.2848    2.0767 O   0  0  0  0  0  0  0  0  0  0  0  0
    5.4588   -7.0349    3.6695 C   0  0  0  0  0  0  0  0  0  0  0  0
    4.7641   -5.9535    2.7445 C   0  0  0  0  0  0  0  0  0  0  0  0
    3.3920   -5.1329    3.1261 C   0  0  2  0  0  0  0  0  0  0  0  0
    3.7776   -3.8605    3.9794 C   0  0  0  0  0  0  0  0  0  0  0  0
    3.8954   -2.8113    2.9359 C   0  0  0  0  0  0  0  0  0  0  0  0
    3.3876   -3.3039    1.7629 C   0  0  0  0  0  0  0  0  0  0  0  0
    3.3063   -2.5913    0.6286 N   0  0  0  0  0  0  0  0  0  0  0  0
    3.7607   -1.3355    0.7299 C   0  0  0  0  0  0  0  0  0  0  0  0
    4.2878   -0.7503    1.8219 N   0  0  0  0  0  0  0  0  0  0  0  0
    4.3530   -1.4809    2.9506 C   0  0  0  0  0  0  0  0  0  0  0  0
    4.8737   -0.8675    4.0896 N   0  0  0  0  0  0  0  0  0  0  0  0
    2.9496   -4.5923    1.8579 O   0  0  0  0  0  0  0  0  0  0  0  0
    5.6129   -6.8499    4.9319 N   0  0  0  0  0  0  0  0  0  0  0  0
    5.1183    0.1162    4.0704 H   0  0  0  0  0  0  0  0  0  0  0  0
   -1.0483   -9.0807    6.2125 H   0  0  0  0  0  0  0  0  0  0  0  0
   -0.0708   -8.1948    7.3894 H   0  0  0  0  0  0  0  0  0  0  0  0
   -0.3994   -9.8970    7.6272 H   0  0  0  0  0  0  0  0  0  0  0  0
    0.8347  -10.5210    5.6528 H   0  0  0  0  0  0  0  0  0  0  0  0
    1.8917  -10.7668    7.2797 H   0  0  0  0  0  0  0  0  0  0  0  0
    1.8900   -7.3420    6.8612 H   0  0  0  0  0  0  0  0  0  0  0  0
    2.2545   -5.1581    5.8876 H   0  0  0  0  0  0  0  0  0  0  0  0
    2.8847   -6.5493    3.7651 H   0  0  0  0  0  0  0  0  0  0  0  0
    0.1410   -6.1893    2.8438 H   0  0  0  0  0  0  0  0  0  0  0  0
    0.7355   -7.8379    1.2266 H   0  0  0  0  0  0  0  0  0  0  0  0
    1.9986   -6.6737    1.1922 H   0  0  0  0  0  0  0  0  0  0  0  0
    2.3043   -9.3415    1.6212 H   0  0  0  0  0  0  0  0  0  0  0  0
    3.4139   -8.0892    1.8962 H   0  0  0  0  0  0  0  0  0  0  0  0
    3.4393   -8.2456    4.1524 H   0  0  0  0  0  0  0  0  0  0  0  0
    2.9393  -10.7241    4.9617 H   0  0  0  0  0  0  0  0  0  0  0  0
    2.5020  -11.3876    2.2047 H   0  0  0  0  0  0  0  0  0  0  0  0
    2.3483  -12.2386    3.6323 H   0  0  0  0  0  0  0  0  0  0  0  0
    0.2580  -11.3551    2.3615 H   0  0  0  0  0  0  0  0  0  0  0  0
    0.1793  -11.4225    4.0367 H   0  0  0  0  0  0  0  0  0  0  0  0
   -0.4139   -7.7515    4.5389 H   0  0  0  0  0  0  0  0  0  0  0  0
    4.4234   -8.2566    6.9050 H   0  0  0  0  0  0  0  0  0  0  0  0
    5.6138   -9.5321    7.1109 H   0  0  0  0  0  0  0  0  0  0  0  0
    6.8187   -7.4527    6.5832 H   0  0  0  0  0  0  0  0  0  0  0  0
    7.9520   -8.5101    4.6666 H   0  0  0  0  0  0  0  0  0  0  0  0
    7.3421   -9.7917    5.7032 H   0  0  0  0  0  0  0  0  0  0  0  0
    7.0208   -8.0930    2.6048 H   0  0  0  0  0  0  0  0  0  0  0  0
    4.1284  -10.3761    1.9741 H   0  0  0  0  0  0  0  0  0  0  0  0
    5.2890  -11.7220    1.3951 H   0  0  0  0  0  0  0  0  0  0  0  0
    5.5261   -5.1969    2.5754 H   0  0  0  0  0  0  0  0  0  0  0  0
    2.9729   -3.5260    4.6370 H   0  0  0  0  0  0  0  0  0  0  0  0
    4.6792   -3.9793    4.5800 H   0  0  0  0  0  0  0  0  0  0  0  0
    3.7072   -0.7321   -0.1621 H   0  0  0  0  0  0  0  0  0  0  0  0
    4.9147   -1.3413    4.9791 H   0  0  0  0  0  0  0  0  0  0  0  0
    4.6470   -6.3875    1.7525 H   0  0  0  0  0  0  0  0  0  0  0  0
  1  2  1  0
  1 42  1  0
  1 43  1  0
  1 44  1  0
  2  3  1  0
  2  4  1  0
  2 45  1  6
  3 46  1  0
  4 11  1  0
  4 17  1  0
  4  5  1  1
  5  6  2  0
  5 47  1  0
  6  7  1  0
  6 48  1  0
  7 30  1  0
  7  8  1  0
  7 49  1  1
  8 17  1  0
  8  9  1  0
  8 50  1  6
  9 10  1  0
  9 51  1  0
  9 52  1  0
 10 11  1  0
 10 53  1  0
 10 54  1  0
 11 12  1  0
 11 55  1  1
 12 13  1  0
 12 18  1  0
 12 56  1  1
 13 14  1  0
 13 57  1  0
 13 58  1  0
 14 15  1  0
 14 59  1  0
 14 60  1  0
 15 16  2  0
 15 17  1  0
 17 61  1  1
 18 23  1  0
 18 26  1  0
 18 19  1  6
 19 20  1  0
 20 21  1  0
 20 62  1  0
 20 63  1  0
 21 40  1  0
 21 22  1  0
 21 64  1  1
 22 23  1  0
 22 65  1  0
 22 66  1  0
 23 24  1  0
 24 25  1  0
 24 28  1  0
 24 67  1  6
 25 26  1  0
 26 27  1  0
 26 68  1  6
 27 69  1  0
 28 29  1  0
 28 40  2  0
 29 30  1  0
 29 70  1  0
 29 75  1  0
 30 31  1  0
 30 39  1  6
 31 71  1  0
 31 72  1  0
 31 32  1  0
 32 37  1  0
 32 33  2  0
 33 34  1  0
 33 39  1  0
 34 35  2  0
 35 36  1  0
 35 73  1  0
 36 37  2  0
 37 38  1  0
 38 74  1  0
 38 41  1  0
M  END
>  <i_m_ct_stereo_status>  (175) 
1

>  <s_m_source_file>  (175) 
/var/tmp/pbs.5076255.sched01/tmp0glzbzrw/400n8fk_jm.sdf

>  <i_m_source_file_index>  (175) 
33

>  <i_lp_mmshare_version>  (175) 
48012

>  <i_f3d_flags>  (175) 
0

>  <s_epik_input>  (175) 
TzFbQ0gyXVtDQEhdKFtOSF0yKVtDSDJdTjNbQ0BASF0oT1tDQEhdNFtPSF0pL0MyPVtDSF0vW0NAQF01KFtDSF0oW0NIXT1bQ0hdNilbQ0BASF0oW0NIMl1bQ0gyXTcpW0NIXShbQ0BAXTYoW0NASF0oW0NIM10pW09IXSlbQ0BIXTdbQ0BASF04W0NAQF0xMzQpQyg9TylbQ0gyXVtDSDJdOClbQ0gyXWM5YyhPNSluW2NIXVtuSF1jXDk9TlxbSF0=

>  <s_epik_cmdline>  (175) 
J2VwaWtfcHl0aG9uJywgJy1waHQnLCAnMi4wJywgJy1waCcsICc3LjAnLCAnLXRuJywgJzgnLCAnLW1hJywgJzIwMCcsICctaW1hZScsICc8aW5maWxlLm1hZT4nLCAnLW9tYWUnLCAnPG91dGZpbGUubWFlPic=

>  <r_lp_tautomer_probability>  (175) 
0.999984

>  <r_epik_Ionization_Penalty>  (175) 
0.0119864

>  <r_epik_Ionization_Penalty_Charging>  (175) 
0

>  <r_epik_Ionization_Penalty_Neutral>  (175) 
0.0119864

>  <r_epik_State_Penalty>  (175) 
0.0010236

>  <r_epik_Charging_Adjusted_Penalty>  (175) 
0.0010236

>  <i_epik_Tot_Q>  (175) 
0

>  <i_epik_Tot_abs_Q>  (175) 
0

>  <s_epik_Chemistry_Notes>  (175) 
This compound has an imine and may undergo hydrolysis. This compound contains an acetal/aminal-like group ( X-CH(R)-Y where X, Y are N, S, or O) that may be acid/base labile, releasing an aldehyde.

>  <s_lp_Force_Field>  (175) 
OPLS3e

>  <r_lp_Energy>  (175) 
413.444

>  <b_lp_Chiralities_Consistent>  (175) 
1

>  <s_lp_Variant>  (175) 
56:0-1

>  <s_i_glide_gridfile>  (175) 
pfpi4k_grid

>  <i_i_glide_lignum>  (175) 
33

>  <i_i_glide_rotatable_bonds>  (175) 
3

>  <r_i_docking_score>  (175) 
-3.35708

>  <r_i_glide_ligand_efficiency>  (175) 
-0.0839269

>  <r_i_glide_ligand_efficiency_sa>  (175) 
-0.287026

>  <r_i_glide_ligand_efficiency_ln>  (175) 
-0.715966

>  <r_i_glide_gscore>  (175) 
-3.35708

>  <r_i_glide_lipo>  (175) 
-0.17595

>  <r_i_glide_hbond>  (175) 
0

>  <r_i_glide_metal>  (175) 
-0

>  <r_i_glide_rewards>  (175) 
-0.0137003

>  <r_i_glide_evdw>  (175) 
-31.7499

>  <r_i_glide_ecoul>  (175) 
-10.0914

>  <r_i_glide_erotb>  (175) 
0.0686194

>  <r_i_glide_esite>  (175) 
-0.134841

>  <r_i_glide_emodel>  (175) 
-50.0122

>  <r_i_glide_energy>  (175) 
-41.8413

>  <r_i_glide_einternal>  (175) 
2.31801

>  <r_i_glide_intrahb_reward>  (175) 
-0

>  <i_i_glide_confnum>  (175) 
3

>  <i_i_glide_posenum>  (175) 
1

>  <r_i_glide_eff_state_penalty>  (175) 
0

>  <ligand_id>  (175) 
56

>  <original_smiles>  (175) 
CC(O)C12C=CC3C4CCC1C(CCC(=O)C42)C12OCC4CN1C(OC2O)C(=CC31Cc2c(nc[nH]c2=N)O1)N4

>  <smiles>  (175) 
[H]OC1([H])OC2([H])C3=NC4([H])C([H])([H])OC1(N2C4([H])[H])C1([H])C([H])([H])C([H])([H])C(=O)C2([H])C4([H])C([H])([H])C([H])([H])C1([H])C2(C([H])(O[H])C([H])([H])[H])C([H])=C([H])C4([H])C1(Oc2nc([H])nc(N([H])[H])c2C1([H])[H])C3([H])[H]

$$$$
56:0:2
     RDKit          3D

 75 83  0  0  1  0  0  0  0  0999 V2000
    0.9469   -7.3121    6.7913 C   0  0  0  0  0  0  0  0  0  0  0  0
    2.0598   -8.0064    5.9747 C   0  0  2  0  0  0  0  0  0  0  0  0
    3.1898   -8.0457    6.8266 O   0  0  0  0  0  0  0  0  0  0  0  0
    2.3927   -7.3411    4.5618 C   0  0  1  0  0  0  0  0  0  0  0  0
    2.9799   -5.9622    4.9474 C   0  0  0  0  0  0  0  0  0  0  0  0
    3.1758   -4.9630    4.0802 C   0  0  0  0  0  0  0  0  0  0  0  0
    2.9397   -5.2258    2.6240 C   0  0  1  0  0  0  0  0  0  0  0  0
    1.6253   -6.1641    2.4435 C   0  0  1  0  0  0  0  0  0  0  0  0
    1.8715   -7.1268    1.3315 C   0  0  0  0  0  0  0  0  0  0  0  0
    2.8314   -8.1712    1.8818 C   0  0  0  0  0  0  0  0  0  0  0  0
    3.2584   -8.1470    3.4605 C   0  0  2  0  0  0  0  0  0  0  0  0
    3.7613   -9.5214    3.9099 C   0  0  1  0  0  0  0  0  0  0  0  0
    2.5405  -10.5082    3.5885 C   0  0  0  0  0  0  0  0  0  0  0  0
    1.0223   -9.9498    3.7627 C   0  0  0  0  0  0  0  0  0  0  0  0
    0.4297   -8.4877    3.4427 C   0  0  0  0  0  0  0  0  0  0  0  0
   -0.7080   -8.4241    2.9731 O   0  0  0  0  0  0  0  0  0  0  0  0
    1.1652   -7.0891    3.7110 C   0  0  1  0  0  0  0  0  0  0  0  0
    5.4744   -9.7249    3.8024 C   0  0  1  0  0  0  0  0  0  0  0  0
    5.3188   -8.6285    4.7256 O   0  0  0  0  0  0  0  0  0  0  0  0
    6.2163   -7.7593    5.4237 C   0  0  0  0  0  0  0  0  0  0  0  0
    7.1924   -7.1622    4.4290 C   0  0  1  0  0  0  0  0  0  0  0  0
    7.7727   -8.4626    3.8905 C   0  0  0  0  0  0  0  0  0  0  0  0
    6.7178   -9.0920    3.1304 N   0  0  0  0  0  0  0  0  0  0  0  0
    6.4583   -8.2804    1.9694 C   0  0  1  0  0  0  0  0  0  0  0  0
    5.5530   -9.0305    1.3433 O   0  0  0  0  0  0  0  0  0  0  0  0
    5.1861  -10.0544    2.2331 C   0  0  1  0  0  0  0  0  0  0  0  0
    5.8163  -11.2811    1.9230 O   0  0  0  0  0  0  0  0  0  0  0  0
    6.1032   -6.7769    2.3005 C   0  0  0  0  0  0  0  0  0  0  0  0
    5.3230   -5.9017    1.2322 C   0  0  0  0  0  0  0  0  0  0  0  0
    4.1173   -4.8435    1.5919 C   0  0  2  0  0  0  0  0  0  0  0  0
    4.7556   -3.4533    1.9778 C   0  0  0  0  0  0  0  0  0  0  0  0
    4.7474   -2.7371    0.6727 C   0  0  0  0  0  0  0  0  0  0  0  0
    3.9823   -3.4515   -0.2147 C   0  0  0  0  0  0  0  0  0  0  0  0
    3.7382   -3.0524   -1.4716 N   0  0  0  0  0  0  0  0  0  0  0  0
    4.3105   -1.8914   -1.8076 C   0  0  0  0  0  0  0  0  0  0  0  0
    5.0909   -1.1166   -1.0351 N   0  0  0  0  0  0  0  0  0  0  0  0
    5.2970   -1.5229    0.2371 C   0  0  0  0  0  0  0  0  0  0  0  0
    6.0550   -0.7010    1.0571 N   0  0  0  0  0  0  0  0  0  0  0  0
    3.4829   -4.6041    0.3138 O   0  0  0  0  0  0  0  0  0  0  0  0
    6.5071   -6.2929    3.4198 N   0  0  0  0  0  0  0  0  0  0  0  0
    6.4098    0.1895    0.7281 H   0  0  0  0  0  0  0  0  0  0  0  0
   -0.0202   -7.3788    6.2938 H   0  0  0  0  0  0  0  0  0  0  0  0
    1.1545   -6.2578    6.9776 H   0  0  0  0  0  0  0  0  0  0  0  0
    0.8268   -7.7864    7.7668 H   0  0  0  0  0  0  0  0  0  0  0  0
    1.7633   -9.0427    5.9142 H   0  0  0  0  0  0  0  0  0  0  0  0
    3.0701   -8.7529    7.4444 H   0  0  0  0  0  0  0  0  0  0  0  0
    3.1733   -5.7653    5.9908 H   0  0  0  0  0  0  0  0  0  0  0  0
    3.5357   -4.0002    4.4013 H   0  0  0  0  0  0  0  0  0  0  0  0
    3.6361   -5.9726    2.6826 H   0  0  0  0  0  0  0  0  0  0  0  0
    0.7988   -5.5154    2.1650 H   0  0  0  0  0  0  0  0  0  0  0  0
    0.9445   -7.5922    0.9942 H   0  0  0  0  0  0  0  0  0  0  0  0
    2.2671   -6.6351    0.4502 H   0  0  0  0  0  0  0  0  0  0  0  0
    2.4409   -9.1222    1.5349 H   0  0  0  0  0  0  0  0  0  0  0  0
    3.6756   -7.9963    1.2526 H   0  0  0  0  0  0  0  0  0  0  0  0
    4.1246   -7.5673    3.4369 H   0  0  0  0  0  0  0  0  0  0  0  0
    3.5959   -9.6533    4.9757 H   0  0  0  0  0  0  0  0  0  0  0  0
    2.5437  -10.9774    2.6057 H   0  0  0  0  0  0  0  0  0  0  0  0
    2.6427  -11.3815    4.2324 H   0  0  0  0  0  0  0  0  0  0  0  0
    0.4186  -10.6095    3.1395 H   0  0  0  0  0  0  0  0  0  0  0  0
    0.6686  -10.2166    4.7549 H   0  0  0  0  0  0  0  0  0  0  0  0
    0.4658   -6.4931    4.2906 H   0  0  0  0  0  0  0  0  0  0  0  0
    5.6210   -6.9688    5.8765 H   0  0  0  0  0  0  0  0  0  0  0  0
    6.7245   -8.2848    6.2295 H   0  0  0  0  0  0  0  0  0  0  0  0
    7.9615   -6.5855    4.9468 H   0  0  0  0  0  0  0  0  0  0  0  0
    8.6253   -8.2499    3.2460 H   0  0  0  0  0  0  0  0  0  0  0  0
    8.1270   -9.1223    4.6856 H   0  0  0  0  0  0  0  0  0  0  0  0
    7.3441   -8.2733    1.3359 H   0  0  0  0  0  0  0  0  0  0  0  0
    4.2069  -10.2683    1.8585 H   0  0  0  0  0  0  0  0  0  0  0  0
    5.2644  -11.7131    1.2550 H   0  0  0  0  0  0  0  0  0  0  0  0
    6.0964   -5.3225    0.7338 H   0  0  0  0  0  0  0  0  0  0  0  0
    4.1208   -2.8617    2.6367 H   0  0  0  0  0  0  0  0  0  0  0  0
    5.7441   -3.5248    2.4282 H   0  0  0  0  0  0  0  0  0  0  0  0
    4.1304   -1.5394   -2.8112 H   0  0  0  0  0  0  0  0  0  0  0  0
    6.2532   -0.9403    2.0214 H   0  0  0  0  0  0  0  0  0  0  0  0
    4.9840   -6.5646    0.4413 H   0  0  0  0  0  0  0  0  0  0  0  0
  1  2  1  0
  1 42  1  0
  1 43  1  0
  1 44  1  0
  2  3  1  0
  2  4  1  0
  2 45  1  6
  3 46  1  0
  4 11  1  0
  4 17  1  0
  4  5  1  1
  5  6  2  0
  5 47  1  0
  6  7  1  0
  6 48  1  0
  7 30  1  0
  7  8  1  0
  7 49  1  6
  8 17  1  0
  8  9  1  0
  8 50  1  6
  9 10  1  0
  9 51  1  0
  9 52  1  0
 10 11  1  0
 10 53  1  0
 10 54  1  0
 11 12  1  0
 11 55  1  6
 12 13  1  0
 12 18  1  0
 12 56  1  1
 13 14  1  0
 13 57  1  0
 13 58  1  0
 14 15  1  0
 14 59  1  0
 14 60  1  0
 15 16  2  0
 15 17  1  0
 17 61  1  1
 18 23  1  0
 18 26  1  0
 18 19  1  1
 19 20  1  0
 20 21  1  0
 20 62  1  0
 20 63  1  0
 21 40  1  0
 21 22  1  0
 21 64  1  1
 22 23  1  0
 22 65  1  0
 22 66  1  0
 23 24  1  0
 24 25  1  0
 24 28  1  0
 24 67  1  6
 25 26  1  0
 26 27  1  0
 26 68  1  1
 27 69  1  0
 28 29  1  0
 28 40  2  0
 29 30  1  0
 29 70  1  0
 29 75  1  0
 30 31  1  0
 30 39  1  6
 31 71  1  0
 31 72  1  0
 31 32  1  0
 32 37  1  0
 32 33  2  0
 33 34  1  0
 33 39  1  0
 34 35  2  0
 35 36  1  0
 35 73  1  0
 36 37  2  0
 37 38  1  0
 38 74  1  0
 38 41  1  0
M  END
>  <i_m_ct_stereo_status>  (176) 
1

>  <s_m_source_file>  (176) 
/var/tmp/pbs.5076255.sched01/tmp0glzbzrw/400n8fk_jm.sdf

>  <i_m_source_file_index>  (176) 
33

>  <i_lp_mmshare_version>  (176) 
48012

>  <i_f3d_flags>  (176) 
0

>  <s_epik_input>  (176) 
TzFbQ0gyXVtDQEhdKFtOSF0yKVtDSDJdTjNbQ0BASF0oT1tDQEhdNFtPSF0pL0MyPVtDSF0vW0NAQF01KFtDSF0oW0NIXT1bQ0hdNilbQ0BASF0oW0NIMl1bQ0gyXTcpW0NIXShbQ0BAXTYoW0NASF0oW0NIM10pW09IXSlbQ0BIXTdbQ0BASF04W0NAQF0xMzQpQyg9TylbQ0gyXVtDSDJdOClbQ0gyXWM5YyhPNSluW2NIXVtuSF1jXDk9TlxbSF0=

>  <s_epik_cmdline>  (176) 
J2VwaWtfcHl0aG9uJywgJy1waHQnLCAnMi4wJywgJy1waCcsICc3LjAnLCAnLXRuJywgJzgnLCAnLW1hJywgJzIwMCcsICctaW1hZScsICc8aW5maWxlLm1hZT4nLCAnLW9tYWUnLCAnPG91dGZpbGUubWFlPic=

>  <r_lp_tautomer_probability>  (176) 
0.999984

>  <r_epik_Ionization_Penalty>  (176) 
0.0119864

>  <r_epik_Ionization_Penalty_Charging>  (176) 
0

>  <r_epik_Ionization_Penalty_Neutral>  (176) 
0.0119864

>  <r_epik_State_Penalty>  (176) 
0.0010236

>  <r_epik_Charging_Adjusted_Penalty>  (176) 
0.0010236

>  <i_epik_Tot_Q>  (176) 
0

>  <i_epik_Tot_abs_Q>  (176) 
0

>  <s_epik_Chemistry_Notes>  (176) 
This compound has an imine and may undergo hydrolysis. This compound contains an acetal/aminal-like group ( X-CH(R)-Y where X, Y are N, S, or O) that may be acid/base labile, releasing an aldehyde.

>  <s_lp_Force_Field>  (176) 
OPLS3e

>  <r_lp_Energy>  (176) 
413.444

>  <b_lp_Chiralities_Consistent>  (176) 
1

>  <s_lp_Variant>  (176) 
56:0-1

>  <s_i_glide_gridfile>  (176) 
pfpi4k_grid

>  <i_i_glide_lignum>  (176) 
33

>  <i_i_glide_rotatable_bonds>  (176) 
3

>  <r_i_docking_score>  (176) 
-3.27094

>  <r_i_glide_ligand_efficiency>  (176) 
-0.0817736

>  <r_i_glide_ligand_efficiency_sa>  (176) 
-0.279662

>  <r_i_glide_ligand_efficiency_ln>  (176) 
-0.697596

>  <r_i_glide_gscore>  (176) 
-3.27094

>  <r_i_glide_lipo>  (176) 
-0.210225

>  <r_i_glide_hbond>  (176) 
-0.113862

>  <r_i_glide_metal>  (176) 
-0

>  <r_i_glide_rewards>  (176) 
-0.159009

>  <r_i_glide_evdw>  (176) 
-33.944

>  <r_i_glide_ecoul>  (176) 
-6.92142

>  <r_i_glide_erotb>  (176) 
0.0686194

>  <r_i_glide_esite>  (176) 
-0.121055

>  <r_i_glide_emodel>  (176) 
-49.4716

>  <r_i_glide_energy>  (176) 
-40.8654

>  <r_i_glide_einternal>  (176) 
1.49007

>  <r_i_glide_intrahb_reward>  (176) 
-0

>  <i_i_glide_confnum>  (176) 
3

>  <i_i_glide_posenum>  (176) 
26

>  <r_i_glide_eff_state_penalty>  (176) 
0

>  <ligand_id>  (176) 
56

>  <original_smiles>  (176) 
CC(O)C12C=CC3C4CCC1C(CCC(=O)C42)C12OCC4CN1C(OC2O)C(=CC31Cc2c(nc[nH]c2=N)O1)N4

>  <smiles>  (176) 
[H]OC1([H])OC2([H])C3=NC4([H])C([H])([H])OC1(N2C4([H])[H])C1([H])C([H])([H])C([H])([H])C(=O)C2([H])C4([H])C([H])([H])C([H])([H])C1([H])C2(C([H])(O[H])C([H])([H])[H])C([H])=C([H])C4([H])C1(Oc2nc([H])nc(N([H])[H])c2C1([H])[H])C3([H])[H]

$$$$
56:1:0
     RDKit          3D

 75 83  0  0  1  0  0  0  0  0999 V2000
    0.9468   -6.8179    6.9571 C   0  0  0  0  0  0  0  0  0  0  0  0
    1.9937   -7.5546    6.0839 C   0  0  2  0  0  0  0  0  0  0  0  0
    3.1986   -7.4523    6.8215 O   0  0  0  0  0  0  0  0  0  0  0  0
    2.1492   -7.0178    4.5777 C   0  0  1  0  0  0  0  0  0  0  0  0
    2.6393   -5.5676    4.8031 C   0  0  0  0  0  0  0  0  0  0  0  0
    2.6866   -4.6263    3.8578 C   0  0  0  0  0  0  0  0  0  0  0  0
    2.3975   -5.0243    2.4482 C   0  0  1  0  0  0  0  0  0  0  0  0
    1.1565   -6.0719    2.4290 C   0  0  1  0  0  0  0  0  0  0  0  0
    1.4566   -7.0593    1.3256 C   0  0  0  0  0  0  0  0  0  0  0  0
    2.4464   -8.0577    1.9309 C   0  0  0  0  0  0  0  0  0  0  0  0
    2.9806   -7.8573    3.4713 C   0  0  2  0  0  0  0  0  0  0  0  0
    3.5834   -9.1513    4.0115 C   0  0  1  0  0  0  0  0  0  0  0  0
    2.3976  -10.2228    3.8916 C   0  0  0  0  0  0  0  0  0  0  0  0
    0.8537   -9.7686    4.1723 C   0  0  0  0  0  0  0  0  0  0  0  0
    0.1224   -8.3258    4.0521 C   0  0  0  0  0  0  0  0  0  0  0  0
   -1.0992   -8.2795    4.2254 O   0  0  0  0  0  0  0  0  0  0  0  0
    0.8503   -6.9405    3.8017 C   0  0  2  0  0  0  0  0  0  0  0  0
    5.2953   -9.2859    3.8114 C   0  0  1  0  0  0  0  0  0  0  0  0
    5.1375   -8.1074    4.6242 O   0  0  0  0  0  0  0  0  0  0  0  0
    6.0290   -7.1408    5.1925 C   0  0  0  0  0  0  0  0  0  0  0  0
    6.8999   -6.5833    4.0842 C   0  0  1  0  0  0  0  0  0  0  0  0
    7.5167   -7.8965    3.6257 C   0  0  0  0  0  0  0  0  0  0  0  0
    6.4553   -8.6547    2.9983 N   0  0  0  0  0  0  0  0  0  0  0  0
    6.0689   -7.9679    1.7929 C   0  0  1  0  0  0  0  0  0  0  0  0
    5.1868   -8.8338    1.2951 O   0  0  0  0  0  0  0  0  0  0  0  0
    4.9282   -9.7887    2.3013 C   0  0  1  0  0  0  0  0  0  0  0  0
    5.6136  -11.0162    2.0787 O   0  0  0  0  0  0  0  0  0  0  0  0
    5.6394   -6.4616    2.0190 C   0  0  0  0  0  0  0  0  0  0  0  0
    4.7132   -5.7337    0.9550 C   0  0  0  0  0  0  0  0  0  0  0  0
    3.5121   -4.6741    1.3294 C   0  0  2  0  0  0  0  0  0  0  0  0
    4.1614   -3.2611    1.6140 C   0  0  0  0  0  0  0  0  0  0  0  0
    4.1121   -2.6215    0.2758 C   0  0  0  0  0  0  0  0  0  0  0  0
    3.2984   -3.3731   -0.5367 C   0  0  0  0  0  0  0  0  0  0  0  0
    3.0182   -3.0532   -1.8082 N   0  0  0  0  0  0  0  0  0  0  0  0
    3.5883   -1.9213   -2.2309 C   0  0  0  0  0  0  0  0  0  0  0  0
    4.4186   -1.1134   -1.5387 N   0  0  0  0  0  0  0  0  0  0  0  0
    4.6771   -1.4542   -0.2597 C   0  0  0  0  0  0  0  0  0  0  0  0
    5.5309   -0.6212    0.4630 N   0  0  0  0  0  0  0  0  0  0  0  0
    2.8071   -4.4846    0.0800 O   0  0  0  0  0  0  0  0  0  0  0  0
    6.0960   -5.8536    3.0546 N   0  0  0  0  0  0  0  0  0  0  0  0
    5.7602    0.2946    0.0871 H   0  0  0  0  0  0  0  0  0  0  0  0
   -0.0552   -6.8690    6.5316 H   0  0  0  0  0  0  0  0  0  0  0  0
    1.1831   -5.7657    7.1140 H   0  0  0  0  0  0  0  0  0  0  0  0
    0.8901   -7.2682    7.9506 H   0  0  0  0  0  0  0  0  0  0  0  0
    1.7372   -8.6069    6.1562 H   0  0  0  0  0  0  0  0  0  0  0  0
    3.1048   -7.9525    7.6163 H   0  0  0  0  0  0  0  0  0  0  0  0
    2.8835   -5.2644    5.8107 H   0  0  0  0  0  0  0  0  0  0  0  0
    2.9705   -3.6117    4.0824 H   0  0  0  0  0  0  0  0  0  0  0  0
    3.1499   -5.7139    2.5385 H   0  0  0  0  0  0  0  0  0  0  0  0
    0.2607   -5.5205    2.1711 H   0  0  0  0  0  0  0  0  0  0  0  0
    0.5475   -7.5780    1.0117 H   0  0  0  0  0  0  0  0  0  0  0  0
    1.8281   -6.5901    0.4219 H   0  0  0  0  0  0  0  0  0  0  0  0
    1.9867   -9.0289    1.7622 H   0  0  0  0  0  0  0  0  0  0  0  0
    3.2238   -8.0174    1.2065 H   0  0  0  0  0  0  0  0  0  0  0  0
    3.7992   -7.2275    3.3379 H   0  0  0  0  0  0  0  0  0  0  0  0
    3.5047   -9.1926    5.0929 H   0  0  0  0  0  0  0  0  0  0  0  0
    2.3389  -10.7585    2.9450 H   0  0  0  0  0  0  0  0  0  0  0  0
    2.6244  -11.0423    4.5730 H   0  0  0  0  0  0  0  0  0  0  0  0
    0.2386  -10.4346    3.5656 H   0  0  0  0  0  0  0  0  0  0  0  0
    0.6240  -10.1063    5.1811 H   0  0  0  0  0  0  0  0  0  0  0  0
    0.6414   -7.7158    3.0965 H   0  0  0  0  0  0  0  0  0  0  0  0
    5.4244   -6.3418    5.6190 H   0  0  0  0  0  0  0  0  0  0  0  0
    6.6184   -7.5698    6.0036 H   0  0  0  0  0  0  0  0  0  0  0  0
    7.6661   -5.9221    4.4930 H   0  0  0  0  0  0  0  0  0  0  0  0
    8.3099   -7.6998    2.9058 H   0  0  0  0  0  0  0  0  0  0  0  0
    7.9635   -8.4599    4.4468 H   0  0  0  0  0  0  0  0  0  0  0  0
    6.9156   -7.9588    1.1108 H   0  0  0  0  0  0  0  0  0  0  0  0
    3.9341  -10.0869    2.0226 H   0  0  0  0  0  0  0  0  0  0  0  0
    5.1239  -11.4915    1.4054 H   0  0  0  0  0  0  0  0  0  0  0  0
    5.4037   -5.1919    0.3173 H   0  0  0  0  0  0  0  0  0  0  0  0
    3.5427   -2.6254    2.2513 H   0  0  0  0  0  0  0  0  0  0  0  0
    5.1624   -3.3006    2.0415 H   0  0  0  0  0  0  0  0  0  0  0  0
    3.3788   -1.6316   -3.2508 H   0  0  0  0  0  0  0  0  0  0  0  0
    5.7003   -0.7671    1.4485 H   0  0  0  0  0  0  0  0  0  0  0  0
    4.3176   -6.4871    0.2774 H   0  0  0  0  0  0  0  0  0  0  0  0
  1  2  1  0
  1 42  1  0
  1 43  1  0
  1 44  1  0
  2  3  1  0
  2  4  1  0
  2 45  1  6
  3 46  1  0
  4 11  1  0
  4 17  1  0
  4  5  1  1
  5  6  2  0
  5 47  1  0
  6  7  1  0
  6 48  1  0
  7 30  1  0
  7  8  1  0
  7 49  1  6
  8 17  1  0
  8  9  1  0
  8 50  1  6
  9 10  1  0
  9 51  1  0
  9 52  1  0
 10 11  1  0
 10 53  1  0
 10 54  1  0
 11 12  1  0
 11 55  1  6
 12 13  1  0
 12 18  1  0
 12 56  1  1
 13 14  1  0
 13 57  1  0
 13 58  1  0
 14 15  1  0
 14 59  1  0
 14 60  1  0
 15 16  2  0
 15 17  1  0
 17 61  1  1
 18 23  1  0
 18 26  1  0
 18 19  1  1
 19 20  1  0
 20 21  1  0
 20 62  1  0
 20 63  1  0
 21 40  1  0
 21 22  1  0
 21 64  1  1
 22 23  1  0
 22 65  1  0
 22 66  1  0
 23 24  1  0
 24 25  1  0
 24 28  1  0
 24 67  1  6
 25 26  1  0
 26 27  1  0
 26 68  1  1
 27 69  1  0
 28 29  1  0
 28 40  2  0
 29 30  1  0
 29 70  1  0
 29 75  1  0
 30 31  1  0
 30 39  1  6
 31 71  1  0
 31 72  1  0
 31 32  1  0
 32 37  1  0
 32 33  2  0
 33 34  1  0
 33 39  1  0
 34 35  2  0
 35 36  1  0
 35 73  1  0
 36 37  2  0
 37 38  1  0
 38 74  1  0
 38 41  1  0
M  END
>  <i_m_ct_stereo_status>  (177) 
1

>  <s_m_source_file>  (177) 
/var/tmp/pbs.5076255.sched01/tmp0glzbzrw/400n8fk_jm.sdf

>  <i_m_source_file_index>  (177) 
34

>  <i_lp_mmshare_version>  (177) 
48012

>  <i_f3d_flags>  (177) 
0

>  <s_epik_input>  (177) 
TzFbQ0gyXVtDQEhdKFtOSF0yKVtDSDJdTjNbQ0BASF0oT1tDQEhdNFtPSF0pL0MyPVtDSF0vW0NAQF01KFtDSF0oW0NIXT1bQ0hdNilbQ0BASF0oW0NIMl1bQ0gyXTcpW0NIXShbQ0BAXTYoW0NASF0oW0NIM10pW09IXSlbQ0BIXTdbQ0BASF04W0NAQF0xMzQpQyg9TylbQ0gyXVtDSDJdOClbQ0gyXWM5YyhPNSluW2NIXVtuSF1jXDk9TlxbSF0=

>  <s_epik_cmdline>  (177) 
J2VwaWtfcHl0aG9uJywgJy1waHQnLCAnMi4wJywgJy1waCcsICc3LjAnLCAnLXRuJywgJzgnLCAnLW1hJywgJzIwMCcsICctaW1hZScsICc8aW5maWxlLm1hZT4nLCAnLW9tYWUnLCAnPG91dGZpbGUubWFlPic=

>  <r_lp_tautomer_probability>  (177) 
0.999984

>  <r_epik_Ionization_Penalty>  (177) 
0.0119864

>  <r_epik_Ionization_Penalty_Charging>  (177) 
0

>  <r_epik_Ionization_Penalty_Neutral>  (177) 
0.0119864

>  <r_epik_State_Penalty>  (177) 
0.0010236

>  <r_epik_Charging_Adjusted_Penalty>  (177) 
0.0010236

>  <i_epik_Tot_Q>  (177) 
0

>  <i_epik_Tot_abs_Q>  (177) 
0

>  <s_epik_Chemistry_Notes>  (177) 
This compound has an imine and may undergo hydrolysis. This compound contains an acetal/aminal-like group ( X-CH(R)-Y where X, Y are N, S, or O) that may be acid/base labile, releasing an aldehyde.

>  <s_lp_Force_Field>  (177) 
OPLS3e

>  <r_lp_Energy>  (177) 
480.771

>  <b_lp_Chiralities_Consistent>  (177) 
1

>  <s_lp_Variant>  (177) 
56:0-2

>  <s_i_glide_gridfile>  (177) 
pfpi4k_grid

>  <i_i_glide_lignum>  (177) 
34

>  <i_i_glide_rotatable_bonds>  (177) 
3

>  <r_i_docking_score>  (177) 
-3.47847

>  <r_i_glide_ligand_efficiency>  (177) 
-0.0869616

>  <r_i_glide_ligand_efficiency_sa>  (177) 
-0.297405

>  <r_i_glide_ligand_efficiency_ln>  (177) 
-0.741854

>  <r_i_glide_gscore>  (177) 
-3.47847

>  <r_i_glide_lipo>  (177) 
-0.156274

>  <r_i_glide_hbond>  (177) 
-0.270805

>  <r_i_glide_metal>  (177) 
-0

>  <r_i_glide_rewards>  (177) 
-0.166359

>  <r_i_glide_evdw>  (177) 
-37.7407

>  <r_i_glide_ecoul>  (177) 
-6.25978

>  <r_i_glide_erotb>  (177) 
0.0686194

>  <r_i_glide_esite>  (177) 
-0.127646

>  <r_i_glide_emodel>  (177) 
-53.1115

>  <r_i_glide_energy>  (177) 
-44.0005

>  <r_i_glide_einternal>  (177) 
1.0349

>  <r_i_glide_intrahb_reward>  (177) 
-0

>  <i_i_glide_confnum>  (177) 
3

>  <i_i_glide_posenum>  (177) 
1

>  <r_i_glide_eff_state_penalty>  (177) 
0

>  <ligand_id>  (177) 
56

>  <original_smiles>  (177) 
CC(O)C12C=CC3C4CCC1C(CCC(=O)C42)C12OCC4CN1C(OC2O)C(=CC31Cc2c(nc[nH]c2=N)O1)N4

>  <smiles>  (177) 
[H]OC1([H])OC2([H])C3=NC4([H])C([H])([H])OC1(N2C4([H])[H])C1([H])C([H])([H])C([H])([H])C(=O)C2([H])C4([H])C([H])([H])C([H])([H])C1([H])C2(C([H])(O[H])C([H])([H])[H])C([H])=C([H])C4([H])C1(Oc2nc([H])nc(N([H])[H])c2C1([H])[H])C3([H])[H]

$$$$
56:1:1
     RDKit          3D

 75 83  0  0  1  0  0  0  0  0999 V2000
    0.7521   -6.8320    6.9321 C   0  0  0  0  0  0  0  0  0  0  0  0
    1.7846   -7.6814    6.1491 C   0  0  2  0  0  0  0  0  0  0  0  0
    2.9109   -7.7390    7.0038 O   0  0  0  0  0  0  0  0  0  0  0  0
    2.1520   -7.1521    4.6771 C   0  0  1  0  0  0  0  0  0  0  0  0
    2.7662   -5.7642    4.9813 C   0  0  0  0  0  0  0  0  0  0  0  0
    3.0119   -4.8247    4.0649 C   0  0  0  0  0  0  0  0  0  0  0  0
    2.8345   -5.1769    2.6251 C   0  0  1  0  0  0  0  0  0  0  0  0
    1.4963   -6.0858    2.4536 C   0  0  1  0  0  0  0  0  0  0  0  0
    1.8122   -7.0903    1.3707 C   0  0  0  0  0  0  0  0  0  0  0  0
    2.6203   -8.1934    2.0566 C   0  0  0  0  0  0  0  0  0  0  0  0
    3.0060   -8.0645    3.6482 C   0  0  2  0  0  0  0  0  0  0  0  0
    3.4085   -9.4217    4.2227 C   0  0  1  0  0  0  0  0  0  0  0  0
    2.1371  -10.3597    3.9584 C   0  0  0  0  0  0  0  0  0  0  0  0
    0.6279   -9.7494    4.0850 C   0  0  0  0  0  0  0  0  0  0  0  0
    0.0646   -8.2384    3.9168 C   0  0  0  0  0  0  0  0  0  0  0  0
   -1.1584   -8.0780    3.9607 O   0  0  0  0  0  0  0  0  0  0  0  0
    0.9553   -6.9310    3.7713 C   0  0  2  0  0  0  0  0  0  0  0  0
    5.1078   -9.7327    4.2011 C   0  0  1  0  0  0  0  0  0  0  0  0
    4.9873   -8.5561    5.0202 O   0  0  0  0  0  0  0  0  0  0  0  0
    5.9102   -7.6903    5.6940 C   0  0  0  0  0  0  0  0  0  0  0  0
    6.9470   -7.2195    4.6935 C   0  0  1  0  0  0  0  0  0  0  0  0
    7.4690   -8.5871    4.2783 C   0  0  0  0  0  0  0  0  0  0  0  0
    6.4094   -9.2250    3.5277 N   0  0  0  0  0  0  0  0  0  0  0  0
    6.2289   -8.4910    2.3004 C   0  0  1  0  0  0  0  0  0  0  0  0
    5.3185   -9.2522    1.6973 O   0  0  0  0  0  0  0  0  0  0  0  0
    4.8480  -10.1818    2.6519 C   0  0  1  0  0  0  0  0  0  0  0  0
    5.4112  -11.4743    2.4817 O   0  0  0  0  0  0  0  0  0  0  0  0
    5.9364   -6.9501    2.5105 C   0  0  0  0  0  0  0  0  0  0  0  0
    5.2113   -6.1163    1.3711 C   0  0  0  0  0  0  0  0  0  0  0  0
    4.0952   -4.9379    1.6374 C   0  0  2  0  0  0  0  0  0  0  0  0
    4.8566   -3.6023    2.0134 C   0  0  0  0  0  0  0  0  0  0  0  0
    5.0181   -2.9518    0.6862 C   0  0  0  0  0  0  0  0  0  0  0  0
    4.2230   -3.6061   -0.2138 C   0  0  0  0  0  0  0  0  0  0  0  0
    4.1099   -3.2440   -1.5052 N   0  0  0  0  0  0  0  0  0  0  0  0
    4.8468   -2.1858   -1.8493 C   0  0  0  0  0  0  0  0  0  0  0  0
    5.6731   -1.4711   -1.0612 N   0  0  0  0  0  0  0  0  0  0  0  0
    5.7543   -1.8398    0.2331 C   0  0  0  0  0  0  0  0  0  0  0  0
    6.5803   -1.0873    1.0682 N   0  0  0  0  0  0  0  0  0  0  0  0
    3.5531   -4.6674    0.3224 O   0  0  0  0  0  0  0  0  0  0  0  0
    6.3389   -6.3993    3.6007 N   0  0  0  0  0  0  0  0  0  0  0  0
    7.0182   -0.2229    0.7690 H   0  0  0  0  0  0  0  0  0  0  0  0
   -0.1957   -6.7543    6.4019 H   0  0  0  0  0  0  0  0  0  0  0  0
    1.0941   -5.8179    7.1384 H   0  0  0  0  0  0  0  0  0  0  0  0
    0.5388   -7.2828    7.9041 H   0  0  0  0  0  0  0  0  0  0  0  0
    1.3977   -8.6953    6.1698 H   0  0  0  0  0  0  0  0  0  0  0  0
    2.7339   -8.3728    7.6826 H   0  0  0  0  0  0  0  0  0  0  0  0
    2.9374   -5.4989    6.0148 H   0  0  0  0  0  0  0  0  0  0  0  0
    3.3759   -3.8479    4.3387 H   0  0  0  0  0  0  0  0  0  0  0  0
    3.4942   -5.9459    2.7795 H   0  0  0  0  0  0  0  0  0  0  0  0
    0.6957   -5.4427    2.1066 H   0  0  0  0  0  0  0  0  0  0  0  0
    0.8935   -7.5072    0.9525 H   0  0  0  0  0  0  0  0  0  0  0  0
    2.3247   -6.6571    0.5171 H   0  0  0  0  0  0  0  0  0  0  0  0
    2.0817   -9.1077    1.8229 H   0  0  0  0  0  0  0  0  0  0  0  0
    3.4694   -8.2326    1.4172 H   0  0  0  0  0  0  0  0  0  0  0  0
    3.8956   -7.5246    3.6154 H   0  0  0  0  0  0  0  0  0  0  0  0
    3.2095   -9.4682    5.2878 H   0  0  0  0  0  0  0  0  0  0  0  0
    2.1236  -10.8776    2.9996 H   0  0  0  0  0  0  0  0  0  0  0  0
    2.2015  -11.2053    4.6436 H   0  0  0  0  0  0  0  0  0  0  0  0
    0.0141  -10.3397    3.4032 H   0  0  0  0  0  0  0  0  0  0  0  0
    0.2564  -10.0689    5.0570 H   0  0  0  0  0  0  0  0  0  0  0  0
    0.7445   -7.6738    3.0327 H   0  0  0  0  0  0  0  0  0  0  0  0
    5.3508   -6.8355    6.0687 H   0  0  0  0  0  0  0  0  0  0  0  0
    6.3629   -8.1835    6.5546 H   0  0  0  0  0  0  0  0  0  0  0  0
    7.7297   -6.6461    5.1927 H   0  0  0  0  0  0  0  0  0  0  0  0
    8.3504   -8.4686    3.6490 H   0  0  0  0  0  0  0  0  0  0  0  0
    7.7661   -9.2010    5.1307 H   0  0  0  0  0  0  0  0  0  0  0  0
    7.1403   -8.5661    1.7094 H   0  0  0  0  0  0  0  0  0  0  0  0
    3.8655  -10.3637    2.2628 H   0  0  0  0  0  0  0  0  0  0  0  0
    4.9978  -11.8495    1.7036 H   0  0  0  0  0  0  0  0  0  0  0  0
    6.0194   -5.6464    0.8201 H   0  0  0  0  0  0  0  0  0  0  0  0
    4.2415   -2.9133    2.5951 H   0  0  0  0  0  0  0  0  0  0  0  0
    5.7929   -3.7536    2.5473 H   0  0  0  0  0  0  0  0  0  0  0  0
    4.7717   -1.8680   -2.8775 H   0  0  0  0  0  0  0  0  0  0  0  0
    6.6479   -1.2960    2.0551 H   0  0  0  0  0  0  0  0  0  0  0  0
    4.8128   -6.8176    0.6407 H   0  0  0  0  0  0  0  0  0  0  0  0
  1  2  1  0
  1 42  1  0
  1 43  1  0
  1 44  1  0
  2  3  1  0
  2  4  1  0
  2 45  1  6
  3 46  1  0
  4 11  1  0
  4 17  1  0
  4  5  1  1
  5  6  2  0
  5 47  1  0
  6  7  1  0
  6 48  1  0
  7 30  1  0
  7  8  1  0
  7 49  1  6
  8 17  1  0
  8  9  1  0
  8 50  1  6
  9 10  1  0
  9 51  1  0
  9 52  1  0
 10 11  1  0
 10 53  1  0
 10 54  1  0
 11 12  1  0
 11 55  1  6
 12 13  1  0
 12 18  1  0
 12 56  1  1
 13 14  1  0
 13 57  1  0
 13 58  1  0
 14 15  1  0
 14 59  1  0
 14 60  1  0
 15 16  2  0
 15 17  1  0
 17 61  1  1
 18 23  1  0
 18 26  1  0
 18 19  1  1
 19 20  1  0
 20 21  1  0
 20 62  1  0
 20 63  1  0
 21 40  1  0
 21 22  1  0
 21 64  1  1
 22 23  1  0
 22 65  1  0
 22 66  1  0
 23 24  1  0
 24 25  1  0
 24 28  1  0
 24 67  1  6
 25 26  1  0
 26 27  1  0
 26 68  1  1
 27 69  1  0
 28 29  1  0
 28 40  2  0
 29 30  1  0
 29 70  1  0
 29 75  1  0
 30 31  1  0
 30 39  1  6
 31 71  1  0
 31 72  1  0
 31 32  1  0
 32 37  1  0
 32 33  2  0
 33 34  1  0
 33 39  1  0
 34 35  2  0
 35 36  1  0
 35 73  1  0
 36 37  2  0
 37 38  1  0
 38 74  1  0
 38 41  1  0
M  END
>  <i_m_ct_stereo_status>  (178) 
1

>  <s_m_source_file>  (178) 
/var/tmp/pbs.5076255.sched01/tmp0glzbzrw/400n8fk_jm.sdf

>  <i_m_source_file_index>  (178) 
34

>  <i_lp_mmshare_version>  (178) 
48012

>  <i_f3d_flags>  (178) 
0

>  <s_epik_input>  (178) 
TzFbQ0gyXVtDQEhdKFtOSF0yKVtDSDJdTjNbQ0BASF0oT1tDQEhdNFtPSF0pL0MyPVtDSF0vW0NAQF01KFtDSF0oW0NIXT1bQ0hdNilbQ0BASF0oW0NIMl1bQ0gyXTcpW0NIXShbQ0BAXTYoW0NASF0oW0NIM10pW09IXSlbQ0BIXTdbQ0BASF04W0NAQF0xMzQpQyg9TylbQ0gyXVtDSDJdOClbQ0gyXWM5YyhPNSluW2NIXVtuSF1jXDk9TlxbSF0=

>  <s_epik_cmdline>  (178) 
J2VwaWtfcHl0aG9uJywgJy1waHQnLCAnMi4wJywgJy1waCcsICc3LjAnLCAnLXRuJywgJzgnLCAnLW1hJywgJzIwMCcsICctaW1hZScsICc8aW5maWxlLm1hZT4nLCAnLW9tYWUnLCAnPG91dGZpbGUubWFlPic=

>  <r_lp_tautomer_probability>  (178) 
0.999984

>  <r_epik_Ionization_Penalty>  (178) 
0.0119864

>  <r_epik_Ionization_Penalty_Charging>  (178) 
0

>  <r_epik_Ionization_Penalty_Neutral>  (178) 
0.0119864

>  <r_epik_State_Penalty>  (178) 
0.0010236

>  <r_epik_Charging_Adjusted_Penalty>  (178) 
0.0010236

>  <i_epik_Tot_Q>  (178) 
0

>  <i_epik_Tot_abs_Q>  (178) 
0

>  <s_epik_Chemistry_Notes>  (178) 
This compound has an imine and may undergo hydrolysis. This compound contains an acetal/aminal-like group ( X-CH(R)-Y where X, Y are N, S, or O) that may be acid/base labile, releasing an aldehyde.

>  <s_lp_Force_Field>  (178) 
OPLS3e

>  <r_lp_Energy>  (178) 
480.771

>  <b_lp_Chiralities_Consistent>  (178) 
1

>  <s_lp_Variant>  (178) 
56:0-2

>  <s_i_glide_gridfile>  (178) 
pfpi4k_grid

>  <i_i_glide_lignum>  (178) 
34

>  <i_i_glide_rotatable_bonds>  (178) 
3

>  <r_i_docking_score>  (178) 
-3.32118

>  <r_i_glide_ligand_efficiency>  (178) 
-0.0830295

>  <r_i_glide_ligand_efficiency_sa>  (178) 
-0.283957

>  <r_i_glide_ligand_efficiency_ln>  (178) 
-0.70831

>  <r_i_glide_gscore>  (178) 
-3.32118

>  <r_i_glide_lipo>  (178) 
-0.214846

>  <r_i_glide_hbond>  (178) 
-0.234329

>  <r_i_glide_metal>  (178) 
-0

>  <r_i_glide_rewards>  (178) 
-0.0751102

>  <r_i_glide_evdw>  (178) 
-35.1047

>  <r_i_glide_ecoul>  (178) 
-6.7159

>  <r_i_glide_erotb>  (178) 
0.0686194

>  <r_i_glide_esite>  (178) 
-0.102896

>  <r_i_glide_emodel>  (178) 
-50.3765

>  <r_i_glide_energy>  (178) 
-41.8206

>  <r_i_glide_einternal>  (178) 
1.17672

>  <r_i_glide_intrahb_reward>  (178) 
-0

>  <i_i_glide_confnum>  (178) 
3

>  <i_i_glide_posenum>  (178) 
25

>  <r_i_glide_eff_state_penalty>  (178) 
0

>  <ligand_id>  (178) 
56

>  <original_smiles>  (178) 
CC(O)C12C=CC3C4CCC1C(CCC(=O)C42)C12OCC4CN1C(OC2O)C(=CC31Cc2c(nc[nH]c2=N)O1)N4

>  <smiles>  (178) 
[H]OC1([H])OC2([H])C3=NC4([H])C([H])([H])OC1(N2C4([H])[H])C1([H])C([H])([H])C([H])([H])C(=O)C2([H])C4([H])C([H])([H])C([H])([H])C1([H])C2(C([H])(O[H])C([H])([H])[H])C([H])=C([H])C4([H])C1(Oc2nc([H])nc(N([H])[H])c2C1([H])[H])C3([H])[H]

$$$$
56:1:2
     RDKit          3D

 75 83  0  0  1  0  0  0  0  0999 V2000
    0.6811   -8.5450    6.5568 C   0  0  0  0  0  0  0  0  0  0  0  0
    1.8898   -8.9416    5.6738 C   0  0  2  0  0  0  0  0  0  0  0  0
    2.9639   -9.1017    6.5829 O   0  0  0  0  0  0  0  0  0  0  0  0
    2.2364   -7.9309    4.4714 C   0  0  1  0  0  0  0  0  0  0  0  0
    2.6154   -6.6417    5.2363 C   0  0  0  0  0  0  0  0  0  0  0  0
    2.7578   -5.4387    4.6714 C   0  0  0  0  0  0  0  0  0  0  0  0
    2.7005   -5.3421    3.1832 C   0  0  1  0  0  0  0  0  0  0  0  0
    1.5257   -6.3161    2.6244 C   0  0  1  0  0  0  0  0  0  0  0  0
    2.0389   -6.8868    1.3212 C   0  0  0  0  0  0  0  0  0  0  0  0
    2.9756   -8.0322    1.7130 C   0  0  0  0  0  0  0  0  0  0  0  0
    3.2676   -8.3546    3.2984 C   0  0  2  0  0  0  0  0  0  0  0  0
    3.8514   -9.7569    3.4811 C   0  0  1  0  0  0  0  0  0  0  0  0
    2.7493  -10.7191    2.8485 C   0  0  0  0  0  0  0  0  0  0  0  0
    1.1590  -10.3867    3.0027 C   0  0  0  0  0  0  0  0  0  0  0  0
    0.3777   -8.9888    3.2321 C   0  0  0  0  0  0  0  0  0  0  0  0
   -0.8548   -9.0161    3.1809 O   0  0  0  0  0  0  0  0  0  0  0  0
    1.0615   -7.5957    3.5712 C   0  0  2  0  0  0  0  0  0  0  0  0
    5.5782   -9.8292    3.4950 C   0  0  1  0  0  0  0  0  0  0  0  0
    5.2451   -8.9879    4.6195 O   0  0  0  0  0  0  0  0  0  0  0  0
    5.9886   -8.2634    5.6096 C   0  0  0  0  0  0  0  0  0  0  0  0
    6.9847   -7.3719    4.8960 C   0  0  1  0  0  0  0  0  0  0  0  0
    7.7263   -8.4609    4.1330 C   0  0  0  0  0  0  0  0  0  0  0  0
    6.8114   -8.9656    3.1302 N   0  0  0  0  0  0  0  0  0  0  0  0
    6.5713   -7.9119    2.1757 C   0  0  1  0  0  0  0  0  0  0  0  0
    5.8170   -8.5562    1.2848 O   0  0  0  0  0  0  0  0  0  0  0  0
    5.4620   -9.7924    1.8587 C   0  0  1  0  0  0  0  0  0  0  0  0
    6.2153  -10.8666    1.3070 O   0  0  0  0  0  0  0  0  0  0  0  0
    6.0407   -6.5672    2.8165 C   0  0  0  0  0  0  0  0  0  0  0  0
    5.2476   -5.5259    1.9232 C   0  0  0  0  0  0  0  0  0  0  0  0
    3.9547   -4.6480    2.4333 C   0  0  2  0  0  0  0  0  0  0  0  0
    4.4816   -3.4089    3.2627 C   0  0  0  0  0  0  0  0  0  0  0  0
    4.5975   -2.3618    2.2145 C   0  0  0  0  0  0  0  0  0  0  0  0
    3.9630   -2.8068    1.0859 C   0  0  0  0  0  0  0  0  0  0  0  0
    3.8575   -2.0851   -0.0407 N   0  0  0  0  0  0  0  0  0  0  0  0
    4.4216   -0.8738    0.0258 C   0  0  0  0  0  0  0  0  0  0  0  0
    5.0690   -0.3358    1.0699 N   0  0  0  0  0  0  0  0  0  0  0  0
    5.1574   -1.0735    2.1957 C   0  0  0  0  0  0  0  0  0  0  0  0
    5.7974   -0.5044    3.2926 N   0  0  0  0  0  0  0  0  0  0  0  0
    3.4387   -4.0587    1.2178 O   0  0  0  0  0  0  0  0  0  0  0  0
    6.3073   -6.3383    4.0528 N   0  0  0  0  0  0  0  0  0  0  0  0
    6.1825    0.4304    3.2486 H   0  0  0  0  0  0  0  0  0  0  0  0
   -0.2394   -8.4652    5.9797 H   0  0  0  0  0  0  0  0  0  0  0  0
    0.8246   -7.6003    7.0809 H   0  0  0  0  0  0  0  0  0  0  0  0
    0.5030   -9.3012    7.3246 H   0  0  0  0  0  0  0  0  0  0  0  0
    1.6839   -9.9583    5.3563 H   0  0  0  0  0  0  0  0  0  0  0  0
    2.8345   -9.9199    7.0437 H   0  0  0  0  0  0  0  0  0  0  0  0
    2.6915   -6.6925    6.3125 H   0  0  0  0  0  0  0  0  0  0  0  0
    2.9553   -4.5587    5.2588 H   0  0  0  0  0  0  0  0  0  0  0  0
    3.4615   -6.0270    3.1552 H   0  0  0  0  0  0  0  0  0  0  0  0
    0.6534   -5.7001    2.4232 H   0  0  0  0  0  0  0  0  0  0  0  0
    1.2081   -7.2704    0.7240 H   0  0  0  0  0  0  0  0  0  0  0  0
    2.5180   -6.1528    0.6793 H   0  0  0  0  0  0  0  0  0  0  0  0
    2.5931   -8.8911    1.1703 H   0  0  0  0  0  0  0  0  0  0  0  0
    3.8467   -7.7555    1.1664 H   0  0  0  0  0  0  0  0  0  0  0  0
    4.0639   -7.7210    3.5085 H   0  0  0  0  0  0  0  0  0  0  0  0
    3.6171  -10.1560    4.4632 H   0  0  0  0  0  0  0  0  0  0  0  0
    2.8641  -10.8812    1.7827 H   0  0  0  0  0  0  0  0  0  0  0  0
    2.9161  -11.7276    3.2280 H   0  0  0  0  0  0  0  0  0  0  0  0
    0.6782  -10.8038    2.1164 H   0  0  0  0  0  0  0  0  0  0  0  0
    0.7921  -11.0401    3.7919 H   0  0  0  0  0  0  0  0  0  0  0  0
    1.0024   -8.0938    2.6285 H   0  0  0  0  0  0  0  0  0  0  0  0
    5.2868   -7.6512    6.1737 H   0  0  0  0  0  0  0  0  0  0  0  0
    6.4700   -8.9383    6.3171 H   0  0  0  0  0  0  0  0  0  0  0  0
    7.6467   -6.8863    5.6159 H   0  0  0  0  0  0  0  0  0  0  0  0
    8.6065   -8.0350    3.6515 H   0  0  0  0  0  0  0  0  0  0  0  0
    8.0746   -9.2652    4.7866 H   0  0  0  0  0  0  0  0  0  0  0  0
    7.5080   -7.6811    1.6730 H   0  0  0  0  0  0  0  0  0  0  0  0
    4.5300   -9.9535    1.3604 H   0  0  0  0  0  0  0  0  0  0  0  0
    5.5668  -11.4529    0.8902 H   0  0  0  0  0  0  0  0  0  0  0  0
    5.9966   -4.8036    1.6141 H   0  0  0  0  0  0  0  0  0  0  0  0
    3.7443   -3.0212    3.9666 H   0  0  0  0  0  0  0  0  0  0  0  0
    5.4088   -3.5914    3.8011 H   0  0  0  0  0  0  0  0  0  0  0  0
    4.3496   -0.2636   -0.8622 H   0  0  0  0  0  0  0  0  0  0  0  0
    5.8989   -1.0049    4.1656 H   0  0  0  0  0  0  0  0  0  0  0  0
    4.9939   -6.0113    0.9846 H   0  0  0  0  0  0  0  0  0  0  0  0
  1  2  1  0
  1 42  1  0
  1 43  1  0
  1 44  1  0
  2  3  1  0
  2  4  1  0
  2 45  1  6
  3 46  1  0
  4 11  1  0
  4 17  1  0
  4  5  1  1
  5  6  2  0
  5 47  1  0
  6  7  1  0
  6 48  1  0
  7 30  1  0
  7  8  1  0
  7 49  1  1
  8 17  1  0
  8  9  1  0
  8 50  1  6
  9 10  1  0
  9 51  1  0
  9 52  1  0
 10 11  1  0
 10 53  1  0
 10 54  1  0
 11 12  1  0
 11 55  1  1
 12 13  1  0
 12 18  1  0
 12 56  1  1
 13 14  1  0
 13 57  1  0
 13 58  1  0
 14 15  1  0
 14 59  1  0
 14 60  1  0
 15 16  2  0
 15 17  1  0
 17 61  1  1
 18 23  1  0
 18 26  1  0
 18 19  1  6
 19 20  1  0
 20 21  1  0
 20 62  1  0
 20 63  1  0
 21 40  1  0
 21 22  1  0
 21 64  1  1
 22 23  1  0
 22 65  1  0
 22 66  1  0
 23 24  1  0
 24 25  1  0
 24 28  1  0
 24 67  1  6
 25 26  1  0
 26 27  1  0
 26 68  1  1
 27 69  1  0
 28 29  1  0
 28 40  2  0
 29 30  1  0
 29 70  1  0
 29 75  1  0
 30 31  1  0
 30 39  1  6
 31 71  1  0
 31 72  1  0
 31 32  1  0
 32 37  1  0
 32 33  2  0
 33 34  1  0
 33 39  1  0
 34 35  2  0
 35 36  1  0
 35 73  1  0
 36 37  2  0
 37 38  1  0
 38 74  1  0
 38 41  1  0
M  END
>  <i_m_ct_stereo_status>  (179) 
1

>  <s_m_source_file>  (179) 
/var/tmp/pbs.5076255.sched01/tmp0glzbzrw/400n8fk_jm.sdf

>  <i_m_source_file_index>  (179) 
34

>  <i_lp_mmshare_version>  (179) 
48012

>  <i_f3d_flags>  (179) 
0

>  <s_epik_input>  (179) 
TzFbQ0gyXVtDQEhdKFtOSF0yKVtDSDJdTjNbQ0BASF0oT1tDQEhdNFtPSF0pL0MyPVtDSF0vW0NAQF01KFtDSF0oW0NIXT1bQ0hdNilbQ0BASF0oW0NIMl1bQ0gyXTcpW0NIXShbQ0BAXTYoW0NASF0oW0NIM10pW09IXSlbQ0BIXTdbQ0BASF04W0NAQF0xMzQpQyg9TylbQ0gyXVtDSDJdOClbQ0gyXWM5YyhPNSluW2NIXVtuSF1jXDk9TlxbSF0=

>  <s_epik_cmdline>  (179) 
J2VwaWtfcHl0aG9uJywgJy1waHQnLCAnMi4wJywgJy1waCcsICc3LjAnLCAnLXRuJywgJzgnLCAnLW1hJywgJzIwMCcsICctaW1hZScsICc8aW5maWxlLm1hZT4nLCAnLW9tYWUnLCAnPG91dGZpbGUubWFlPic=

>  <r_lp_tautomer_probability>  (179) 
0.999984

>  <r_epik_Ionization_Penalty>  (179) 
0.0119864

>  <r_epik_Ionization_Penalty_Charging>  (179) 
0

>  <r_epik_Ionization_Penalty_Neutral>  (179) 
0.0119864

>  <r_epik_State_Penalty>  (179) 
0.0010236

>  <r_epik_Charging_Adjusted_Penalty>  (179) 
0.0010236

>  <i_epik_Tot_Q>  (179) 
0

>  <i_epik_Tot_abs_Q>  (179) 
0

>  <s_epik_Chemistry_Notes>  (179) 
This compound has an imine and may undergo hydrolysis. This compound contains an acetal/aminal-like group ( X-CH(R)-Y where X, Y are N, S, or O) that may be acid/base labile, releasing an aldehyde.

>  <s_lp_Force_Field>  (179) 
OPLS3e

>  <r_lp_Energy>  (179) 
480.771

>  <b_lp_Chiralities_Consistent>  (179) 
1

>  <s_lp_Variant>  (179) 
56:0-2

>  <s_i_glide_gridfile>  (179) 
pfpi4k_grid

>  <i_i_glide_lignum>  (179) 
34

>  <i_i_glide_rotatable_bonds>  (179) 
3

>  <r_i_docking_score>  (179) 
-3.20373

>  <r_i_glide_ligand_efficiency>  (179) 
-0.0800932

>  <r_i_glide_ligand_efficiency_sa>  (179) 
-0.273915

>  <r_i_glide_ligand_efficiency_ln>  (179) 
-0.683261

>  <r_i_glide_gscore>  (179) 
-3.20373

>  <r_i_glide_lipo>  (179) 
-0.350792

>  <r_i_glide_hbond>  (179) 
-0.0117021

>  <r_i_glide_metal>  (179) 
-0

>  <r_i_glide_rewards>  (179) 
-0.0962226

>  <r_i_glide_evdw>  (179) 
-35.6203

>  <r_i_glide_ecoul>  (179) 
-6.29427

>  <r_i_glide_erotb>  (179) 
0.0686194

>  <r_i_glide_esite>  (179) 
-0.0884795

>  <r_i_glide_emodel>  (179) 
-49.4926

>  <r_i_glide_energy>  (179) 
-41.9145

>  <r_i_glide_einternal>  (179) 
2.26107

>  <r_i_glide_intrahb_reward>  (179) 
-0

>  <i_i_glide_confnum>  (179) 
3

>  <i_i_glide_posenum>  (179) 
27

>  <r_i_glide_eff_state_penalty>  (179) 
0

>  <ligand_id>  (179) 
56

>  <original_smiles>  (179) 
CC(O)C12C=CC3C4CCC1C(CCC(=O)C42)C12OCC4CN1C(OC2O)C(=CC31Cc2c(nc[nH]c2=N)O1)N4

>  <smiles>  (179) 
[H]OC1([H])OC2([H])C3=NC4([H])C([H])([H])OC1(N2C4([H])[H])C1([H])C([H])([H])C([H])([H])C(=O)C2([H])C4([H])C([H])([H])C([H])([H])C1([H])C2(C([H])(O[H])C([H])([H])[H])C([H])=C([H])C4([H])C1(Oc2nc([H])nc(N([H])[H])c2C1([H])[H])C3([H])[H]

$$$$
57:0:0
     RDKit          3D

 54 59  0  0  1  0  0  0  0  0999 V2000
    2.6734   -3.0490   -1.8427 C   0  0  0  0  0  0  0  0  0  0  0  0
    4.1832   -3.0144   -1.5356 C   0  0  0  0  0  0  0  0  0  0  0  0
    4.9114   -3.0780   -2.9055 C   0  0  0  0  0  0  0  0  0  0  0  0
    4.5272   -1.6701   -0.8456 C   0  0  0  0  0  0  0  0  0  0  0  0
    4.8400   -0.6799   -1.5118 O   0  0  0  0  0  0  0  0  0  0  0  0
    4.4594   -1.6065    0.7073 C   0  0  0  0  0  0  0  0  0  0  0  0
    5.3988   -0.4810    1.2091 C   0  0  0  0  0  0  0  0  0  0  0  0
    3.0323   -1.2011    1.1314 C   0  0  0  0  0  0  0  0  0  0  0  0
    4.8393   -2.9953    1.3365 C   0  0  2  0  0  0  0  0  0  0  0  0
    6.2702   -3.4330    0.9632 C   0  0  0  0  0  0  0  0  0  0  0  0
    6.1064   -4.2453   -0.3181 C   0  0  0  0  0  0  0  0  0  0  0  0
    4.5849   -4.2163   -0.6147 C   0  0  1  0  0  0  0  0  0  0  0  0
    3.9547   -4.0441    0.7316 N   0  0  1  0  0  0  0  0  0  0  0  0
    3.5697   -5.2977    1.5159 C   0  0  1  0  0  0  0  0  0  0  0  0
    4.4588   -6.5255    1.1992 C   0  0  0  0  0  0  0  0  0  0  0  0
    4.3875   -7.5767    2.0215 C   0  0  0  0  0  0  0  0  0  0  0  0
    3.5883   -7.4000    3.2944 C   0  0  1  0  0  0  0  0  0  0  0  0
    4.2192   -6.1493    3.9176 C   0  0  0  0  0  0  0  0  0  0  0  0
    3.4003   -5.0932    3.1503 C   0  0  2  0  0  0  0  0  0  0  0  0
    1.9971   -5.4851    3.6446 C   0  0  1  0  0  0  0  0  0  0  0  0
    1.3568   -6.6789    4.3646 C   0  0  0  0  0  0  0  0  0  0  0  0
    2.1144   -6.9257    3.1233 C   0  0  2  0  0  0  0  0  0  0  0  0
    1.6463   -6.8000    1.7717 N   0  0  0  0  0  0  0  0  0  0  0  0
    2.1998   -5.8482    0.9867 C   0  0  0  0  0  0  0  0  0  0  0  0
    1.6748   -5.4615   -0.0457 O   0  0  0  0  0  0  0  0  0  0  0  0
    2.4122   -3.8527   -2.5241 H   0  0  0  0  0  0  0  0  0  0  0  0
    2.3420   -2.1273   -2.3191 H   0  0  0  0  0  0  0  0  0  0  0  0
    2.0657   -3.1628   -0.9520 H   0  0  0  0  0  0  0  0  0  0  0  0
    4.7957   -4.0539   -3.3812 H   0  0  0  0  0  0  0  0  0  0  0  0
    5.9805   -2.8656   -2.8310 H   0  0  0  0  0  0  0  0  0  0  0  0
    4.5069   -2.3295   -3.5907 H   0  0  0  0  0  0  0  0  0  0  0  0
    5.4658   -0.4569    2.2972 H   0  0  0  0  0  0  0  0  0  0  0  0
    5.0299    0.4933    0.8823 H   0  0  0  0  0  0  0  0  0  0  0  0
    6.4124   -0.5563    0.8114 H   0  0  0  0  0  0  0  0  0  0  0  0
    2.9635   -1.0196    2.2019 H   0  0  0  0  0  0  0  0  0  0  0  0
    2.2786   -1.9448    0.8806 H   0  0  0  0  0  0  0  0  0  0  0  0
    2.7306   -0.2821    0.6263 H   0  0  0  0  0  0  0  0  0  0  0  0
    4.7798   -2.8843    2.4142 H   0  0  0  0  0  0  0  0  0  0  0  0
    6.9665   -2.6120    0.8065 H   0  0  0  0  0  0  0  0  0  0  0  0
    6.6960   -4.0647    1.7465 H   0  0  0  0  0  0  0  0  0  0  0  0
    6.7360   -3.8574   -1.1193 H   0  0  0  0  0  0  0  0  0  0  0  0
    6.4789   -5.2471   -0.1068 H   0  0  0  0  0  0  0  0  0  0  0  0
    4.2602   -5.1201   -1.1161 H   0  0  0  0  0  0  0  0  0  0  0  0
    4.9928   -6.6468    0.2670 H   0  0  0  0  0  0  0  0  0  0  0  0
    4.9161   -8.5053    1.8464 H   0  0  0  0  0  0  0  0  0  0  0  0
    3.6444   -8.2909    3.9201 H   0  0  0  0  0  0  0  0  0  0  0  0
    4.0187   -6.1127    4.9905 H   0  0  0  0  0  0  0  0  0  0  0  0
    5.3024   -6.0768    3.7697 H   0  0  0  0  0  0  0  0  0  0  0  0
    3.5907   -4.0912    3.5326 H   0  0  0  0  0  0  0  0  0  0  0  0
    1.2215   -4.8015    3.2941 H   0  0  0  0  0  0  0  0  0  0  0  0
    1.8111   -7.0056    5.2981 H   0  0  0  0  0  0  0  0  0  0  0  0
    0.2730   -6.7809    4.3279 H   0  0  0  0  0  0  0  0  0  0  0  0
    0.7764   -7.2454    1.5065 H   0  0  0  0  0  0  0  0  0  0  0  0
    3.0620   -3.6003    0.5642 H   0  0  0  0  0  0  0  0  0  0  0  0
  1  2  1  0
  1 26  1  0
  1 27  1  0
  1 28  1  0
  2 12  1  0
  2  3  1  0
  2  4  1  0
  3 29  1  0
  3 30  1  0
  3 31  1  0
  4  5  2  0
  4  6  1  0
  6  7  1  0
  6  8  1  0
  6  9  1  0
  7 32  1  0
  7 33  1  0
  7 34  1  0
  8 35  1  0
  8 36  1  0
  8 37  1  0
  9 13  1  0
  9 10  1  0
  9 38  1  1
 10 11  1  0
 10 39  1  0
 10 40  1  0
 11 12  1  0
 11 41  1  0
 11 42  1  0
 12 13  1  0
 12 43  1  6
 13 14  1  0
 13 54  1  6
 14 19  1  0
 14 24  1  6
 14 15  1  0
 15 16  2  0
 15 44  1  0
 16 17  1  0
 16 45  1  0
 17 22  1  0
 17 18  1  0
 17 46  1  1
 18 19  1  0
 18 47  1  0
 18 48  1  0
 19 20  1  0
 19 49  1  1
 20 22  1  0
 20 21  1  0
 20 50  1  6
 21 22  1  0
 21 51  1  0
 21 52  1  0
 22 23  1  6
 23 24  1  0
 23 53  1  0
 24 25  2  0
M  CHG  1  13   1
M  END
>  <i_m_ct_stereo_status>  (180) 
1

>  <s_m_source_file>  (180) 
/var/tmp/pbs.5076255.sched01/tmp0glzbzrw/400n8fk_jm.sdf

>  <i_m_source_file_index>  (180) 
35

>  <i_lp_mmshare_version>  (180) 
48012

>  <i_f3d_flags>  (180) 
0

>  <s_epik_input>  (180) 
W0NIM11DKFtDSDNdKShbQ0BIXTEyKUMoPU8pQyhbQ0gzXSkoW0NIM10pW0NIXShbQ0gyXVtDSDJdMSlOMltDQEBdKEMoPU8pW05IXTMpKFtDSF09W0NIXVtDQEBIXTRbQ0BdMzU2KVtDQEhdKFtDSDJdNClbQ0BASF01W0NIMl02

>  <s_epik_cmdline>  (180) 
J2VwaWtfcHl0aG9uJywgJy1waHQnLCAnMi4wJywgJy1waCcsICc3LjAnLCAnLXRuJywgJzgnLCAnLW1hJywgJzIwMCcsICctaW1hZScsICc8aW5maWxlLm1hZT4nLCAnLW9tYWUnLCAnPG91dGZpbGUubWFlPic=

>  <r_epik_Ionization_Penalty>  (180) 
0.031744

>  <r_epik_Ionization_Penalty_Charging>  (180) 
0.0316934

>  <r_epik_Ionization_Penalty_Neutral>  (180) 
5.06034e-05

>  <r_epik_State_Penalty>  (180) 
0.0262102

>  <r_epik_Charging_Adjusted_Penalty>  (180) 
0.0579036

>  <i_epik_Tot_Q>  (180) 
1

>  <i_epik_Tot_abs_Q>  (180) 
1

>  <s_lp_Force_Field>  (180) 
OPLS3e

>  <r_lp_Energy>  (180) 
110.243

>  <b_lp_Chiralities_Consistent>  (180) 
1

>  <s_lp_Variant>  (180) 
57:0-1

>  <s_i_glide_gridfile>  (180) 
pfpi4k_grid

>  <i_i_glide_lignum>  (180) 
35

>  <i_i_glide_rotatable_bonds>  (180) 
1

>  <r_i_docking_score>  (180) 
-3.72292

>  <r_i_glide_ligand_efficiency>  (180) 
-0.148917

>  <r_i_glide_ligand_efficiency_sa>  (180) 
-0.435435

>  <r_i_glide_ligand_efficiency_ln>  (180) 
-0.882444

>  <r_i_glide_gscore>  (180) 
-3.72292

>  <r_i_glide_lipo>  (180) 
-0.57205

>  <r_i_glide_hbond>  (180) 
-0.0966534

>  <r_i_glide_metal>  (180) 
-0

>  <r_i_glide_rewards>  (180) 
-1.08091

>  <r_i_glide_evdw>  (180) 
-28.0653

>  <r_i_glide_ecoul>  (180) 
-4.16606

>  <r_i_glide_erotb>  (180) 
0.162524

>  <r_i_glide_esite>  (180) 
-0.107663

>  <r_i_glide_emodel>  (180) 
-37.5297

>  <r_i_glide_energy>  (180) 
-32.2313

>  <r_i_glide_einternal>  (180) 
2.91778

>  <r_i_glide_intrahb_reward>  (180) 
-0

>  <i_i_glide_confnum>  (180) 
5

>  <i_i_glide_posenum>  (180) 
1

>  <r_i_glide_eff_state_penalty>  (180) 
0

>  <ligand_id>  (180) 
57

>  <original_smiles>  (180) 
CC1(C)C(=O)C(C)(C)C2CCC1N2C12C=CC3CC1C1CC31NC2=O

>  <smiles>  (180) 
[H]C1=C([H])C2([N+]3([H])C4([H])C([H])([H])C([H])([H])C3([H])C(C([H])([H])[H])(C([H])([H])[H])C(=O)C4(C([H])([H])[H])C([H])([H])[H])C(=O)N([H])C34C([H])([H])C3([H])C2([H])C([H])([H])C14[H]

$$$$
57:0:1
     RDKit          3D

 54 59  0  0  1  0  0  0  0  0999 V2000
    2.0957   -6.5896    2.9794 C   0  0  0  0  0  0  0  0  0  0  0  0
    3.4971   -6.5888    3.6225 C   0  0  0  0  0  0  0  0  0  0  0  0
    3.2626   -6.7016    5.1565 C   0  0  0  0  0  0  0  0  0  0  0  0
    4.2784   -7.8368    3.1440 C   0  0  0  0  0  0  0  0  0  0  0  0
    4.1800   -8.9097    3.7300 O   0  0  0  0  0  0  0  0  0  0  0  0
    5.1365   -7.7027    1.8572 C   0  0  0  0  0  0  0  0  0  0  0  0
    6.2659   -8.7722    1.8898 C   0  0  0  0  0  0  0  0  0  0  0  0
    4.2492   -8.0654    0.6568 C   0  0  0  0  0  0  0  0  0  0  0  0
    5.7030   -6.2404    1.7121 C   0  0  2  0  0  0  0  0  0  0  0  0
    6.6108   -5.8727    2.9037 C   0  0  0  0  0  0  0  0  0  0  0  0
    5.6728   -5.2498    3.9494 C   0  0  0  0  0  0  0  0  0  0  0  0
    4.2772   -5.2769    3.2673 C   0  0  1  0  0  0  0  0  0  0  0  0
    4.5598   -5.2784    1.7939 N   0  0  1  0  0  0  0  0  0  0  0  0
    4.6135   -3.9423    1.0578 C   0  0  1  0  0  0  0  0  0  0  0  0
    5.3308   -2.8283    1.8560 C   0  0  0  0  0  0  0  0  0  0  0  0
    5.7093   -1.7285    1.1921 C   0  0  0  0  0  0  0  0  0  0  0  0
    5.5607   -1.7471   -0.3087 C   0  0  1  0  0  0  0  0  0  0  0  0
    6.3429   -3.0109   -0.7044 C   0  0  0  0  0  0  0  0  0  0  0  0
    5.2055   -4.0337   -0.4751 C   0  0  2  0  0  0  0  0  0  0  0  0
    4.2092   -3.4818   -1.5155 C   0  0  1  0  0  0  0  0  0  0  0  0
    4.0264   -2.1797   -2.3202 C   0  0  0  0  0  0  0  0  0  0  0  0
    4.1520   -2.0985   -0.8544 C   0  0  2  0  0  0  0  0  0  0  0  0
    3.1018   -2.2540    0.1106 N   0  0  0  0  0  0  0  0  0  0  0  0
    3.1851   -3.3068    0.9726 C   0  0  0  0  0  0  0  0  0  0  0  0
    2.2528   -3.6959    1.6449 O   0  0  0  0  0  0  0  0  0  0  0  0
    1.4379   -5.8644    3.4585 H   0  0  0  0  0  0  0  0  0  0  0  0
    1.6189   -7.5683    3.0660 H   0  0  0  0  0  0  0  0  0  0  0  0
    2.1138   -6.3490    1.9180 H   0  0  0  0  0  0  0  0  0  0  0  0
    2.8210   -5.7935    5.5721 H   0  0  0  0  0  0  0  0  0  0  0  0
    4.1795   -6.9141    5.7105 H   0  0  0  0  0  0  0  0  0  0  0  0
    2.5903   -7.5313    5.3890 H   0  0  0  0  0  0  0  0  0  0  0  0
    6.9633   -8.6645    1.0559 H   0  0  0  0  0  0  0  0  0  0  0  0
    5.8469   -9.7799    1.8326 H   0  0  0  0  0  0  0  0  0  0  0  0
    6.8427   -8.7535    2.8173 H   0  0  0  0  0  0  0  0  0  0  0  0
    4.8171   -8.1175   -0.2694 H   0  0  0  0  0  0  0  0  0  0  0  0
    3.4504   -7.3448    0.4947 H   0  0  0  0  0  0  0  0  0  0  0  0
    3.7814   -9.0433    0.7943 H   0  0  0  0  0  0  0  0  0  0  0  0
    6.2779   -6.1902    0.7911 H   0  0  0  0  0  0  0  0  0  0  0  0
    7.1464   -6.7140    3.3407 H   0  0  0  0  0  0  0  0  0  0  0  0
    7.3596   -5.1412    2.5925 H   0  0  0  0  0  0  0  0  0  0  0  0
    5.7187   -5.7678    4.9131 H   0  0  0  0  0  0  0  0  0  0  0  0
    6.0310   -4.2472    4.1892 H   0  0  0  0  0  0  0  0  0  0  0  0
    3.6899   -4.4286    3.6067 H   0  0  0  0  0  0  0  0  0  0  0  0
    5.3523   -2.7945    2.9380 H   0  0  0  0  0  0  0  0  0  0  0  0
    6.1420   -0.8622    1.6735 H   0  0  0  0  0  0  0  0  0  0  0  0
    5.9280   -0.8194   -0.7420 H   0  0  0  0  0  0  0  0  0  0  0  0
    6.6502   -2.9638   -1.7570 H   0  0  0  0  0  0  0  0  0  0  0  0
    7.2396   -3.1914   -0.0944 H   0  0  0  0  0  0  0  0  0  0  0  0
    5.4729   -5.0388   -0.8038 H   0  0  0  0  0  0  0  0  0  0  0  0
    3.3174   -4.0915   -1.6064 H   0  0  0  0  0  0  0  0  0  0  0  0
    4.8639   -1.8239   -2.9191 H   0  0  0  0  0  0  0  0  0  0  0  0
    3.0346   -1.9846   -2.7509 H   0  0  0  0  0  0  0  0  0  0  0  0
    2.2194   -1.7694   -0.0497 H   0  0  0  0  0  0  0  0  0  0  0  0
    3.7903   -5.7348    1.3532 H   0  0  0  0  0  0  0  0  0  0  0  0
  1  2  1  0
  1 26  1  0
  1 27  1  0
  1 28  1  0
  2 12  1  0
  2  3  1  0
  2  4  1  0
  3 29  1  0
  3 30  1  0
  3 31  1  0
  4  5  2  0
  4  6  1  0
  6  7  1  0
  6  8  1  0
  6  9  1  0
  7 32  1  0
  7 33  1  0
  7 34  1  0
  8 35  1  0
  8 36  1  0
  8 37  1  0
  9 13  1  0
  9 10  1  0
  9 38  1  6
 10 11  1  0
 10 39  1  0
 10 40  1  0
 11 12  1  0
 11 41  1  0
 11 42  1  0
 12 13  1  0
 12 43  1  6
 13 14  1  0
 13 54  1  6
 14 19  1  0
 14 24  1  6
 14 15  1  0
 15 16  2  0
 15 44  1  0
 16 17  1  0
 16 45  1  0
 17 22  1  0
 17 18  1  0
 17 46  1  6
 18 19  1  0
 18 47  1  0
 18 48  1  0
 19 20  1  0
 19 49  1  6
 20 22  1  0
 20 21  1  0
 20 50  1  1
 21 22  1  0
 21 51  1  0
 21 52  1  0
 22 23  1  1
 23 24  1  0
 23 53  1  0
 24 25  2  0
M  CHG  1  13   1
M  END
>  <i_m_ct_stereo_status>  (181) 
1

>  <s_m_source_file>  (181) 
/var/tmp/pbs.5076255.sched01/tmp0glzbzrw/400n8fk_jm.sdf

>  <i_m_source_file_index>  (181) 
35

>  <i_lp_mmshare_version>  (181) 
48012

>  <i_f3d_flags>  (181) 
0

>  <s_epik_input>  (181) 
W0NIM11DKFtDSDNdKShbQ0BIXTEyKUMoPU8pQyhbQ0gzXSkoW0NIM10pW0NIXShbQ0gyXVtDSDJdMSlOMltDQEBdKEMoPU8pW05IXTMpKFtDSF09W0NIXVtDQEBIXTRbQ0BdMzU2KVtDQEhdKFtDSDJdNClbQ0BASF01W0NIMl02

>  <s_epik_cmdline>  (181) 
J2VwaWtfcHl0aG9uJywgJy1waHQnLCAnMi4wJywgJy1waCcsICc3LjAnLCAnLXRuJywgJzgnLCAnLW1hJywgJzIwMCcsICctaW1hZScsICc8aW5maWxlLm1hZT4nLCAnLW9tYWUnLCAnPG91dGZpbGUubWFlPic=

>  <r_epik_Ionization_Penalty>  (181) 
0.031744

>  <r_epik_Ionization_Penalty_Charging>  (181) 
0.0316934

>  <r_epik_Ionization_Penalty_Neutral>  (181) 
5.06034e-05

>  <r_epik_State_Penalty>  (181) 
0.0262102

>  <r_epik_Charging_Adjusted_Penalty>  (181) 
0.0579036

>  <i_epik_Tot_Q>  (181) 
1

>  <i_epik_Tot_abs_Q>  (181) 
1

>  <s_lp_Force_Field>  (181) 
OPLS3e

>  <r_lp_Energy>  (181) 
110.243

>  <b_lp_Chiralities_Consistent>  (181) 
1

>  <s_lp_Variant>  (181) 
57:0-1

>  <s_i_glide_gridfile>  (181) 
pfpi4k_grid

>  <i_i_glide_lignum>  (181) 
35

>  <i_i_glide_rotatable_bonds>  (181) 
1

>  <r_i_docking_score>  (181) 
-3.17935

>  <r_i_glide_ligand_efficiency>  (181) 
-0.127174

>  <r_i_glide_ligand_efficiency_sa>  (181) 
-0.371859

>  <r_i_glide_ligand_efficiency_ln>  (181) 
-0.753602

>  <r_i_glide_gscore>  (181) 
-3.17935

>  <r_i_glide_lipo>  (181) 
-0.507264

>  <r_i_glide_hbond>  (181) 
-0.16

>  <r_i_glide_metal>  (181) 
-0

>  <r_i_glide_rewards>  (181) 
-1.08091

>  <r_i_glide_evdw>  (181) 
-22.4168

>  <r_i_glide_ecoul>  (181) 
-2.684

>  <r_i_glide_erotb>  (181) 
0.162524

>  <r_i_glide_esite>  (181) 
-0.070269

>  <r_i_glide_emodel>  (181) 
-29.4579

>  <r_i_glide_energy>  (181) 
-25.1008

>  <r_i_glide_einternal>  (181) 
2.20038

>  <r_i_glide_intrahb_reward>  (181) 
-0

>  <i_i_glide_confnum>  (181) 
2

>  <i_i_glide_posenum>  (181) 
27

>  <r_i_glide_eff_state_penalty>  (181) 
0

>  <ligand_id>  (181) 
57

>  <original_smiles>  (181) 
CC1(C)C(=O)C(C)(C)C2CCC1N2C12C=CC3CC1C1CC31NC2=O

>  <smiles>  (181) 
[H]C1=C([H])C2([N+]3([H])C4([H])C([H])([H])C([H])([H])C3([H])C(C([H])([H])[H])(C([H])([H])[H])C(=O)C4(C([H])([H])[H])C([H])([H])[H])C(=O)N([H])C34C([H])([H])C3([H])C2([H])C([H])([H])C14[H]

$$$$
57:0:2
     RDKit          3D

 54 59  0  0  1  0  0  0  0  0999 V2000
    3.7089   -3.1491    4.3254 C   0  0  0  0  0  0  0  0  0  0  0  0
    4.5757   -4.4078    4.0919 C   0  0  0  0  0  0  0  0  0  0  0  0
    5.4610   -4.5628    5.3565 C   0  0  0  0  0  0  0  0  0  0  0  0
    3.6455   -5.6390    3.9706 C   0  0  0  0  0  0  0  0  0  0  0  0
    3.2743   -6.2530    4.9717 O   0  0  0  0  0  0  0  0  0  0  0  0
    3.1334   -6.0301    2.5609 C   0  0  0  0  0  0  0  0  0  0  0  0
    2.7820   -7.5431    2.5514 C   0  0  0  0  0  0  0  0  0  0  0  0
    1.8096   -5.2863    2.3141 C   0  0  0  0  0  0  0  0  0  0  0  0
    4.1890   -5.6535    1.4523 C   0  0  2  0  0  0  0  0  0  0  0  0
    5.5231   -6.4059    1.6735 C   0  0  0  0  0  0  0  0  0  0  0  0
    6.3603   -5.4907    2.5692 C   0  0  0  0  0  0  0  0  0  0  0  0
    5.4451   -4.2530    2.7977 C   0  0  1  0  0  0  0  0  0  0  0  0
    4.5400   -4.2070    1.6090 N   0  0  1  0  0  0  0  0  0  0  0  0
    4.9562   -3.3650    0.4082 C   0  0  1  0  0  0  0  0  0  0  0  0
    6.4595   -3.4838    0.0637 C   0  0  0  0  0  0  0  0  0  0  0  0
    6.8632   -3.0518   -1.1358 C   0  0  0  0  0  0  0  0  0  0  0  0
    5.7880   -2.6528   -2.1170 C   0  0  1  0  0  0  0  0  0  0  0  0
    4.8873   -3.8732   -2.1665 C   0  0  0  0  0  0  0  0  0  0  0  0
    4.0221   -3.5842   -0.9335 C   0  0  2  0  0  0  0  0  0  0  0  0
    3.4124   -2.2700   -1.4419 C   0  0  1  0  0  0  0  0  0  0  0  0
    3.6804   -1.2508   -2.5635 C   0  0  0  0  0  0  0  0  0  0  0  0
    4.7673   -1.5889   -1.6267 C   0  0  2  0  0  0  0  0  0  0  0  0
    5.0144   -1.0293   -0.3288 N   0  0  0  0  0  0  0  0  0  0  0  0
    4.9065   -1.8357    0.7584 C   0  0  0  0  0  0  0  0  0  0  0  0
    4.8298   -1.4106    1.8942 O   0  0  0  0  0  0  0  0  0  0  0  0
    4.3176   -2.3005    4.6418 H   0  0  0  0  0  0  0  0  0  0  0  0
    2.9605   -3.3152    5.1045 H   0  0  0  0  0  0  0  0  0  0  0  0
    3.1655   -2.8293    3.4389 H   0  0  0  0  0  0  0  0  0  0  0  0
    6.2164   -3.7771    5.4269 H   0  0  0  0  0  0  0  0  0  0  0  0
    5.9726   -5.5252    5.3991 H   0  0  0  0  0  0  0  0  0  0  0  0
    4.8589   -4.5166    6.2671 H   0  0  0  0  0  0  0  0  0  0  0  0
    2.5019   -7.8983    1.5575 H   0  0  0  0  0  0  0  0  0  0  0  0
    1.9422   -7.7538    3.2179 H   0  0  0  0  0  0  0  0  0  0  0  0
    3.5951   -8.1718    2.9183 H   0  0  0  0  0  0  0  0  0  0  0  0
    1.3432   -5.6257    1.3905 H   0  0  0  0  0  0  0  0  0  0  0  0
    1.9226   -4.2057    2.2486 H   0  0  0  0  0  0  0  0  0  0  0  0
    1.1011   -5.4717    3.1244 H   0  0  0  0  0  0  0  0  0  0  0  0
    3.7798   -5.9136    0.4758 H   0  0  0  0  0  0  0  0  0  0  0  0
    5.4155   -7.3806    2.1434 H   0  0  0  0  0  0  0  0  0  0  0  0
    6.0337   -6.5631    0.7218 H   0  0  0  0  0  0  0  0  0  0  0  0
    6.6918   -5.9808    3.4859 H   0  0  0  0  0  0  0  0  0  0  0  0
    7.2988   -5.2719    2.0590 H   0  0  0  0  0  0  0  0  0  0  0  0
    6.0563   -3.3604    2.9015 H   0  0  0  0  0  0  0  0  0  0  0  0
    7.2185   -3.7140    0.7973 H   0  0  0  0  0  0  0  0  0  0  0  0
    7.9001   -3.0306   -1.4438 H   0  0  0  0  0  0  0  0  0  0  0  0
    6.1978   -2.4111   -3.0897 H   0  0  0  0  0  0  0  0  0  0  0  0
    4.3098   -3.8863   -3.0934 H   0  0  0  0  0  0  0  0  0  0  0  0
    5.4060   -4.8264   -2.1029 H   0  0  0  0  0  0  0  0  0  0  0  0
    3.2128   -4.3112   -0.8220 H   0  0  0  0  0  0  0  0  0  0  0  0
    2.6581   -1.8809   -0.7630 H   0  0  0  0  0  0  0  0  0  0  0  0
    3.7660   -1.6323   -3.5780 H   0  0  0  0  0  0  0  0  0  0  0  0
    3.2138   -0.2691   -2.4747 H   0  0  0  0  0  0  0  0  0  0  0  0
    4.9827   -0.0247   -0.1978 H   0  0  0  0  0  0  0  0  0  0  0  0
    3.6926   -3.7467    1.9129 H   0  0  0  0  0  0  0  0  0  0  0  0
  1  2  1  0
  1 26  1  0
  1 27  1  0
  1 28  1  0
  2 12  1  0
  2  3  1  0
  2  4  1  0
  3 29  1  0
  3 30  1  0
  3 31  1  0
  4  5  2  0
  4  6  1  0
  6  7  1  0
  6  8  1  0
  6  9  1  0
  7 32  1  0
  7 33  1  0
  7 34  1  0
  8 35  1  0
  8 36  1  0
  8 37  1  0
  9 13  1  0
  9 10  1  0
  9 38  1  6
 10 11  1  0
 10 39  1  0
 10 40  1  0
 11 12  1  0
 11 41  1  0
 11 42  1  0
 12 13  1  0
 12 43  1  1
 13 14  1  0
 13 54  1  1
 14 19  1  0
 14 24  1  1
 14 15  1  0
 15 16  2  0
 15 44  1  0
 16 17  1  0
 16 45  1  0
 17 22  1  0
 17 18  1  0
 17 46  1  6
 18 19  1  0
 18 47  1  0
 18 48  1  0
 19 20  1  0
 19 49  1  1
 20 22  1  0
 20 21  1  0
 20 50  1  1
 21 22  1  0
 21 51  1  0
 21 52  1  0
 22 23  1  1
 23 24  1  0
 23 53  1  0
 24 25  2  0
M  CHG  1  13   1
M  END
>  <i_m_ct_stereo_status>  (182) 
1

>  <s_m_source_file>  (182) 
/var/tmp/pbs.5076255.sched01/tmp0glzbzrw/400n8fk_jm.sdf

>  <i_m_source_file_index>  (182) 
35

>  <i_lp_mmshare_version>  (182) 
48012

>  <i_f3d_flags>  (182) 
0

>  <s_epik_input>  (182) 
W0NIM11DKFtDSDNdKShbQ0BIXTEyKUMoPU8pQyhbQ0gzXSkoW0NIM10pW0NIXShbQ0gyXVtDSDJdMSlOMltDQEBdKEMoPU8pW05IXTMpKFtDSF09W0NIXVtDQEBIXTRbQ0BdMzU2KVtDQEhdKFtDSDJdNClbQ0BASF01W0NIMl02

>  <s_epik_cmdline>  (182) 
J2VwaWtfcHl0aG9uJywgJy1waHQnLCAnMi4wJywgJy1waCcsICc3LjAnLCAnLXRuJywgJzgnLCAnLW1hJywgJzIwMCcsICctaW1hZScsICc8aW5maWxlLm1hZT4nLCAnLW9tYWUnLCAnPG91dGZpbGUubWFlPic=

>  <r_epik_Ionization_Penalty>  (182) 
0.031744

>  <r_epik_Ionization_Penalty_Charging>  (182) 
0.0316934

>  <r_epik_Ionization_Penalty_Neutral>  (182) 
5.06034e-05

>  <r_epik_State_Penalty>  (182) 
0.0262102

>  <r_epik_Charging_Adjusted_Penalty>  (182) 
0.0579036

>  <i_epik_Tot_Q>  (182) 
1

>  <i_epik_Tot_abs_Q>  (182) 
1

>  <s_lp_Force_Field>  (182) 
OPLS3e

>  <r_lp_Energy>  (182) 
110.243

>  <b_lp_Chiralities_Consistent>  (182) 
1

>  <s_lp_Variant>  (182) 
57:0-1

>  <s_i_glide_gridfile>  (182) 
pfpi4k_grid

>  <i_i_glide_lignum>  (182) 
35

>  <i_i_glide_rotatable_bonds>  (182) 
1

>  <r_i_docking_score>  (182) 
-3.09917

>  <r_i_glide_ligand_efficiency>  (182) 
-0.123967

>  <r_i_glide_ligand_efficiency_sa>  (182) 
-0.362482

>  <r_i_glide_ligand_efficiency_ln>  (182) 
-0.734597

>  <r_i_glide_gscore>  (182) 
-3.09917

>  <r_i_glide_lipo>  (182) 
-0.349499

>  <r_i_glide_hbond>  (182) 
-0.112789

>  <r_i_glide_metal>  (182) 
-0

>  <r_i_glide_rewards>  (182) 
-1.12653

>  <r_i_glide_evdw>  (182) 
-23.8768

>  <r_i_glide_ecoul>  (182) 
-3.07436

>  <r_i_glide_erotb>  (182) 
0.162524

>  <r_i_glide_esite>  (182) 
-0.0178916

>  <r_i_glide_emodel>  (182) 
-31.0949

>  <r_i_glide_energy>  (182) 
-26.9511

>  <r_i_glide_einternal>  (182) 
2.18458

>  <r_i_glide_intrahb_reward>  (182) 
-0

>  <i_i_glide_confnum>  (182) 
5

>  <i_i_glide_posenum>  (182) 
21

>  <r_i_glide_eff_state_penalty>  (182) 
0

>  <ligand_id>  (182) 
57

>  <original_smiles>  (182) 
CC1(C)C(=O)C(C)(C)C2CCC1N2C12C=CC3CC1C1CC31NC2=O

>  <smiles>  (182) 
[H]C1=C([H])C2([N+]3([H])C4([H])C([H])([H])C([H])([H])C3([H])C(C([H])([H])[H])(C([H])([H])[H])C(=O)C4(C([H])([H])[H])C([H])([H])[H])C(=O)N([H])C34C([H])([H])C3([H])C2([H])C([H])([H])C14[H]

$$$$
57:1:0
     RDKit          3D

 53 58  0  0  1  0  0  0  0  0999 V2000
    2.6396   -3.2703   -1.2721 C   0  0  0  0  0  0  0  0  0  0  0  0
    4.1339   -3.3957   -0.9012 C   0  0  0  0  0  0  0  0  0  0  0  0
    4.8989   -3.5643   -2.2370 C   0  0  0  0  0  0  0  0  0  0  0  0
    4.5971   -2.1098   -0.2013 C   0  0  0  0  0  0  0  0  0  0  0  0
    5.0227   -1.1480   -0.8551 O   0  0  0  0  0  0  0  0  0  0  0  0
    4.5012   -2.0458    1.3358 C   0  0  0  0  0  0  0  0  0  0  0  0
    5.5777   -1.0745    1.8764 C   0  0  0  0  0  0  0  0  0  0  0  0
    3.1373   -1.4444    1.7326 C   0  0  0  0  0  0  0  0  0  0  0  0
    4.6672   -3.4743    1.9777 C   0  0  2  0  0  0  0  0  0  0  0  0
    6.0304   -4.1276    1.6955 C   0  0  0  0  0  0  0  0  0  0  0  0
    5.8541   -4.8556    0.3829 C   0  0  0  0  0  0  0  0  0  0  0  0
    4.3518   -4.6419    0.0279 C   0  0  1  0  0  0  0  0  0  0  0  0
    3.6965   -4.3929    1.3395 N   0  0  0  0  0  0  0  0  0  0  0  0
    3.0914   -5.5605    2.0630 C   0  0  1  0  0  0  0  0  0  0  0  0
    3.9507   -6.8424    2.0108 C   0  0  0  0  0  0  0  0  0  0  0  0
    3.6910   -7.8059    2.8898 C   0  0  0  0  0  0  0  0  0  0  0  0
    2.7030   -7.4843    3.9907 C   0  0  1  0  0  0  0  0  0  0  0  0
    3.2948   -6.2073    4.6089 C   0  0  0  0  0  0  0  0  0  0  0  0
    2.6734   -5.1908    3.6230 C   0  0  2  0  0  0  0  0  0  0  0  0
    1.1908   -5.4742    3.9033 C   0  0  1  0  0  0  0  0  0  0  0  0
    0.3643   -6.5664    4.5890 C   0  0  0  0  0  0  0  0  0  0  0  0
    1.3093   -6.9564    3.5337 C   0  0  2  0  0  0  0  0  0  0  0  0
    1.0823   -6.9605    2.1208 N   0  0  0  0  0  0  0  0  0  0  0  0
    1.7885   -6.1141    1.3645 C   0  0  0  0  0  0  0  0  0  0  0  0
    1.4576   -5.8379    0.2115 O   0  0  0  0  0  0  0  0  0  0  0  0
    2.2934   -4.0890   -1.9091 H   0  0  0  0  0  0  0  0  0  0  0  0
    2.4477   -2.3408   -1.8109 H   0  0  0  0  0  0  0  0  0  0  0  0
    1.9963   -3.2702   -0.3940 H   0  0  0  0  0  0  0  0  0  0  0  0
    4.7062   -4.5405   -2.6884 H   0  0  0  0  0  0  0  0  0  0  0  0
    5.9761   -3.4626   -2.1181 H   0  0  0  0  0  0  0  0  0  0  0  0
    4.5979   -2.8052   -2.9595 H   0  0  0  0  0  0  0  0  0  0  0  0
    5.6452   -1.0986    2.9692 H   0  0  0  0  0  0  0  0  0  0  0  0
    5.3554   -0.0464    1.5833 H   0  0  0  0  0  0  0  0  0  0  0  0
    6.5708   -1.2879    1.4769 H   0  0  0  0  0  0  0  0  0  0  0  0
    3.0600   -1.2879    2.8114 H   0  0  0  0  0  0  0  0  0  0  0  0
    2.3008   -2.0738    1.4398 H   0  0  0  0  0  0  0  0  0  0  0  0
    2.9863   -0.4806    1.2469 H   0  0  0  0  0  0  0  0  0  0  0  0
    4.5642   -3.3621    3.0584 H   0  0  0  0  0  0  0  0  0  0  0  0
    6.8535   -3.4217    1.6313 H   0  0  0  0  0  0  0  0  0  0  0  0
    6.2711   -4.8422    2.4829 H   0  0  0  0  0  0  0  0  0  0  0  0
    6.5473   -4.4732   -0.3639 H   0  0  0  0  0  0  0  0  0  0  0  0
    6.1546   -5.8970    0.5169 H   0  0  0  0  0  0  0  0  0  0  0  0
    3.9594   -5.5206   -0.4916 H   0  0  0  0  0  0  0  0  0  0  0  0
    4.5940   -7.0787    1.1815 H   0  0  0  0  0  0  0  0  0  0  0  0
    4.1588   -8.7742    2.8808 H   0  0  0  0  0  0  0  0  0  0  0  0
    2.5899   -8.3240    4.6807 H   0  0  0  0  0  0  0  0  0  0  0  0
    2.9214   -6.0688    5.6311 H   0  0  0  0  0  0  0  0  0  0  0  0
    4.3920   -6.1964    4.6325 H   0  0  0  0  0  0  0  0  0  0  0  0
    2.8492   -4.1515    3.9282 H   0  0  0  0  0  0  0  0  0  0  0  0
    0.5461   -4.7867    3.3620 H   0  0  0  0  0  0  0  0  0  0  0  0
    0.6309   -6.8361    5.6085 H   0  0  0  0  0  0  0  0  0  0  0  0
   -0.6995   -6.6142    4.3611 H   0  0  0  0  0  0  0  0  0  0  0  0
    0.2558   -7.4094    1.7429 H   0  0  0  0  0  0  0  0  0  0  0  0
  1  2  1  0
  1 26  1  0
  1 27  1  0
  1 28  1  0
  2 12  1  0
  2  3  1  0
  2  4  1  0
  3 29  1  0
  3 30  1  0
  3 31  1  0
  4  5  2  0
  4  6  1  0
  6  7  1  0
  6  8  1  0
  6  9  1  0
  7 32  1  0
  7 33  1  0
  7 34  1  0
  8 35  1  0
  8 36  1  0
  8 37  1  0
  9 13  1  0
  9 10  1  0
  9 38  1  1
 10 11  1  0
 10 39  1  0
 10 40  1  0
 11 12  1  0
 11 41  1  0
 11 42  1  0
 12 13  1  0
 12 43  1  6
 14 13  1  6
 14 19  1  0
 14 24  1  0
 14 15  1  0
 15 16  2  0
 15 44  1  0
 16 17  1  0
 16 45  1  0
 17 22  1  0
 17 18  1  0
 17 46  1  1
 18 19  1  0
 18 47  1  0
 18 48  1  0
 19 20  1  0
 19 49  1  1
 20 22  1  0
 20 21  1  0
 20 50  1  6
 21 22  1  0
 21 51  1  0
 21 52  1  0
 22 23  1  6
 23 24  1  0
 23 53  1  0
 24 25  2  0
M  END
>  <i_m_ct_stereo_status>  (183) 
1

>  <s_m_source_file>  (183) 
/var/tmp/pbs.5076255.sched01/tmp0glzbzrw/400n8fk_jm.sdf

>  <i_m_source_file_index>  (183) 
36

>  <i_lp_mmshare_version>  (183) 
48012

>  <i_f3d_flags>  (183) 
0

>  <s_epik_input>  (183) 
W0NIM11DKFtDSDNdKShbQ0BIXTEyKUMoPU8pQyhbQ0gzXSkoW0NIM10pW0NIXShbQ0gyXVtDSDJdMSlOMltDQEBdKEMoPU8pW05IXTMpKFtDSF09W0NIXVtDQEBIXTRbQ0BdMzU2KVtDQEhdKFtDSDJdNClbQ0BASF01W0NIMl02

>  <s_epik_cmdline>  (183) 
J2VwaWtfcHl0aG9uJywgJy1waHQnLCAnMi4wJywgJy1waCcsICc3LjAnLCAnLXRuJywgJzgnLCAnLW1hJywgJzIwMCcsICctaW1hZScsICc8aW5maWxlLm1hZT4nLCAnLW9tYWUnLCAnPG91dGZpbGUubWFlPic=

>  <r_epik_Ionization_Penalty>  (183) 
1.7507

>  <r_epik_Ionization_Penalty_Charging>  (183) 
0

>  <r_epik_Ionization_Penalty_Neutral>  (183) 
1.7507

>  <r_epik_State_Penalty>  (183) 
1.86053

>  <r_epik_Charging_Adjusted_Penalty>  (183) 
1.86053

>  <i_epik_Tot_Q>  (183) 
0

>  <i_epik_Tot_abs_Q>  (183) 
0

>  <s_lp_Force_Field>  (183) 
OPLS3e

>  <r_lp_Energy>  (183) 
111.432

>  <b_lp_Chiralities_Consistent>  (183) 
1

>  <s_lp_Variant>  (183) 
57:0-2

>  <s_i_glide_gridfile>  (183) 
pfpi4k_grid

>  <i_i_glide_lignum>  (183) 
36

>  <i_i_glide_rotatable_bonds>  (183) 
1

>  <r_i_docking_score>  (183) 
-3.3667

>  <r_i_glide_ligand_efficiency>  (183) 
-0.134668

>  <r_i_glide_ligand_efficiency_sa>  (183) 
-0.393772

>  <r_i_glide_ligand_efficiency_ln>  (183) 
-0.798009

>  <r_i_glide_gscore>  (183) 
-3.3667

>  <r_i_glide_lipo>  (183) 
-0.463739

>  <r_i_glide_hbond>  (183) 
-0.146905

>  <r_i_glide_metal>  (183) 
-0

>  <r_i_glide_rewards>  (183) 
-1.08778

>  <r_i_glide_evdw>  (183) 
-27.0231

>  <r_i_glide_ecoul>  (183) 
-2.46382

>  <r_i_glide_erotb>  (183) 
0.163379

>  <r_i_glide_esite>  (183) 
-0.110929

>  <r_i_glide_emodel>  (183) 
-33.0631

>  <r_i_glide_energy>  (183) 
-29.4869

>  <r_i_glide_einternal>  (183) 
4.39755

>  <r_i_glide_intrahb_reward>  (183) 
-0

>  <i_i_glide_confnum>  (183) 
4

>  <i_i_glide_posenum>  (183) 
16

>  <r_i_glide_eff_state_penalty>  (183) 
0

>  <ligand_id>  (183) 
57

>  <original_smiles>  (183) 
CC1(C)C(=O)C(C)(C)C2CCC1N2C12C=CC3CC1C1CC31NC2=O

>  <smiles>  (183) 
[H]C1=C([H])C2([H])C([H])([H])C3([H])C1(N1C4([H])C([H])([H])C([H])([H])C1([H])C(C([H])([H])[H])(C([H])([H])[H])C(=O)C4(C([H])([H])[H])C([H])([H])[H])C(=O)N([H])C21C([H])([H])C31[H]

$$$$
57:1:1
     RDKit          3D

 53 58  0  0  1  0  0  0  0  0999 V2000
    2.4062   -6.9456    2.7210 C   0  0  0  0  0  0  0  0  0  0  0  0
    2.4540   -5.8603    3.8209 C   0  0  0  0  0  0  0  0  0  0  0  0
    1.1414   -6.0048    4.6342 C   0  0  0  0  0  0  0  0  0  0  0  0
    3.6638   -6.1375    4.7483 C   0  0  0  0  0  0  0  0  0  0  0  0
    3.5662   -6.9075    5.7065 O   0  0  0  0  0  0  0  0  0  0  0  0
    5.0133   -5.4538    4.4034 C   0  0  0  0  0  0  0  0  0  0  0  0
    5.8301   -5.2668    5.7074 C   0  0  0  0  0  0  0  0  0  0  0  0
    5.8304   -6.4123    3.5098 C   0  0  0  0  0  0  0  0  0  0  0  0
    4.7812   -4.0784    3.6721 C   0  0  2  0  0  0  0  0  0  0  0  0
    4.0302   -3.0449    4.5304 C   0  0  0  0  0  0  0  0  0  0  0  0
    2.5616   -3.3039    4.2609 C   0  0  0  0  0  0  0  0  0  0  0  0
    2.5642   -4.4308    3.1907 C   0  0  1  0  0  0  0  0  0  0  0  0
    3.8807   -4.3100    2.5223 N   0  0  0  0  0  0  0  0  0  0  0  0
    3.9851   -3.4914    1.2724 C   0  0  1  0  0  0  0  0  0  0  0  0
    3.2202   -2.1545    1.3583 C   0  0  0  0  0  0  0  0  0  0  0  0
    3.5064   -1.2070    0.4645 C   0  0  0  0  0  0  0  0  0  0  0  0
    4.6922   -1.4501   -0.4365 C   0  0  1  0  0  0  0  0  0  0  0  0
    5.8163   -1.7332    0.5659 C   0  0  0  0  0  0  0  0  0  0  0  0
    5.5370   -3.2399    0.7729 C   0  0  2  0  0  0  0  0  0  0  0  0
    5.7562   -3.7165   -0.6684 C   0  0  1  0  0  0  0  0  0  0  0  0
    5.8624   -3.0758   -2.0585 C   0  0  0  0  0  0  0  0  0  0  0  0
    4.6733   -2.7841   -1.2403 C   0  0  2  0  0  0  0  0  0  0  0  0
    3.4844   -3.5814   -1.1235 N   0  0  0  0  0  0  0  0  0  0  0  0
    3.1810   -4.1316    0.0771 C   0  0  0  0  0  0  0  0  0  0  0  0
    2.3291   -4.9994    0.2005 O   0  0  0  0  0  0  0  0  0  0  0  0
    1.4809   -6.8919    2.1484 H   0  0  0  0  0  0  0  0  0  0  0  0
    2.4715   -7.9495    3.1443 H   0  0  0  0  0  0  0  0  0  0  0  0
    3.2211   -6.8516    2.0065 H   0  0  0  0  0  0  0  0  0  0  0  0
    0.2760   -5.6776    4.0596 H   0  0  0  0  0  0  0  0  0  0  0  0
    1.1632   -5.4341    5.5613 H   0  0  0  0  0  0  0  0  0  0  0  0
    0.9720   -7.0409    4.9285 H   0  0  0  0  0  0  0  0  0  0  0  0
    6.7286   -4.6720    5.5411 H   0  0  0  0  0  0  0  0  0  0  0  0
    6.1441   -6.2286    6.1167 H   0  0  0  0  0  0  0  0  0  0  0  0
    5.2491   -4.7885    6.4957 H   0  0  0  0  0  0  0  0  0  0  0  0
    6.8308   -6.0268    3.3155 H   0  0  0  0  0  0  0  0  0  0  0  0
    5.3605   -6.5867    2.5443 H   0  0  0  0  0  0  0  0  0  0  0  0
    5.9414   -7.3882    3.9846 H   0  0  0  0  0  0  0  0  0  0  0  0
    5.7586   -3.6757    3.4112 H   0  0  0  0  0  0  0  0  0  0  0  0
    4.2357   -3.1162    5.5943 H   0  0  0  0  0  0  0  0  0  0  0  0
    4.2976   -2.0357    4.2186 H   0  0  0  0  0  0  0  0  0  0  0  0
    2.0184   -3.5531    5.1707 H   0  0  0  0  0  0  0  0  0  0  0  0
    2.0892   -2.3784    3.9338 H   0  0  0  0  0  0  0  0  0  0  0  0
    1.7171   -4.2984    2.5243 H   0  0  0  0  0  0  0  0  0  0  0  0
    2.3254   -2.0306    1.9540 H   0  0  0  0  0  0  0  0  0  0  0  0
    2.9492   -0.2854    0.3925 H   0  0  0  0  0  0  0  0  0  0  0  0
    4.8601   -0.6014   -1.0928 H   0  0  0  0  0  0  0  0  0  0  0  0
    6.7938   -1.5578    0.1114 H   0  0  0  0  0  0  0  0  0  0  0  0
    5.7544   -1.1380    1.4819 H   0  0  0  0  0  0  0  0  0  0  0  0
    6.2992   -3.7205    1.3875 H   0  0  0  0  0  0  0  0  0  0  0  0
    5.6896   -4.8000   -0.7573 H   0  0  0  0  0  0  0  0  0  0  0  0
    6.5911   -2.2767   -2.1843 H   0  0  0  0  0  0  0  0  0  0  0  0
    5.7416   -3.7241   -2.9286 H   0  0  0  0  0  0  0  0  0  0  0  0
    3.0488   -3.9821   -1.9455 H   0  0  0  0  0  0  0  0  0  0  0  0
  1  2  1  0
  1 26  1  0
  1 27  1  0
  1 28  1  0
  2 12  1  0
  2  3  1  0
  2  4  1  0
  3 29  1  0
  3 30  1  0
  3 31  1  0
  4  5  2  0
  4  6  1  0
  6  7  1  0
  6  8  1  0
  6  9  1  0
  7 32  1  0
  7 33  1  0
  7 34  1  0
  8 35  1  0
  8 36  1  0
  8 37  1  0
  9 13  1  0
  9 10  1  0
  9 38  1  6
 10 11  1  0
 10 39  1  0
 10 40  1  0
 11 12  1  0
 11 41  1  0
 11 42  1  0
 12 13  1  0
 12 43  1  6
 14 13  1  1
 14 19  1  0
 14 24  1  0
 14 15  1  0
 15 16  2  0
 15 44  1  0
 16 17  1  0
 16 45  1  0
 17 22  1  0
 17 18  1  0
 17 46  1  6
 18 19  1  0
 18 47  1  0
 18 48  1  0
 19 20  1  0
 19 49  1  1
 20 22  1  0
 20 21  1  0
 20 50  1  1
 21 22  1  0
 21 51  1  0
 21 52  1  0
 22 23  1  6
 23 24  1  0
 23 53  1  0
 24 25  2  0
M  END
>  <i_m_ct_stereo_status>  (184) 
1

>  <s_m_source_file>  (184) 
/var/tmp/pbs.5076255.sched01/tmp0glzbzrw/400n8fk_jm.sdf

>  <i_m_source_file_index>  (184) 
36

>  <i_lp_mmshare_version>  (184) 
48012

>  <i_f3d_flags>  (184) 
0

>  <s_epik_input>  (184) 
W0NIM11DKFtDSDNdKShbQ0BIXTEyKUMoPU8pQyhbQ0gzXSkoW0NIM10pW0NIXShbQ0gyXVtDSDJdMSlOMltDQEBdKEMoPU8pW05IXTMpKFtDSF09W0NIXVtDQEBIXTRbQ0BdMzU2KVtDQEhdKFtDSDJdNClbQ0BASF01W0NIMl02

>  <s_epik_cmdline>  (184) 
J2VwaWtfcHl0aG9uJywgJy1waHQnLCAnMi4wJywgJy1waCcsICc3LjAnLCAnLXRuJywgJzgnLCAnLW1hJywgJzIwMCcsICctaW1hZScsICc8aW5maWxlLm1hZT4nLCAnLW9tYWUnLCAnPG91dGZpbGUubWFlPic=

>  <r_epik_Ionization_Penalty>  (184) 
1.7507

>  <r_epik_Ionization_Penalty_Charging>  (184) 
0

>  <r_epik_Ionization_Penalty_Neutral>  (184) 
1.7507

>  <r_epik_State_Penalty>  (184) 
1.86053

>  <r_epik_Charging_Adjusted_Penalty>  (184) 
1.86053

>  <i_epik_Tot_Q>  (184) 
0

>  <i_epik_Tot_abs_Q>  (184) 
0

>  <s_lp_Force_Field>  (184) 
OPLS3e

>  <r_lp_Energy>  (184) 
111.432

>  <b_lp_Chiralities_Consistent>  (184) 
1

>  <s_lp_Variant>  (184) 
57:0-2

>  <s_i_glide_gridfile>  (184) 
pfpi4k_grid

>  <i_i_glide_lignum>  (184) 
36

>  <i_i_glide_rotatable_bonds>  (184) 
1

>  <r_i_docking_score>  (184) 
-2.89771

>  <r_i_glide_ligand_efficiency>  (184) 
-0.115908

>  <r_i_glide_ligand_efficiency_sa>  (184) 
-0.338918

>  <r_i_glide_ligand_efficiency_ln>  (184) 
-0.686844

>  <r_i_glide_gscore>  (184) 
-2.89771

>  <r_i_glide_lipo>  (184) 
-0.366263

>  <r_i_glide_hbond>  (184) 
-0.098892

>  <r_i_glide_metal>  (184) 
-0

>  <r_i_glide_rewards>  (184) 
-1.08778

>  <r_i_glide_evdw>  (184) 
-22.9345

>  <r_i_glide_ecoul>  (184) 
-2.29264

>  <r_i_glide_erotb>  (184) 
0.163379

>  <r_i_glide_esite>  (184) 
-0.0175362

>  <r_i_glide_emodel>  (184) 
-28.1137

>  <r_i_glide_energy>  (184) 
-25.2271

>  <r_i_glide_einternal>  (184) 
4.14003

>  <r_i_glide_intrahb_reward>  (184) 
-0

>  <i_i_glide_confnum>  (184) 
4

>  <i_i_glide_posenum>  (184) 
27

>  <r_i_glide_eff_state_penalty>  (184) 
0

>  <ligand_id>  (184) 
57

>  <original_smiles>  (184) 
CC1(C)C(=O)C(C)(C)C2CCC1N2C12C=CC3CC1C1CC31NC2=O

>  <smiles>  (184) 
[H]C1=C([H])C2([H])C([H])([H])C3([H])C1(N1C4([H])C([H])([H])C([H])([H])C1([H])C(C([H])([H])[H])(C([H])([H])[H])C(=O)C4(C([H])([H])[H])C([H])([H])[H])C(=O)N([H])C21C([H])([H])C31[H]

$$$$
57:1:2
     RDKit          3D

 53 58  0  0  1  0  0  0  0  0999 V2000
    2.7694   -7.5444    1.7687 C   0  0  0  0  0  0  0  0  0  0  0  0
    3.1999   -6.7447    3.0194 C   0  0  0  0  0  0  0  0  0  0  0  0
    2.2000   -7.1222    4.1410 C   0  0  0  0  0  0  0  0  0  0  0  0
    4.6269   -7.1858    3.4290 C   0  0  0  0  0  0  0  0  0  0  0  0
    4.8059   -8.1618    4.1618 O   0  0  0  0  0  0  0  0  0  0  0  0
    5.8262   -6.3899    2.8501 C   0  0  0  0  0  0  0  0  0  0  0  0
    7.0157   -6.4824    3.8397 C   0  0  0  0  0  0  0  0  0  0  0  0
    6.2869   -7.0859    1.5528 C   0  0  0  0  0  0  0  0  0  0  0  0
    5.4302   -4.8915    2.5634 C   0  0  2  0  0  0  0  0  0  0  0  0
    5.0243   -4.1141    3.8293 C   0  0  0  0  0  0  0  0  0  0  0  0
    3.5390   -4.3621    3.9885 C   0  0  0  0  0  0  0  0  0  0  0  0
    3.1622   -5.2037    2.7408 C   0  0  1  0  0  0  0  0  0  0  0  0
    4.2056   -4.8860    1.7374 N   0  0  0  0  0  0  0  0  0  0  0  0
    3.9504   -3.8015    0.7356 C   0  0  1  0  0  0  0  0  0  0  0  0
    3.3626   -2.5218    1.3707 C   0  0  0  0  0  0  0  0  0  0  0  0
    3.4162   -1.3891    0.6677 C   0  0  0  0  0  0  0  0  0  0  0  0
    4.2104   -1.4144   -0.6124 C   0  0  1  0  0  0  0  0  0  0  0  0
    5.5764   -1.9208   -0.1409 C   0  0  0  0  0  0  0  0  0  0  0  0
    5.2657   -3.4340   -0.1892 C   0  0  2  0  0  0  0  0  0  0  0  0
    4.9616   -3.5562   -1.6905 C   0  0  1  0  0  0  0  0  0  0  0  0
    4.6398   -2.6074   -2.8515 C   0  0  0  0  0  0  0  0  0  0  0  0
    3.8205   -2.5231   -1.6348 C   0  0  2  0  0  0  0  0  0  0  0  0
    2.6816   -3.3356   -1.3060 N   0  0  0  0  0  0  0  0  0  0  0  0
    2.7617   -4.1610   -0.2334 C   0  0  0  0  0  0  0  0  0  0  0  0
    1.9554   -5.0591   -0.0363 O   0  0  0  0  0  0  0  0  0  0  0  0
    1.7150   -7.3927    1.5393 H   0  0  0  0  0  0  0  0  0  0  0  0
    2.9235   -8.6169    1.9025 H   0  0  0  0  0  0  0  0  0  0  0  0
    3.3279   -7.2541    0.8818 H   0  0  0  0  0  0  0  0  0  0  0  0
    1.2122   -6.7017    3.9538 H   0  0  0  0  0  0  0  0  0  0  0  0
    2.5300   -6.7820    5.1211 H   0  0  0  0  0  0  0  0  0  0  0  0
    2.0896   -8.2039    4.2245 H   0  0  0  0  0  0  0  0  0  0  0  0
    7.8429   -5.8368    3.5426 H   0  0  0  0  0  0  0  0  0  0  0  0
    7.4016   -7.5019    3.8963 H   0  0  0  0  0  0  0  0  0  0  0  0
    6.7278   -6.2205    4.8579 H   0  0  0  0  0  0  0  0  0  0  0  0
    7.1917   -6.6312    1.1506 H   0  0  0  0  0  0  0  0  0  0  0  0
    5.5314   -7.0466    0.7713 H   0  0  0  0  0  0  0  0  0  0  0  0
    6.5008   -8.1413    1.7299 H   0  0  0  0  0  0  0  0  0  0  0  0
    6.2878   -4.4024    2.1006 H   0  0  0  0  0  0  0  0  0  0  0  0
    5.5510   -4.4229    4.7271 H   0  0  0  0  0  0  0  0  0  0  0  0
    5.2178   -3.0513    3.6922 H   0  0  0  0  0  0  0  0  0  0  0  0
    3.3032   -4.8417    4.9361 H   0  0  0  0  0  0  0  0  0  0  0  0
    3.0156   -3.4102    4.0549 H   0  0  0  0  0  0  0  0  0  0  0  0
    2.1510   -4.9465    2.4380 H   0  0  0  0  0  0  0  0  0  0  0  0
    2.7395   -2.5374    2.2546 H   0  0  0  0  0  0  0  0  0  0  0  0
    2.9482   -0.4699    0.9888 H   0  0  0  0  0  0  0  0  0  0  0  0
    4.2214   -0.4350   -1.0812 H   0  0  0  0  0  0  0  0  0  0  0  0
    6.3523   -1.6375   -0.8549 H   0  0  0  0  0  0  0  0  0  0  0  0
    5.8690   -1.5519    0.8476 H   0  0  0  0  0  0  0  0  0  0  0  0
    6.1444   -4.0461    0.0161 H   0  0  0  0  0  0  0  0  0  0  0  0
    4.7883   -4.5876   -1.9957 H   0  0  0  0  0  0  0  0  0  0  0  0
    5.3331   -1.7911   -3.0319 H   0  0  0  0  0  0  0  0  0  0  0  0
    4.1807   -3.0292   -3.7474 H   0  0  0  0  0  0  0  0  0  0  0  0
    1.9565   -3.4897   -1.9939 H   0  0  0  0  0  0  0  0  0  0  0  0
  1  2  1  0
  1 26  1  0
  1 27  1  0
  1 28  1  0
  2 12  1  0
  2  3  1  0
  2  4  1  0
  3 29  1  0
  3 30  1  0
  3 31  1  0
  4  5  2  0
  4  6  1  0
  6  7  1  0
  6  8  1  0
  6  9  1  0
  7 32  1  0
  7 33  1  0
  7 34  1  0
  8 35  1  0
  8 36  1  0
  8 37  1  0
  9 13  1  0
  9 10  1  0
  9 38  1  6
 10 11  1  0
 10 39  1  0
 10 40  1  0
 11 12  1  0
 11 41  1  0
 11 42  1  0
 12 13  1  0
 12 43  1  6
 14 13  1  1
 14 19  1  0
 14 24  1  0
 14 15  1  0
 15 16  2  0
 15 44  1  0
 16 17  1  0
 16 45  1  0
 17 22  1  0
 17 18  1  0
 17 46  1  6
 18 19  1  0
 18 47  1  0
 18 48  1  0
 19 20  1  0
 19 49  1  1
 20 22  1  0
 20 21  1  0
 20 50  1  6
 21 22  1  0
 21 51  1  0
 21 52  1  0
 22 23  1  6
 23 24  1  0
 23 53  1  0
 24 25  2  0
M  END
>  <i_m_ct_stereo_status>  (185) 
1

>  <s_m_source_file>  (185) 
/var/tmp/pbs.5076255.sched01/tmp0glzbzrw/400n8fk_jm.sdf

>  <i_m_source_file_index>  (185) 
36

>  <i_lp_mmshare_version>  (185) 
48012

>  <i_f3d_flags>  (185) 
0

>  <s_epik_input>  (185) 
W0NIM11DKFtDSDNdKShbQ0BIXTEyKUMoPU8pQyhbQ0gzXSkoW0NIM10pW0NIXShbQ0gyXVtDSDJdMSlOMltDQEBdKEMoPU8pW05IXTMpKFtDSF09W0NIXVtDQEBIXTRbQ0BdMzU2KVtDQEhdKFtDSDJdNClbQ0BASF01W0NIMl02

>  <s_epik_cmdline>  (185) 
J2VwaWtfcHl0aG9uJywgJy1waHQnLCAnMi4wJywgJy1waCcsICc3LjAnLCAnLXRuJywgJzgnLCAnLW1hJywgJzIwMCcsICctaW1hZScsICc8aW5maWxlLm1hZT4nLCAnLW9tYWUnLCAnPG91dGZpbGUubWFlPic=

>  <r_epik_Ionization_Penalty>  (185) 
1.7507

>  <r_epik_Ionization_Penalty_Charging>  (185) 
0

>  <r_epik_Ionization_Penalty_Neutral>  (185) 
1.7507

>  <r_epik_State_Penalty>  (185) 
1.86053

>  <r_epik_Charging_Adjusted_Penalty>  (185) 
1.86053

>  <i_epik_Tot_Q>  (185) 
0

>  <i_epik_Tot_abs_Q>  (185) 
0

>  <s_lp_Force_Field>  (185) 
OPLS3e

>  <r_lp_Energy>  (185) 
111.432

>  <b_lp_Chiralities_Consistent>  (185) 
1

>  <s_lp_Variant>  (185) 
57:0-2

>  <s_i_glide_gridfile>  (185) 
pfpi4k_grid

>  <i_i_glide_lignum>  (185) 
36

>  <i_i_glide_rotatable_bonds>  (185) 
1

>  <r_i_docking_score>  (185) 
-2.87947

>  <r_i_glide_ligand_efficiency>  (185) 
-0.115179

>  <r_i_glide_ligand_efficiency_sa>  (185) 
-0.336785

>  <r_i_glide_ligand_efficiency_ln>  (185) 
-0.682522

>  <r_i_glide_gscore>  (185) 
-2.87947

>  <r_i_glide_lipo>  (185) 
-0.342824

>  <r_i_glide_hbond>  (185) 
-0.0416215

>  <r_i_glide_metal>  (185) 
-0

>  <r_i_glide_rewards>  (185) 
-1.08778

>  <r_i_glide_evdw>  (185) 
-24.6046

>  <r_i_glide_ecoul>  (185) 
-1.99556

>  <r_i_glide_erotb>  (185) 
0.163379

>  <r_i_glide_esite>  (185) 
-0.0410655

>  <r_i_glide_emodel>  (185) 
-29.4442

>  <r_i_glide_energy>  (185) 
-26.6001

>  <r_i_glide_einternal>  (185) 
4.11533

>  <r_i_glide_intrahb_reward>  (185) 
-0

>  <i_i_glide_confnum>  (185) 
4

>  <i_i_glide_posenum>  (185) 
32

>  <r_i_glide_eff_state_penalty>  (185) 
0

>  <ligand_id>  (185) 
57

>  <original_smiles>  (185) 
CC1(C)C(=O)C(C)(C)C2CCC1N2C12C=CC3CC1C1CC31NC2=O

>  <smiles>  (185) 
[H]C1=C([H])C2([H])C([H])([H])C3([H])C1(N1C4([H])C([H])([H])C([H])([H])C1([H])C(C([H])([H])[H])(C([H])([H])[H])C(=O)C4(C([H])([H])[H])C([H])([H])[H])C(=O)N([H])C21C([H])([H])C31[H]

$$$$
58:0:0
     RDKit          3D

 59 64  0  0  1  0  0  0  0  0999 V2000
   -0.3001   -2.3461    5.9521 C   0  0  0  0  0  0  0  0  0  0  0  0
    0.5723   -1.3261    5.9046 C   0  0  0  0  0  0  0  0  0  0  0  0
    1.0928   -0.5589    7.1729 C   0  0  0  0  0  0  0  0  0  0  0  0
    1.6925    0.5609    6.3328 C   0  0  2  0  0  0  0  0  0  0  0  0
    2.7784    1.5756    6.4403 C   0  0  0  0  0  0  0  0  0  0  0  0
    3.3600    1.8698    7.4847 O   0  0  0  0  0  0  0  0  0  0  0  0
    2.9798    2.1188    5.1628 O   0  0  0  0  0  0  0  0  0  0  0  0
    2.3458    1.6653    3.8953 C   0  0  2  0  0  0  0  0  0  0  0  0
    2.2488    2.9135    2.9890 C   0  0  1  0  0  0  0  0  0  0  0  0
    1.7938    2.5305    1.7120 O   0  0  0  0  0  0  0  0  0  0  0  0
    1.4970    4.1639    3.5054 C   0  0  2  0  0  0  0  0  0  0  0  0
    2.3037    5.0235    4.5056 C   0  0  1  0  0  0  0  0  0  0  0  0
    2.2821    6.5215    4.1452 C   0  0  0  0  0  0  0  0  0  0  0  0
    1.6964    4.7682    5.8929 C   0  0  0  0  0  0  0  0  0  0  0  0
    0.3016    4.1118    5.7096 C   0  0  2  0  0  0  0  0  0  0  0  0
   -0.5592    5.1276    6.2185 O   0  0  0  0  0  0  0  0  0  0  0  0
    0.0475    2.8176    6.5813 C   0  0  1  0  0  0  0  0  0  0  0  0
   -1.3500    2.8156    6.9180 O   0  0  0  0  0  0  0  0  0  0  0  0
   -1.6585    2.3851    8.2415 C   0  0  0  0  0  0  0  0  0  0  0  0
    0.3222    1.4002    5.9174 C   0  0  1  0  0  0  0  0  0  0  0  0
   -0.1164    1.2684    4.4379 C   0  0  1  0  0  0  0  0  0  0  0  0
   -1.3701    0.3692    4.1831 C   0  0  0  0  0  0  0  0  0  0  0  0
   -0.5796    2.6102    3.7896 C   0  0  0  0  0  0  0  0  0  0  0  0
    0.1236    3.9192    4.1700 C   0  0  2  0  0  0  0  0  0  0  0  0
   -0.7087    4.9399    3.6193 O   0  0  0  0  0  0  0  0  0  0  0  0
    1.1170    0.5868    3.8576 C   0  0  2  0  0  0  0  0  0  0  0  0
    1.3645   -0.8577    4.6128 C   0  0  1  0  0  0  0  0  0  0  0  0
    2.4982   -0.5498    5.4616 C   0  0  1  0  0  0  0  0  0  0  0  0
    3.7783   -0.4773    4.8316 O   0  0  0  0  0  0  0  0  0  0  0  0
   -0.5728   -2.8813    5.0526 H   0  0  0  0  0  0  0  0  0  0  0  0
   -0.7488   -2.6601    6.8842 H   0  0  0  0  0  0  0  0  0  0  0  0
    0.3028   -0.2804    7.8709 H   0  0  0  0  0  0  0  0  0  0  0  0
    1.8246   -1.1171    7.7689 H   0  0  0  0  0  0  0  0  0  0  0  0
    3.1351    1.1414    3.3614 H   0  0  0  0  0  0  0  0  0  0  0  0
    3.2712    3.2419    2.8024 H   0  0  0  0  0  0  0  0  0  0  0  0
    1.2209    3.2185    1.3566 H   0  0  0  0  0  0  0  0  0  0  0  0
    1.3850    4.7789    2.6103 H   0  0  0  0  0  0  0  0  0  0  0  0
    3.3511    4.7216    4.5088 H   0  0  0  0  0  0  0  0  0  0  0  0
    1.2667    6.9215    4.1282 H   0  0  0  0  0  0  0  0  0  0  0  0
    2.7230    6.6907    3.1644 H   0  0  0  0  0  0  0  0  0  0  0  0
    2.8590    7.1083    4.8600 H   0  0  0  0  0  0  0  0  0  0  0  0
    2.3605    4.1495    6.4840 H   0  0  0  0  0  0  0  0  0  0  0  0
    1.6633    5.6976    6.4635 H   0  0  0  0  0  0  0  0  0  0  0  0
   -0.3870    5.2178    7.1404 H   0  0  0  0  0  0  0  0  0  0  0  0
    0.6061    2.9129    7.5136 H   0  0  0  0  0  0  0  0  0  0  0  0
   -2.7383    2.4137    8.3919 H   0  0  0  0  0  0  0  0  0  0  0  0
   -1.2056    3.0300    8.9955 H   0  0  0  0  0  0  0  0  0  0  0  0
   -1.3317    1.3620    8.4245 H   0  0  0  0  0  0  0  0  0  0  0  0
   -0.5025    0.8667    6.3789 H   0  0  0  0  0  0  0  0  0  0  0  0
   -1.7467    0.5203    3.1707 H   0  0  0  0  0  0  0  0  0  0  0  0
   -2.1891    0.6083    4.8631 H   0  0  0  0  0  0  0  0  0  0  0  0
   -1.2097   -0.7003    4.2295 H   0  0  0  0  0  0  0  0  0  0  0  0
   -0.6166    2.5049    2.7045 H   0  0  0  0  0  0  0  0  0  0  0  0
   -1.6237    2.7591    4.0792 H   0  0  0  0  0  0  0  0  0  0  0  0
   -0.5841    4.9172    2.6765 H   0  0  0  0  0  0  0  0  0  0  0  0
    0.9075    0.3500    2.8128 H   0  0  0  0  0  0  0  0  0  0  0  0
    1.5738   -1.6830    3.9331 H   0  0  0  0  0  0  0  0  0  0  0  0
    2.8311   -1.4344    6.0270 H   0  0  0  0  0  0  0  0  0  0  0  0
    3.7739    0.1983    4.1759 H   0  0  0  0  0  0  0  0  0  0  0  0
  1  2  2  0
  1 30  1  0
  1 31  1  0
  2 27  1  0
  2  3  1  0
  4  3  1  1
  3 32  1  0
  3 33  1  0
  4 20  1  0
  4 28  1  0
  4  5  1  0
  5  6  2  0
  5  7  1  0
  7  8  1  0
  8 26  1  0
  8  9  1  0
  8 34  1  6
  9 10  1  0
  9 11  1  0
  9 35  1  6
 10 36  1  0
 11 24  1  0
 11 12  1  0
 11 37  1  6
 12 13  1  0
 12 14  1  0
 12 38  1  1
 13 39  1  0
 13 40  1  0
 13 41  1  0
 14 15  1  0
 14 42  1  0
 14 43  1  0
 15 24  1  0
 15 16  1  1
 15 17  1  0
 16 44  1  0
 17 18  1  0
 17 20  1  0
 17 45  1  1
 18 19  1  0
 19 46  1  0
 19 47  1  0
 19 48  1  0
 20 21  1  0
 20 49  1  1
 21 22  1  1
 21 23  1  0
 21 26  1  0
 22 50  1  0
 22 51  1  0
 22 52  1  0
 23 24  1  0
 23 53  1  0
 23 54  1  0
 24 25  1  6
 25 55  1  0
 26 27  1  0
 26 56  1  6
 27 28  1  0
 27 57  1  6
 28 29  1  0
 28 58  1  1
 29 59  1  0
M  END
>  <i_m_ct_stereo_status>  (186) 
1

>  <s_m_source_file>  (186) 
/var/tmp/pbs.5076255.sched01/tmp0glzbzrw/400n8fk_jm.sdf

>  <i_m_source_file_index>  (186) 
37

>  <i_lp_mmshare_version>  (186) 
48012

>  <i_f3d_flags>  (186) 
0

>  <s_epik_input>  (186) 
W0NIMl09QyhbQ0gyXTEpW0NASF0oW0NASF0yW09IXSlbQ0BASF0oW0NAXTMoW0NASF00W0NAQF0xMjUpW0NIM10pW0NASF0oT0M1PU8pW0NAQEhdKFtPSF0pW0NASF02W0NAXShbQ0gyXTMpKFtPSF0pW0NAXShbT0hdKShbQ0gyXVtDQEBIXTZbQ0gzXSlbQ0BIXTRPW0NIM10=

>  <s_epik_cmdline>  (186) 
J2VwaWtfcHl0aG9uJywgJy1waHQnLCAnMi4wJywgJy1waCcsICc3LjAnLCAnLXRuJywgJzgnLCAnLW1hJywgJzIwMCcsICctaW1hZScsICc8aW5maWxlLm1hZT4nLCAnLW9tYWUnLCAnPG91dGZpbGUubWFlPic=

>  <r_lp_tautomer_probability>  (186) 
1

>  <r_epik_Ionization_Penalty>  (186) 
1.62014e-07

>  <r_epik_Ionization_Penalty_Charging>  (186) 
0

>  <r_epik_Ionization_Penalty_Neutral>  (186) 
1.62014e-07

>  <r_epik_State_Penalty>  (186) 
-0

>  <r_epik_Charging_Adjusted_Penalty>  (186) 
0

>  <i_epik_Tot_Q>  (186) 
0

>  <i_epik_Tot_abs_Q>  (186) 
0

>  <s_epik_Chemistry_Notes>  (186) 
This compound has an ester and may undergo hydrolysis at high or low pH.

>  <s_lp_Force_Field>  (186) 
OPLS3e

>  <r_lp_Energy>  (186) 
205.932

>  <b_lp_Chiralities_Consistent>  (186) 
1

>  <s_lp_Variant>  (186) 
58:0-1

>  <s_i_glide_gridfile>  (186) 
pfpi4k_grid

>  <i_i_glide_lignum>  (186) 
37

>  <i_i_glide_rotatable_bonds>  (186) 
5

>  <r_i_docking_score>  (186) 
-3.17958

>  <r_i_glide_ligand_efficiency>  (186) 
-0.109641

>  <r_i_glide_ligand_efficiency_sa>  (186) 
-0.336851

>  <r_i_glide_ligand_efficiency_ln>  (186) 
-0.728043

>  <r_i_glide_gscore>  (186) 
-3.17958

>  <r_i_glide_lipo>  (186) 
0

>  <r_i_glide_hbond>  (186) 
-0.153273

>  <r_i_glide_metal>  (186) 
-0

>  <r_i_glide_rewards>  (186) 
-0.637709

>  <r_i_glide_evdw>  (186) 
-14.2893

>  <r_i_glide_ecoul>  (186) 
-11.1609

>  <r_i_glide_erotb>  (186) 
0

>  <r_i_glide_esite>  (186) 
0

>  <r_i_glide_emodel>  (186) 
-30.9871

>  <r_i_glide_energy>  (186) 
-25.4502

>  <r_i_glide_einternal>  (186) 
1.59554

>  <r_i_glide_intrahb_reward>  (186) 
-0

>  <i_i_glide_confnum>  (186) 
1

>  <i_i_glide_posenum>  (186) 
38

>  <r_i_glide_eff_state_penalty>  (186) 
0

>  <ligand_id>  (186) 
58

>  <original_smiles>  (186) 
C=C1CC23C(=O)OC4C(O)C5C(C)CC6(O)C(OC)C2C(C)(CC56O)C4C1C3O

>  <smiles>  (186) 
[H]OC1([H])C2([H])OC(=O)C34C([H])([H])C(=C([H])[H])C([H])(C3([H])O[H])C2([H])C2(C([H])([H])[H])C([H])([H])C3(O[H])C1([H])C([H])(C([H])([H])[H])C([H])([H])C3(O[H])C([H])(OC([H])([H])[H])C42[H]

$$$$
58:0:1
     RDKit          3D

 59 64  0  0  1  0  0  0  0  0999 V2000
    1.7288   -2.7353    7.1189 C   0  0  0  0  0  0  0  0  0  0  0  0
    1.9317   -1.5146    6.5957 C   0  0  0  0  0  0  0  0  0  0  0  0
    2.3100   -0.2491    7.4493 C   0  0  0  0  0  0  0  0  0  0  0  0
    2.0335    0.6953    6.2927 C   0  0  2  0  0  0  0  0  0  0  0  0
    2.4610    2.0505    5.8336 C   0  0  0  0  0  0  0  0  0  0  0  0
    3.0649    2.8664    6.5273 O   0  0  0  0  0  0  0  0  0  0  0  0
    2.0337    2.2059    4.5027 O   0  0  0  0  0  0  0  0  0  0  0  0
    1.4079    1.1588    3.6475 C   0  0  2  0  0  0  0  0  0  0  0  0
    0.4818    1.9017    2.6583 C   0  0  1  0  0  0  0  0  0  0  0  0
   -0.0431    0.9822    1.7234 O   0  0  0  0  0  0  0  0  0  0  0  0
   -0.6299    2.8148    3.2273 C   0  0  2  0  0  0  0  0  0  0  0  0
   -0.1276    4.1958    3.7157 C   0  0  1  0  0  0  0  0  0  0  0  0
   -0.9823    5.3568    3.1835 C   0  0  0  0  0  0  0  0  0  0  0  0
   -0.1518    4.1567    5.2528 C   0  0  0  0  0  0  0  0  0  0  0  0
   -1.0313    2.9619    5.6976 C   0  0  2  0  0  0  0  0  0  0  0  0
   -2.1294    3.6251    6.3099 O   0  0  0  0  0  0  0  0  0  0  0  0
   -0.3854    2.0240    6.7955 C   0  0  1  0  0  0  0  0  0  0  0  0
   -1.4406    1.5262    7.6429 O   0  0  0  0  0  0  0  0  0  0  0  0
   -1.5344    2.1619    8.9189 C   0  0  0  0  0  0  0  0  0  0  0  0
    0.3726    0.7186    6.3002 C   0  0  1  0  0  0  0  0  0  0  0  0
   -0.2977   -0.0411    5.1259 C   0  0  1  0  0  0  0  0  0  0  0  0
   -0.9574   -1.4108    5.4934 C   0  0  0  0  0  0  0  0  0  0  0  0
   -1.5079    0.7117    4.5016 C   0  0  0  0  0  0  0  0  0  0  0  0
   -1.4680    2.2407    4.3860 C   0  0  2  0  0  0  0  0  0  0  0  0
   -2.8010    2.5947    4.0383 O   0  0  0  0  0  0  0  0  0  0  0  0
    0.9114   -0.2866    4.2300 C   0  0  2  0  0  0  0  0  0  0  0  0
    2.0271   -1.1793    5.0465 C   0  0  1  0  0  0  0  0  0  0  0  0
    3.0330   -0.1848    5.3579 C   0  0  1  0  0  0  0  0  0  0  0  0
    3.9026    0.2185    4.2973 O   0  0  0  0  0  0  0  0  0  0  0  0
    1.5399   -3.5850    6.4783 H   0  0  0  0  0  0  0  0  0  0  0  0
    1.7485   -2.8904    8.1892 H   0  0  0  0  0  0  0  0  0  0  0  0
    1.6935   -0.1278    8.3439 H   0  0  0  0  0  0  0  0  0  0  0  0
    3.3464   -0.2423    7.8069 H   0  0  0  0  0  0  0  0  0  0  0  0
    2.1874    0.8698    2.9466 H   0  0  0  0  0  0  0  0  0  0  0  0
    1.1304    2.5443    2.0610 H   0  0  0  0  0  0  0  0  0  0  0  0
   -0.2946    1.4448    0.9313 H   0  0  0  0  0  0  0  0  0  0  0  0
   -1.2763    3.0033    2.3675 H   0  0  0  0  0  0  0  0  0  0  0  0
    0.8908    4.3786    3.3717 H   0  0  0  0  0  0  0  0  0  0  0  0
   -2.0182    5.2231    3.4845 H   0  0  0  0  0  0  0  0  0  0  0  0
   -0.9956    5.4294    2.0971 H   0  0  0  0  0  0  0  0  0  0  0  0
   -0.5858    6.3085    3.5377 H   0  0  0  0  0  0  0  0  0  0  0  0
    0.8534    4.0867    5.6450 H   0  0  0  0  0  0  0  0  0  0  0  0
   -0.4958    5.1130    5.6518 H   0  0  0  0  0  0  0  0  0  0  0  0
   -1.8320    3.9748    7.1349 H   0  0  0  0  0  0  0  0  0  0  0  0
    0.2963    2.6039    7.4194 H   0  0  0  0  0  0  0  0  0  0  0  0
   -2.3611    1.7478    9.4832 H   0  0  0  0  0  0  0  0  0  0  0  0
   -1.7227    3.2318    8.8284 H   0  0  0  0  0  0  0  0  0  0  0  0
   -0.6225    2.0258    9.5055 H   0  0  0  0  0  0  0  0  0  0  0  0
    0.0758    0.0747    7.1255 H   0  0  0  0  0  0  0  0  0  0  0  0
   -1.6080   -1.7515    4.6871 H   0  0  0  0  0  0  0  0  0  0  0  0
   -1.5738   -1.3394    6.3893 H   0  0  0  0  0  0  0  0  0  0  0  0
   -0.2791   -2.2447    5.6285 H   0  0  0  0  0  0  0  0  0  0  0  0
   -1.7576    0.2695    3.5403 H   0  0  0  0  0  0  0  0  0  0  0  0
   -2.3705    0.4975    5.1377 H   0  0  0  0  0  0  0  0  0  0  0  0
   -3.1054    1.9857    3.3787 H   0  0  0  0  0  0  0  0  0  0  0  0
    0.5861   -0.8979    3.3879 H   0  0  0  0  0  0  0  0  0  0  0  0
    2.4362   -2.0103    4.4728 H   0  0  0  0  0  0  0  0  0  0  0  0
    3.8931   -0.6326    5.8779 H   0  0  0  0  0  0  0  0  0  0  0  0
    3.4141    0.6873    3.6377 H   0  0  0  0  0  0  0  0  0  0  0  0
  1  2  2  0
  1 30  1  0
  1 31  1  0
  2 27  1  0
  2  3  1  0
  4  3  1  1
  3 32  1  0
  3 33  1  0
  4 20  1  0
  4 28  1  0
  4  5  1  0
  5  6  2  0
  5  7  1  0
  7  8  1  0
  8 26  1  0
  8  9  1  0
  8 34  1  6
  9 10  1  0
  9 11  1  0
  9 35  1  6
 10 36  1  0
 11 24  1  0
 11 12  1  0
 11 37  1  6
 12 13  1  0
 12 14  1  0
 12 38  1  1
 13 39  1  0
 13 40  1  0
 13 41  1  0
 14 15  1  0
 14 42  1  0
 14 43  1  0
 15 24  1  0
 15 16  1  1
 15 17  1  0
 16 44  1  0
 17 18  1  0
 17 20  1  0
 17 45  1  1
 18 19  1  0
 19 46  1  0
 19 47  1  0
 19 48  1  0
 20 21  1  0
 20 49  1  1
 21 22  1  1
 21 23  1  0
 21 26  1  0
 22 50  1  0
 22 51  1  0
 22 52  1  0
 23 24  1  0
 23 53  1  0
 23 54  1  0
 24 25  1  6
 25 55  1  0
 26 27  1  0
 26 56  1  6
 27 28  1  0
 27 57  1  6
 28 29  1  0
 28 58  1  1
 29 59  1  0
M  END
>  <i_m_ct_stereo_status>  (187) 
1

>  <s_m_source_file>  (187) 
/var/tmp/pbs.5076255.sched01/tmp0glzbzrw/400n8fk_jm.sdf

>  <i_m_source_file_index>  (187) 
37

>  <i_lp_mmshare_version>  (187) 
48012

>  <i_f3d_flags>  (187) 
0

>  <s_epik_input>  (187) 
W0NIMl09QyhbQ0gyXTEpW0NASF0oW0NASF0yW09IXSlbQ0BASF0oW0NAXTMoW0NASF00W0NAQF0xMjUpW0NIM10pW0NASF0oT0M1PU8pW0NAQEhdKFtPSF0pW0NASF02W0NAXShbQ0gyXTMpKFtPSF0pW0NAXShbT0hdKShbQ0gyXVtDQEBIXTZbQ0gzXSlbQ0BIXTRPW0NIM10=

>  <s_epik_cmdline>  (187) 
J2VwaWtfcHl0aG9uJywgJy1waHQnLCAnMi4wJywgJy1waCcsICc3LjAnLCAnLXRuJywgJzgnLCAnLW1hJywgJzIwMCcsICctaW1hZScsICc8aW5maWxlLm1hZT4nLCAnLW9tYWUnLCAnPG91dGZpbGUubWFlPic=

>  <r_lp_tautomer_probability>  (187) 
1

>  <r_epik_Ionization_Penalty>  (187) 
1.62014e-07

>  <r_epik_Ionization_Penalty_Charging>  (187) 
0

>  <r_epik_Ionization_Penalty_Neutral>  (187) 
1.62014e-07

>  <r_epik_State_Penalty>  (187) 
-0

>  <r_epik_Charging_Adjusted_Penalty>  (187) 
0

>  <i_epik_Tot_Q>  (187) 
0

>  <i_epik_Tot_abs_Q>  (187) 
0

>  <s_epik_Chemistry_Notes>  (187) 
This compound has an ester and may undergo hydrolysis at high or low pH.

>  <s_lp_Force_Field>  (187) 
OPLS3e

>  <r_lp_Energy>  (187) 
205.932

>  <b_lp_Chiralities_Consistent>  (187) 
1

>  <s_lp_Variant>  (187) 
58:0-1

>  <s_i_glide_gridfile>  (187) 
pfpi4k_grid

>  <i_i_glide_lignum>  (187) 
37

>  <i_i_glide_rotatable_bonds>  (187) 
5

>  <r_i_docking_score>  (187) 
-2.41708

>  <r_i_glide_ligand_efficiency>  (187) 
-0.0833477

>  <r_i_glide_ligand_efficiency_sa>  (187) 
-0.25607

>  <r_i_glide_ligand_efficiency_ln>  (187) 
-0.55345

>  <r_i_glide_gscore>  (187) 
-2.41708

>  <r_i_glide_lipo>  (187) 
0

>  <r_i_glide_hbond>  (187) 
-0.0408093

>  <r_i_glide_metal>  (187) 
-0

>  <r_i_glide_rewards>  (187) 
-0.637709

>  <r_i_glide_evdw>  (187) 
-16.7815

>  <r_i_glide_ecoul>  (187) 
-5.99658

>  <r_i_glide_erotb>  (187) 
0

>  <r_i_glide_esite>  (187) 
0

>  <r_i_glide_emodel>  (187) 
-26.5269

>  <r_i_glide_energy>  (187) 
-22.7781

>  <r_i_glide_einternal>  (187) 
1.7146

>  <r_i_glide_intrahb_reward>  (187) 
-0

>  <i_i_glide_confnum>  (187) 
2

>  <i_i_glide_posenum>  (187) 
12

>  <r_i_glide_eff_state_penalty>  (187) 
0

>  <ligand_id>  (187) 
58

>  <original_smiles>  (187) 
C=C1CC23C(=O)OC4C(O)C5C(C)CC6(O)C(OC)C2C(C)(CC56O)C4C1C3O

>  <smiles>  (187) 
[H]OC1([H])C2([H])OC(=O)C34C([H])([H])C(=C([H])[H])C([H])(C3([H])O[H])C2([H])C2(C([H])([H])[H])C([H])([H])C3(O[H])C1([H])C([H])(C([H])([H])[H])C([H])([H])C3(O[H])C([H])(OC([H])([H])[H])C42[H]

$$$$
58:0:2
     RDKit          3D

 59 64  0  0  1  0  0  0  0  0999 V2000
    1.9712   -2.6060    7.1528 C   0  0  0  0  0  0  0  0  0  0  0  0
    2.1392   -1.3816    6.6276 C   0  0  0  0  0  0  0  0  0  0  0  0
    2.4812   -0.1028    7.4775 C   0  0  0  0  0  0  0  0  0  0  0  0
    2.1762    0.8301    6.3194 C   0  0  2  0  0  0  0  0  0  0  0  0
    2.5659    2.1950    5.8544 C   0  0  0  0  0  0  0  0  0  0  0  0
    3.1520    3.0282    6.5440 O   0  0  0  0  0  0  0  0  0  0  0  0
    2.1321    2.3368    4.5236 O   0  0  0  0  0  0  0  0  0  0  0  0
    1.5349    1.2702    3.6718 C   0  0  2  0  0  0  0  0  0  0  0  0
    0.5886    1.9857    2.6807 C   0  0  1  0  0  0  0  0  0  0  0  0
    0.0866    1.0519    1.7461 O   0  0  0  0  0  0  0  0  0  0  0  0
   -0.5492    2.8663    3.2508 C   0  0  2  0  0  0  0  0  0  0  0  0
   -0.0886    4.2631    3.7326 C   0  0  1  0  0  0  0  0  0  0  0  0
   -0.9768    5.3958    3.1983 C   0  0  0  0  0  0  0  0  0  0  0  0
   -0.1085    4.2285    5.2712 C   0  0  0  0  0  0  0  0  0  0  0  0
   -0.9473    3.0102    5.7217 C   0  0  2  0  0  0  0  0  0  0  0  0
   -2.0620    3.6366    6.3416 O   0  0  0  0  0  0  0  0  0  0  0  0
   -0.2793    2.0903    6.8185 C   0  0  1  0  0  0  0  0  0  0  0  0
   -1.3337    1.5735    7.6572 O   0  0  0  0  0  0  0  0  0  0  0  0
   -1.4212    2.1886    8.9443 C   0  0  0  0  0  0  0  0  0  0  0  0
    0.5153    0.8060    6.3287 C   0  0  1  0  0  0  0  0  0  0  0  0
   -0.1355    0.0251    5.1568 C   0  0  1  0  0  0  0  0  0  0  0  0
   -0.7588   -1.3603    5.5299 C   0  0  0  0  0  0  0  0  0  0  0  0
   -1.3657    0.7432    4.5323 C   0  0  0  0  0  0  0  0  0  0  0  0
   -1.3667    2.2698    4.4126 C   0  0  2  0  0  0  0  0  0  0  0  0
   -2.7136    2.5811    4.0819 O   0  0  0  0  0  0  0  0  0  0  0  0
    1.0790   -0.1877    4.2598 C   0  0  2  0  0  0  0  0  0  0  0  0
    2.2212   -1.0471    5.0776 C   0  0  1  0  0  0  0  0  0  0  0  0
    3.1982   -0.0238    5.3842 C   0  0  1  0  0  0  0  0  0  0  0  0
    4.0555    0.3985    4.3204 O   0  0  0  0  0  0  0  0  0  0  0  0
    1.8071   -3.4627    6.5141 H   0  0  0  0  0  0  0  0  0  0  0  0
    1.9982   -2.7601    8.2240 H   0  0  0  0  0  0  0  0  0  0  0  0
    1.8627    0.0022    8.3721 H   0  0  0  0  0  0  0  0  0  0  0  0
    3.5171   -0.0663    7.8330 H   0  0  0  0  0  0  0  0  0  0  0  0
    2.3215    1.0006    2.9713 H   0  0  0  0  0  0  0  0  0  0  0  0
    1.2184    2.6466    2.0812 H   0  0  0  0  0  0  0  0  0  0  0  0
   -0.1854    1.5122    0.9592 H   0  0  0  0  0  0  0  0  0  0  0  0
   -1.2051    3.0336    2.3948 H   0  0  0  0  0  0  0  0  0  0  0  0
    0.9244    4.4754    3.3893 H   0  0  0  0  0  0  0  0  0  0  0  0
   -2.0078    5.2366    3.5073 H   0  0  0  0  0  0  0  0  0  0  0  0
   -0.9899    5.4672    2.1123 H   0  0  0  0  0  0  0  0  0  0  0  0
   -0.5955    6.3572    3.5486 H   0  0  0  0  0  0  0  0  0  0  0  0
    0.8996    4.1879    5.6632 H   0  0  0  0  0  0  0  0  0  0  0  0
   -0.4858    5.1703    5.6765 H   0  0  0  0  0  0  0  0  0  0  0  0
   -2.6238    2.9427    6.6566 H   0  0  0  0  0  0  0  0  0  0  0  0
    0.3819    2.6940    7.4439 H   0  0  0  0  0  0  0  0  0  0  0  0
   -2.2315    1.7495    9.5172 H   0  0  0  0  0  0  0  0  0  0  0  0
   -1.6320    3.2570    8.8691 H   0  0  0  0  0  0  0  0  0  0  0  0
   -0.4998    2.0637    9.5169 H   0  0  0  0  0  0  0  0  0  0  0  0
    0.2352    0.1595    7.1579 H   0  0  0  0  0  0  0  0  0  0  0  0
   -1.3945   -1.7258    4.7226 H   0  0  0  0  0  0  0  0  0  0  0  0
   -1.3808   -1.3031    6.4248 H   0  0  0  0  0  0  0  0  0  0  0  0
   -0.0562   -2.1727    5.6718 H   0  0  0  0  0  0  0  0  0  0  0  0
   -1.6058    0.2910    3.5702 H   0  0  0  0  0  0  0  0  0  0  0  0
   -2.2217    0.5067    5.1695 H   0  0  0  0  0  0  0  0  0  0  0  0
   -2.9917    2.0055    3.3773 H   0  0  0  0  0  0  0  0  0  0  0  0
    0.7709   -0.8108    3.4196 H   0  0  0  0  0  0  0  0  0  0  0  0
    2.6532   -1.8673    4.5048 H   0  0  0  0  0  0  0  0  0  0  0  0
    4.0720   -0.4454    5.9056 H   0  0  0  0  0  0  0  0  0  0  0  0
    3.5491    0.8283    3.6485 H   0  0  0  0  0  0  0  0  0  0  0  0
  1  2  2  0
  1 30  1  0
  1 31  1  0
  2 27  1  0
  2  3  1  0
  4  3  1  1
  3 32  1  0
  3 33  1  0
  4 20  1  0
  4 28  1  0
  4  5  1  0
  5  6  2  0
  5  7  1  0
  7  8  1  0
  8 26  1  0
  8  9  1  0
  8 34  1  6
  9 10  1  0
  9 11  1  0
  9 35  1  6
 10 36  1  0
 11 24  1  0
 11 12  1  0
 11 37  1  6
 12 13  1  0
 12 14  1  0
 12 38  1  1
 13 39  1  0
 13 40  1  0
 13 41  1  0
 14 15  1  0
 14 42  1  0
 14 43  1  0
 15 24  1  0
 15 16  1  1
 15 17  1  0
 16 44  1  0
 17 18  1  0
 17 20  1  0
 17 45  1  1
 18 19  1  0
 19 46  1  0
 19 47  1  0
 19 48  1  0
 20 21  1  0
 20 49  1  1
 21 22  1  1
 21 23  1  0
 21 26  1  0
 22 50  1  0
 22 51  1  0
 22 52  1  0
 23 24  1  0
 23 53  1  0
 23 54  1  0
 24 25  1  6
 25 55  1  0
 26 27  1  0
 26 56  1  6
 27 28  1  0
 27 57  1  6
 28 29  1  0
 28 58  1  1
 29 59  1  0
M  END
>  <i_m_ct_stereo_status>  (188) 
1

>  <s_m_source_file>  (188) 
/var/tmp/pbs.5076255.sched01/tmp0glzbzrw/400n8fk_jm.sdf

>  <i_m_source_file_index>  (188) 
37

>  <i_lp_mmshare_version>  (188) 
48012

>  <i_f3d_flags>  (188) 
0

>  <s_epik_input>  (188) 
W0NIMl09QyhbQ0gyXTEpW0NASF0oW0NASF0yW09IXSlbQ0BASF0oW0NAXTMoW0NASF00W0NAQF0xMjUpW0NIM10pW0NASF0oT0M1PU8pW0NAQEhdKFtPSF0pW0NASF02W0NAXShbQ0gyXTMpKFtPSF0pW0NAXShbT0hdKShbQ0gyXVtDQEBIXTZbQ0gzXSlbQ0BIXTRPW0NIM10=

>  <s_epik_cmdline>  (188) 
J2VwaWtfcHl0aG9uJywgJy1waHQnLCAnMi4wJywgJy1waCcsICc3LjAnLCAnLXRuJywgJzgnLCAnLW1hJywgJzIwMCcsICctaW1hZScsICc8aW5maWxlLm1hZT4nLCAnLW9tYWUnLCAnPG91dGZpbGUubWFlPic=

>  <r_lp_tautomer_probability>  (188) 
1

>  <r_epik_Ionization_Penalty>  (188) 
1.62014e-07

>  <r_epik_Ionization_Penalty_Charging>  (188) 
0

>  <r_epik_Ionization_Penalty_Neutral>  (188) 
1.62014e-07

>  <r_epik_State_Penalty>  (188) 
-0

>  <r_epik_Charging_Adjusted_Penalty>  (188) 
0

>  <i_epik_Tot_Q>  (188) 
0

>  <i_epik_Tot_abs_Q>  (188) 
0

>  <s_epik_Chemistry_Notes>  (188) 
This compound has an ester and may undergo hydrolysis at high or low pH.

>  <s_lp_Force_Field>  (188) 
OPLS3e

>  <r_lp_Energy>  (188) 
205.932

>  <b_lp_Chiralities_Consistent>  (188) 
1

>  <s_lp_Variant>  (188) 
58:0-1

>  <s_i_glide_gridfile>  (188) 
pfpi4k_grid

>  <i_i_glide_lignum>  (188) 
37

>  <i_i_glide_rotatable_bonds>  (188) 
5

>  <r_i_docking_score>  (188) 
-2.35854

>  <r_i_glide_ligand_efficiency>  (188) 
-0.081329

>  <r_i_glide_ligand_efficiency_sa>  (188) 
-0.249869

>  <r_i_glide_ligand_efficiency_ln>  (188) 
-0.540046

>  <r_i_glide_gscore>  (188) 
-2.35854

>  <r_i_glide_lipo>  (188) 
0

>  <r_i_glide_hbond>  (188) 
-0.0215071

>  <r_i_glide_metal>  (188) 
-0

>  <r_i_glide_rewards>  (188) 
-0.637709

>  <r_i_glide_evdw>  (188) 
-17.1394

>  <r_i_glide_ecoul>  (188) 
-5.61571

>  <r_i_glide_erotb>  (188) 
0

>  <r_i_glide_esite>  (188) 
0

>  <r_i_glide_emodel>  (188) 
-26.5999

>  <r_i_glide_energy>  (188) 
-22.7551

>  <r_i_glide_einternal>  (188) 
1.55831

>  <r_i_glide_intrahb_reward>  (188) 
-0

>  <i_i_glide_confnum>  (188) 
1

>  <i_i_glide_posenum>  (188) 
1

>  <r_i_glide_eff_state_penalty>  (188) 
0

>  <ligand_id>  (188) 
58

>  <original_smiles>  (188) 
C=C1CC23C(=O)OC4C(O)C5C(C)CC6(O)C(OC)C2C(C)(CC56O)C4C1C3O

>  <smiles>  (188) 
[H]OC1([H])C2([H])OC(=O)C34C([H])([H])C(=C([H])[H])C([H])(C3([H])O[H])C2([H])C2(C([H])([H])[H])C([H])([H])C3(O[H])C1([H])C([H])(C([H])([H])[H])C([H])([H])C3(O[H])C([H])(OC([H])([H])[H])C42[H]

$$$$
59:0:0
     RDKit          3D

 99106  0  0  1  0  0  0  0  0999 V2000
    3.8575   -0.3209    6.8527 C   0  0  0  0  0  0  0  0  0  0  0  0
    2.8578   -0.6206    7.9995 C   0  0  2  0  0  0  0  0  0  0  0  0
    3.1995   -1.9739    8.6341 C   0  0  0  0  0  0  0  0  0  0  0  0
    2.8825   -3.1107    7.6659 C   0  0  0  0  0  0  0  0  0  0  0  0
    1.4029   -3.1012    7.2623 C   0  0  2  0  0  0  0  0  0  0  0  0
    1.0767   -4.2536    6.3156 C   0  0  1  0  0  0  0  0  0  0  0  0
   -0.3034   -4.4905    6.4334 O   0  0  0  0  0  0  0  0  0  0  0  0
    1.4370   -3.9515    4.8526 C   0  0  1  0  0  0  0  0  0  0  0  0
    1.0264   -5.1003    3.8929 C   0  0  0  0  0  0  0  0  0  0  0  0
    1.9077   -6.4108    3.9362 C   0  0  2  0  0  0  0  0  0  0  0  0
    2.5755   -6.7120    2.5326 C   0  0  1  0  0  0  0  0  0  0  0  0
    3.0769   -5.4617    1.7412 C   0  0  0  0  0  0  0  0  0  0  0  0
    3.6383   -7.8921    2.4434 C   0  0  1  0  0  0  0  0  0  0  0  0
    5.1356   -7.3983    2.4792 C   0  0  1  0  0  0  0  0  0  0  0  0
    5.5900   -6.8265    3.8390 C   0  0  0  0  0  0  0  0  0  0  0  0
    6.1039   -8.4736    1.9442 C   0  0  0  0  0  0  0  0  0  0  0  0
    5.5543   -9.8929    2.0325 C   0  0  0  0  0  0  0  0  0  0  0  0
    4.7380  -10.0985    3.3327 C   0  0  2  0  0  0  0  0  0  0  0  0
    4.5302  -11.6299    3.5601 C   0  0  1  0  0  0  0  0  0  0  0  0
    5.7807  -12.3162    4.1499 C   0  0  0  0  0  0  0  0  0  0  0  0
    3.2774  -11.9575    4.3922 C   0  0  1  0  0  0  0  0  0  0  0  0
    3.4183  -11.4615    5.7094 O   0  0  0  0  0  0  0  0  0  0  0  0
    2.0046  -11.4348    3.7000 C   0  0  1  0  0  0  0  0  0  0  0  0
    0.7692  -11.5386    4.6190 C   0  0  0  0  0  0  0  0  0  0  0  0
    2.2011  -10.0795    2.9260 C   0  0  1  0  0  0  0  0  0  0  0  0
    0.8785   -9.3692    2.5460 C   0  0  0  0  0  0  0  0  0  0  0  0
    0.2270   -8.4372    3.5877 C   0  0  0  0  0  0  0  0  0  0  0  0
    1.1300   -7.6740    4.5766 C   0  0  2  0  0  0  0  0  0  0  0  0
    0.2511   -7.3122    5.7727 C   0  0  0  0  0  0  0  0  0  0  0  0
    1.9643   -8.6794    5.1172 O   0  0  0  0  0  0  0  0  0  0  0  0
    3.3220   -8.5868    4.6176 O   0  0  0  0  0  0  0  0  0  0  0  0
    3.4472   -9.1799    3.3376 C   0  0  2  0  0  0  0  0  0  0  0  0
    0.8056   -2.7428    4.4731 O   0  0  0  0  0  0  0  0  0  0  0  0
    1.2488   -1.6008    5.1729 C   0  0  1  0  0  0  0  0  0  0  0  0
    0.6546   -0.4470    4.6334 O   0  0  0  0  0  0  0  0  0  0  0  0
   -0.5888   -0.0895    5.2103 C   0  0  2  0  0  0  0  0  0  0  0  0
   -1.4219    0.5254    4.0913 C   0  0  0  0  0  0  0  0  0  0  0  0
   -0.4228    0.9254    6.3730 C   0  0  0  0  0  0  0  0  0  0  0  0
    0.9511    0.8356    7.0626 C   0  0  0  0  0  0  0  0  0  0  0  0
    1.3688   -0.5548    7.5760 C   0  0  1  0  0  0  0  0  0  0  0  0
    0.8719   -1.7511    6.7055 C   0  0  2  0  0  0  0  0  0  0  0  0
   -0.5415   -1.7515    6.8937 O   0  0  0  0  0  0  0  0  0  0  0  0
   -1.2835   -1.2300    5.6794 O   0  0  0  0  0  0  0  0  0  0  0  0
    3.7540   -0.9927    6.0218 H   0  0  0  0  0  0  0  0  0  0  0  0
    4.8915   -0.3845    7.2090 H   0  0  0  0  0  0  0  0  0  0  0  0
    3.7480    0.6906    6.4623 H   0  0  0  0  0  0  0  0  0  0  0  0
    3.0003    0.1241    8.7785 H   0  0  0  0  0  0  0  0  0  0  0  0
    4.2513   -2.0136    8.9145 H   0  0  0  0  0  0  0  0  0  0  0  0
    2.6401   -2.1258    9.5594 H   0  0  0  0  0  0  0  0  0  0  0  0
    3.5142   -3.0502    6.7791 H   0  0  0  0  0  0  0  0  0  0  0  0
    3.1365   -4.0649    8.1256 H   0  0  0  0  0  0  0  0  0  0  0  0
    0.8633   -3.2973    8.1976 H   0  0  0  0  0  0  0  0  0  0  0  0
    1.6013   -5.1300    6.6526 H   0  0  0  0  0  0  0  0  0  0  0  0
   -0.5161   -5.2069    5.8546 H   0  0  0  0  0  0  0  0  0  0  0  0
    2.5138   -3.8149    4.7660 H   0  0  0  0  0  0  0  0  0  0  0  0
   -0.0275   -5.3281    4.0185 H   0  0  0  0  0  0  0  0  0  0  0  0
    1.0001   -4.6537    2.8963 H   0  0  0  0  0  0  0  0  0  0  0  0
    2.7411   -6.1892    4.6089 H   0  0  0  0  0  0  0  0  0  0  0  0
    1.7409   -6.9865    1.8974 H   0  0  0  0  0  0  0  0  0  0  0  0
    3.8117   -4.8897    2.3104 H   0  0  0  0  0  0  0  0  0  0  0  0
    2.2967   -4.7703    1.4330 H   0  0  0  0  0  0  0  0  0  0  0  0
    3.5387   -5.7570    0.7948 H   0  0  0  0  0  0  0  0  0  0  0  0
    3.5164   -8.2517    1.4211 H   0  0  0  0  0  0  0  0  0  0  0  0
    5.2651   -6.5899    1.7816 H   0  0  0  0  0  0  0  0  0  0  0  0
    5.6253   -7.5725    4.6282 H   0  0  0  0  0  0  0  0  0  0  0  0
    4.9359   -6.0218    4.1716 H   0  0  0  0  0  0  0  0  0  0  0  0
    6.5909   -6.3967    3.7602 H   0  0  0  0  0  0  0  0  0  0  0  0
    6.3394   -8.2598    0.8940 H   0  0  0  0  0  0  0  0  0  0  0  0
    7.0520   -8.4118    2.4754 H   0  0  0  0  0  0  0  0  0  0  0  0
    4.9300  -10.0966    1.1640 H   0  0  0  0  0  0  0  0  0  0  0  0
    6.3849  -10.5919    1.9706 H   0  0  0  0  0  0  0  0  0  0  0  0
    5.3626   -9.7557    4.1572 H   0  0  0  0  0  0  0  0  0  0  0  0
    4.3613  -12.0973    2.5873 H   0  0  0  0  0  0  0  0  0  0  0  0
    6.0414  -11.9073    5.1272 H   0  0  0  0  0  0  0  0  0  0  0  0
    6.6535  -12.2075    3.5060 H   0  0  0  0  0  0  0  0  0  0  0  0
    5.6179  -13.3866    4.2806 H   0  0  0  0  0  0  0  0  0  0  0  0
    3.1982  -13.0445    4.4807 H   0  0  0  0  0  0  0  0  0  0  0  0
    2.7435  -11.8672    6.2513 H   0  0  0  0  0  0  0  0  0  0  0  0
    1.7985  -12.1653    2.9129 H   0  0  0  0  0  0  0  0  0  0  0  0
    0.7886  -10.7976    5.4150 H   0  0  0  0  0  0  0  0  0  0  0  0
    0.7247  -12.5210    5.0862 H   0  0  0  0  0  0  0  0  0  0  0  0
   -0.1617  -11.4201    4.0694 H   0  0  0  0  0  0  0  0  0  0  0  0
    2.5340  -10.4327    1.9551 H   0  0  0  0  0  0  0  0  0  0  0  0
    1.0239   -8.8523    1.6006 H   0  0  0  0  0  0  0  0  0  0  0  0
    0.1433  -10.1274    2.2622 H   0  0  0  0  0  0  0  0  0  0  0  0
   -0.4459   -7.7491    3.0862 H   0  0  0  0  0  0  0  0  0  0  0  0
   -0.4218   -9.0782    4.1875 H   0  0  0  0  0  0  0  0  0  0  0  0
   -0.6207   -6.7498    5.4518 H   0  0  0  0  0  0  0  0  0  0  0  0
    0.7867   -6.7779    6.5369 H   0  0  0  0  0  0  0  0  0  0  0  0
   -0.1785   -8.2091    6.2266 H   0  0  0  0  0  0  0  0  0  0  0  0
    2.2878   -1.5267    4.9794 H   0  0  0  0  0  0  0  0  0  0  0  0
   -1.5609   -0.1871    3.2810 H   0  0  0  0  0  0  0  0  0  0  0  0
   -0.9225    1.4031    3.6771 H   0  0  0  0  0  0  0  0  0  0  0  0
   -2.3973    0.8280    4.4623 H   0  0  0  0  0  0  0  0  0  0  0  0
   -0.4748    1.9380    5.9747 H   0  0  0  0  0  0  0  0  0  0  0  0
   -1.2384    0.8375    7.0949 H   0  0  0  0  0  0  0  0  0  0  0  0
    1.6732    1.1764    6.3213 H   0  0  0  0  0  0  0  0  0  0  0  0
    0.9963    1.5601    7.8847 H   0  0  0  0  0  0  0  0  0  0  0  0
    0.8154   -0.6757    8.5133 H   0  0  0  0  0  0  0  0  0  0  0  0
  1  2  1  0
  1 44  1  0
  1 45  1  0
  1 46  1  0
  2 40  1  0
  2  3  1  0
  2 47  1  1
  3  4  1  0
  3 48  1  0
  3 49  1  0
  4  5  1  0
  4 50  1  0
  4 51  1  0
  5 41  1  0
  5  6  1  0
  5 52  1  1
  6  7  1  0
  6  8  1  0
  6 53  1  1
  7 54  1  0
  8  9  1  0
  8 33  1  0
  8 55  1  1
  9 10  1  0
  9 56  1  0
  9 57  1  0
 10 28  1  0
 10 11  1  0
 10 58  1  1
 11 12  1  0
 11 13  1  0
 11 59  1  6
 12 60  1  0
 12 61  1  0
 12 62  1  0
 13 32  1  0
 13 14  1  0
 13 63  1  6
 14 15  1  0
 14 16  1  0
 14 64  1  6
 15 65  1  0
 15 66  1  0
 15 67  1  0
 16 17  1  0
 16 68  1  0
 16 69  1  0
 17 18  1  0
 17 70  1  0
 17 71  1  0
 18 32  1  0
 18 19  1  0
 18 72  1  1
 19 20  1  0
 19 21  1  0
 19 73  1  6
 20 74  1  0
 20 75  1  0
 20 76  1  0
 21 22  1  0
 21 23  1  0
 21 77  1  1
 22 78  1  0
 23 24  1  0
 23 25  1  0
 23 79  1  6
 24 80  1  0
 24 81  1  0
 24 82  1  0
 25 32  1  0
 25 26  1  0
 25 83  1  6
 26 27  1  0
 26 84  1  0
 26 85  1  0
 27 28  1  0
 27 86  1  0
 27 87  1  0
 28 29  1  1
 28 30  1  0
 29 88  1  0
 29 89  1  0
 29 90  1  0
 30 31  1  0
 32 31  1  1
 33 34  1  0
 34 41  1  0
 34 35  1  0
 34 91  1  1
 35 36  1  0
 36 43  1  0
 36 37  1  6
 36 38  1  0
 37 92  1  0
 37 93  1  0
 37 94  1  0
 38 39  1  0
 38 95  1  0
 38 96  1  0
 39 40  1  0
 39 97  1  0
 39 98  1  0
 40 41  1  0
 40 99  1  1
 41 42  1  6
 42 43  1  0
M  END
>  <i_m_ct_stereo_status>  (189) 
1

>  <s_m_source_file>  (189) 
/var/tmp/pbs.5076255.sched01/tmp0glzbzrw/400n8fk_jm.sdf

>  <i_m_source_file_index>  (189) 
38

>  <i_lp_mmshare_version>  (189) 
48012

>  <i_f3d_flags>  (189) 
0

>  <s_epik_input>  (189) 
W0NAQF0xMjNbQ0BASF00W0NIMl1bQ0gyXVtDQEBIXShbQ0gzXSlbQ0BIXTJbQ0gyXVtDSDJdW0NAXShbQ0gzXSkoT08zKU9bQ0BASF0xT1tDQEBIXShbQ0BASF00W09IXSlbQ0gyXVtDQEhdKFtDQEBIXShbQ0gzXSlbQ0BASF01W0NAXTY3OClbQ0BdKFtDSDNdKShPTzgpW0NIMl1bQ0gyXVtDQEBIXTdbQ0BIXShbQ0gzXSlbQ0BIXShbT0hdKVtDQEhdKFtDSDNdKVtDQEhdNltDSDJdW0NIMl1bQ0BASF01W0NIM10=

>  <s_epik_cmdline>  (189) 
J2VwaWtfcHl0aG9uJywgJy1waHQnLCAnMi4wJywgJy1waCcsICc3LjAnLCAnLXRuJywgJzgnLCAnLW1hJywgJzIwMCcsICctaW1hZScsICc8aW5maWxlLm1hZT4nLCAnLW9tYWUnLCAnPG91dGZpbGUubWFlPic=

>  <r_lp_tautomer_probability>  (189) 
1

>  <r_epik_Ionization_Penalty>  (189) 
9.47147e-07

>  <r_epik_Ionization_Penalty_Charging>  (189) 
0

>  <r_epik_Ionization_Penalty_Neutral>  (189) 
9.47147e-07

>  <r_epik_State_Penalty>  (189) 
-0

>  <r_epik_Charging_Adjusted_Penalty>  (189) 
0

>  <i_epik_Tot_Q>  (189) 
0

>  <i_epik_Tot_abs_Q>  (189) 
0

>  <s_epik_Chemistry_Notes>  (189) 
This compound contains an acetal/aminal-like group ( X-CH(R)-Y where X, Y are N, S, or O) that may be acid/base labile, releasing an aldehyde.

>  <s_lp_Force_Field>  (189) 
OPLS3e

>  <r_lp_Energy>  (189) 
107.122

>  <b_lp_Chiralities_Consistent>  (189) 
1

>  <s_lp_Variant>  (189) 
59:0-1

>  <s_i_glide_gridfile>  (189) 
pfpi4k_grid

>  <i_i_glide_lignum>  (189) 
38

>  <i_i_glide_rotatable_bonds>  (189) 
4

>  <r_i_docking_score>  (189) 
-1.84648

>  <r_i_glide_ligand_efficiency>  (189) 
-0.0429414

>  <r_i_glide_ligand_efficiency_sa>  (189) 
-0.150441

>  <r_i_glide_ligand_efficiency_ln>  (189) 
-0.387818

>  <r_i_glide_gscore>  (189) 
-1.84648

>  <r_i_glide_lipo>  (189) 
-0.1869

>  <r_i_glide_hbond>  (189) 
-0.00245318

>  <r_i_glide_metal>  (189) 
-0

>  <r_i_glide_rewards>  (189) 
0

>  <r_i_glide_evdw>  (189) 
-25.0278

>  <r_i_glide_ecoul>  (189) 
-3.31362

>  <r_i_glide_erotb>  (189) 
0.114947

>  <r_i_glide_esite>  (189) 
-0.0236421

>  <r_i_glide_emodel>  (189) 
-27.3823

>  <r_i_glide_energy>  (189) 
-28.3414

>  <r_i_glide_einternal>  (189) 
5.51371

>  <r_i_glide_intrahb_reward>  (189) 
-0

>  <i_i_glide_confnum>  (189) 
5

>  <i_i_glide_posenum>  (189) 
36

>  <r_i_glide_eff_state_penalty>  (189) 
0

>  <ligand_id>  (189) 
59

>  <original_smiles>  (189) 
CC1CCC2C(O)C(CC3C(C)C4C(C)CCC5C(C)C(O)C(C)C6CCC3(C)OOC564)OC3OC4(C)CCC1C32OO4

>  <smiles>  (189) 
[H]OC1([H])C([H])(C([H])([H])[H])C2([H])C([H])([H])C([H])([H])C([H])(C([H])([H])[H])C3([H])C([H])(C([H])([H])[H])C([H])(C([H])([H])C4([H])OC5([H])OC6(C([H])([H])[H])OOC57C([H])(C([H])([H])C([H])([H])C([H])(C([H])([H])[H])C7([H])C([H])([H])C6([H])[H])C4([H])O[H])C4(C([H])([H])[H])OOC23C([H])(C([H])([H])C4([H])[H])C1([H])C([H])([H])[H]

$$$$
59:0:1
     RDKit          3D

 99106  0  0  1  0  0  0  0  0999 V2000
   -0.7602   -8.6655    4.9629 C   0  0  0  0  0  0  0  0  0  0  0  0
    0.5452   -9.4962    4.9094 C   0  0  2  0  0  0  0  0  0  0  0  0
    1.1572   -9.6088    6.3132 C   0  0  0  0  0  0  0  0  0  0  0  0
    1.7086   -8.2592    6.7807 C   0  0  0  0  0  0  0  0  0  0  0  0
    2.7880   -7.7281    5.8170 C   0  0  2  0  0  0  0  0  0  0  0  0
    3.3673   -6.3802    6.2720 C   0  0  1  0  0  0  0  0  0  0  0  0
    4.6263   -6.1895    5.6597 O   0  0  0  0  0  0  0  0  0  0  0  0
    2.4315   -5.2132    5.9005 C   0  0  1  0  0  0  0  0  0  0  0  0
    2.9835   -3.8361    6.3455 C   0  0  0  0  0  0  0  0  0  0  0  0
    2.0842   -2.5832    6.0426 C   0  0  2  0  0  0  0  0  0  0  0  0
    2.9300   -1.4087    5.4116 C   0  0  1  0  0  0  0  0  0  0  0  0
    4.0163   -1.8365    4.3775 C   0  0  0  0  0  0  0  0  0  0  0  0
    2.1456   -0.1309    4.8890 C   0  0  1  0  0  0  0  0  0  0  0  0
    1.8911   -0.1335    3.3399 C   0  0  1  0  0  0  0  0  0  0  0  0
    0.8818   -1.1929    2.8577 C   0  0  0  0  0  0  0  0  0  0  0  0
    1.5636    1.2755    2.8043 C   0  0  0  0  0  0  0  0  0  0  0  0
    1.0044    2.2142    3.8739 C   0  0  0  0  0  0  0  0  0  0  0  0
    0.0679    1.4622    4.8474 C   0  0  2  0  0  0  0  0  0  0  0  0
   -0.7607    2.5083    5.6612 C   0  0  1  0  0  0  0  0  0  0  0  0
   -1.9427    3.0886    4.8496 C   0  0  0  0  0  0  0  0  0  0  0  0
   -1.2300    1.9860    7.0280 C   0  0  1  0  0  0  0  0  0  0  0  0
   -2.1650    0.9403    6.8681 O   0  0  0  0  0  0  0  0  0  0  0  0
   -0.0265    1.5868    7.9101 C   0  0  1  0  0  0  0  0  0  0  0  0
   -0.4721    0.8536    9.1886 C   0  0  0  0  0  0  0  0  0  0  0  0
    1.1751    0.9658    7.1126 C   0  0  1  0  0  0  0  0  0  0  0  0
    2.2133    0.2331    7.9973 C   0  0  0  0  0  0  0  0  0  0  0  0
    1.9557   -1.2523    8.3467 C   0  0  0  0  0  0  0  0  0  0  0  0
    1.2286   -2.1527    7.3173 C   0  0  2  0  0  0  0  0  0  0  0  0
    0.6756   -3.3821    8.0806 C   0  0  0  0  0  0  0  0  0  0  0  0
    0.0391   -1.4203    7.0491 O   0  0  0  0  0  0  0  0  0  0  0  0
    0.0692   -0.8029    5.6947 O   0  0  0  0  0  0  0  0  0  0  0  0
    0.8707    0.3716    5.6829 C   0  0  2  0  0  0  0  0  0  0  0  0
    2.2441   -5.2483    4.4879 O   0  0  0  0  0  0  0  0  0  0  0  0
    1.5134   -6.3534    4.0395 C   0  0  1  0  0  0  0  0  0  0  0  0
    1.2236   -6.2318    2.6729 O   0  0  0  0  0  0  0  0  0  0  0  0
    2.2277   -6.7620    1.8132 C   0  0  2  0  0  0  0  0  0  0  0  0
    2.2461   -5.8666    0.5699 C   0  0  0  0  0  0  0  0  0  0  0  0
    1.9176   -8.2311    1.4156 C   0  0  0  0  0  0  0  0  0  0  0  0
    1.0606   -8.9787    2.4461 C   0  0  0  0  0  0  0  0  0  0  0  0
    1.5916   -8.9747    3.8931 C   0  0  1  0  0  0  0  0  0  0  0  0
    2.3378   -7.6716    4.3238 C   0  0  2  0  0  0  0  0  0  0  0  0
    3.5429   -7.6922    3.5527 O   0  0  0  0  0  0  0  0  0  0  0  0
    3.5074   -6.6920    2.4189 O   0  0  0  0  0  0  0  0  0  0  0  0
   -0.6044   -7.6443    5.2519 H   0  0  0  0  0  0  0  0  0  0  0  0
   -1.4432   -9.1160    5.6736 H   0  0  0  0  0  0  0  0  0  0  0  0
   -1.2975   -8.6802    4.0222 H   0  0  0  0  0  0  0  0  0  0  0  0
    0.2878  -10.5135    4.6085 H   0  0  0  0  0  0  0  0  0  0  0  0
    0.4103   -9.9783    7.0159 H   0  0  0  0  0  0  0  0  0  0  0  0
    1.9576  -10.3542    6.3297 H   0  0  0  0  0  0  0  0  0  0  0  0
    0.8950   -7.5411    6.8784 H   0  0  0  0  0  0  0  0  0  0  0  0
    2.1160   -8.3636    7.7872 H   0  0  0  0  0  0  0  0  0  0  0  0
    3.5984   -8.4596    5.8958 H   0  0  0  0  0  0  0  0  0  0  0  0
    3.5317   -6.3926    7.3504 H   0  0  0  0  0  0  0  0  0  0  0  0
    4.4785   -6.1879    4.7225 H   0  0  0  0  0  0  0  0  0  0  0  0
    1.4728   -5.3876    6.3844 H   0  0  0  0  0  0  0  0  0  0  0  0
    3.2754   -3.8539    7.3961 H   0  0  0  0  0  0  0  0  0  0  0  0
    3.9302   -3.7732    5.8418 H   0  0  0  0  0  0  0  0  0  0  0  0
    1.3806   -2.8989    5.2724 H   0  0  0  0  0  0  0  0  0  0  0  0
    3.5811   -1.0874    6.2121 H   0  0  0  0  0  0  0  0  0  0  0  0
    3.5887   -2.4156    3.5581 H   0  0  0  0  0  0  0  0  0  0  0  0
    4.8321   -2.4237    4.7998 H   0  0  0  0  0  0  0  0  0  0  0  0
    4.5188   -0.9675    3.9465 H   0  0  0  0  0  0  0  0  0  0  0  0
    2.8746    0.6677    5.0232 H   0  0  0  0  0  0  0  0  0  0  0  0
    2.8081   -0.3744    2.8153 H   0  0  0  0  0  0  0  0  0  0  0  0
   -0.1266   -1.0037    3.2195 H   0  0  0  0  0  0  0  0  0  0  0  0
    1.1650   -2.1943    3.1743 H   0  0  0  0  0  0  0  0  0  0  0  0
    0.8416   -1.2144    1.7687 H   0  0  0  0  0  0  0  0  0  0  0  0
    2.4659    1.7271    2.3830 H   0  0  0  0  0  0  0  0  0  0  0  0
    0.8597    1.2042    1.9750 H   0  0  0  0  0  0  0  0  0  0  0  0
    1.8313    2.6748    4.4204 H   0  0  0  0  0  0  0  0  0  0  0  0
    0.4913    3.0332    3.3700 H   0  0  0  0  0  0  0  0  0  0  0  0
   -0.6535    0.9215    4.2321 H   0  0  0  0  0  0  0  0  0  0  0  0
   -0.1056    3.3543    5.8814 H   0  0  0  0  0  0  0  0  0  0  0  0
   -2.6473    2.3136    4.5486 H   0  0  0  0  0  0  0  0  0  0  0  0
   -1.6098    3.5853    3.9383 H   0  0  0  0  0  0  0  0  0  0  0  0
   -2.4940    3.8282    5.4298 H   0  0  0  0  0  0  0  0  0  0  0  0
   -1.7637    2.7915    7.5387 H   0  0  0  0  0  0  0  0  0  0  0  0
   -2.8303    1.2533    6.2606 H   0  0  0  0  0  0  0  0  0  0  0  0
    0.3597    2.5366    8.2854 H   0  0  0  0  0  0  0  0  0  0  0  0
   -0.7733   -0.1667    8.9752 H   0  0  0  0  0  0  0  0  0  0  0  0
   -1.3159    1.3645    9.6546 H   0  0  0  0  0  0  0  0  0  0  0  0
    0.3218    0.8155    9.9350 H   0  0  0  0  0  0  0  0  0  0  0  0
    1.7347    1.8551    6.8395 H   0  0  0  0  0  0  0  0  0  0  0  0
    3.2008    0.3674    7.5689 H   0  0  0  0  0  0  0  0  0  0  0  0
    2.3219    0.7821    8.9317 H   0  0  0  0  0  0  0  0  0  0  0  0
    2.8923   -1.7212    8.6351 H   0  0  0  0  0  0  0  0  0  0  0  0
    1.3516   -1.2521    9.2531 H   0  0  0  0  0  0  0  0  0  0  0  0
    1.4752   -3.9329    8.5771 H   0  0  0  0  0  0  0  0  0  0  0  0
    0.1422   -4.0694    7.4224 H   0  0  0  0  0  0  0  0  0  0  0  0
   -0.0155   -3.0843    8.8719 H   0  0  0  0  0  0  0  0  0  0  0  0
    0.5678   -6.3054    4.5404 H   0  0  0  0  0  0  0  0  0  0  0  0
    2.4707   -4.8339    0.8327 H   0  0  0  0  0  0  0  0  0  0  0  0
    1.2779   -5.8782    0.0660 H   0  0  0  0  0  0  0  0  0  0  0  0
    2.9959   -6.2079   -0.1419 H   0  0  0  0  0  0  0  0  0  0  0  0
    1.3147   -8.2298    0.5090 H   0  0  0  0  0  0  0  0  0  0  0  0
    2.8343   -8.7832    1.1780 H   0  0  0  0  0  0  0  0  0  0  0  0
    0.0804   -8.5086    2.4139 H   0  0  0  0  0  0  0  0  0  0  0  0
    0.9037  -10.0085    2.1105 H   0  0  0  0  0  0  0  0  0  0  0  0
    2.3783   -9.7400    3.8917 H   0  0  0  0  0  0  0  0  0  0  0  0
  1  2  1  0
  1 44  1  0
  1 45  1  0
  1 46  1  0
  2 40  1  0
  2  3  1  0
  2 47  1  6
  3  4  1  0
  3 48  1  0
  3 49  1  0
  4  5  1  0
  4 50  1  0
  4 51  1  0
  5 41  1  0
  5  6  1  0
  5 52  1  6
  6  7  1  0
  6  8  1  0
  6 53  1  1
  7 54  1  0
  8  9  1  0
  8 33  1  0
  8 55  1  1
  9 10  1  0
  9 56  1  0
  9 57  1  0
 10 28  1  0
 10 11  1  0
 10 58  1  6
 11 12  1  0
 11 13  1  0
 11 59  1  1
 12 60  1  0
 12 61  1  0
 12 62  1  0
 13 32  1  0
 13 14  1  0
 13 63  1  6
 14 15  1  0
 14 16  1  0
 14 64  1  6
 15 65  1  0
 15 66  1  0
 15 67  1  0
 16 17  1  0
 16 68  1  0
 16 69  1  0
 17 18  1  0
 17 70  1  0
 17 71  1  0
 18 32  1  0
 18 19  1  0
 18 72  1  6
 19 20  1  0
 19 21  1  0
 19 73  1  1
 20 74  1  0
 20 75  1  0
 20 76  1  0
 21 22  1  0
 21 23  1  0
 21 77  1  1
 22 78  1  0
 23 24  1  0
 23 25  1  0
 23 79  1  1
 24 80  1  0
 24 81  1  0
 24 82  1  0
 25 32  1  0
 25 26  1  0
 25 83  1  6
 26 27  1  0
 26 84  1  0
 26 85  1  0
 27 28  1  0
 27 86  1  0
 27 87  1  0
 28 29  1  1
 28 30  1  0
 29 88  1  0
 29 89  1  0
 29 90  1  0
 30 31  1  0
 32 31  1  1
 33 34  1  0
 34 41  1  0
 34 35  1  0
 34 91  1  1
 35 36  1  0
 36 43  1  0
 36 37  1  6
 36 38  1  0
 37 92  1  0
 37 93  1  0
 37 94  1  0
 38 39  1  0
 38 95  1  0
 38 96  1  0
 39 40  1  0
 39 97  1  0
 39 98  1  0
 40 41  1  0
 40 99  1  6
 41 42  1  6
 42 43  1  0
M  END
>  <i_m_ct_stereo_status>  (190) 
1

>  <s_m_source_file>  (190) 
/var/tmp/pbs.5076255.sched01/tmp0glzbzrw/400n8fk_jm.sdf

>  <i_m_source_file_index>  (190) 
38

>  <i_lp_mmshare_version>  (190) 
48012

>  <i_f3d_flags>  (190) 
0

>  <s_epik_input>  (190) 
W0NAQF0xMjNbQ0BASF00W0NIMl1bQ0gyXVtDQEBIXShbQ0gzXSlbQ0BIXTJbQ0gyXVtDSDJdW0NAXShbQ0gzXSkoT08zKU9bQ0BASF0xT1tDQEBIXShbQ0BASF00W09IXSlbQ0gyXVtDQEhdKFtDQEBIXShbQ0gzXSlbQ0BASF01W0NAXTY3OClbQ0BdKFtDSDNdKShPTzgpW0NIMl1bQ0gyXVtDQEBIXTdbQ0BIXShbQ0gzXSlbQ0BIXShbT0hdKVtDQEhdKFtDSDNdKVtDQEhdNltDSDJdW0NIMl1bQ0BASF01W0NIM10=

>  <s_epik_cmdline>  (190) 
J2VwaWtfcHl0aG9uJywgJy1waHQnLCAnMi4wJywgJy1waCcsICc3LjAnLCAnLXRuJywgJzgnLCAnLW1hJywgJzIwMCcsICctaW1hZScsICc8aW5maWxlLm1hZT4nLCAnLW9tYWUnLCAnPG91dGZpbGUubWFlPic=

>  <r_lp_tautomer_probability>  (190) 
1

>  <r_epik_Ionization_Penalty>  (190) 
9.47147e-07

>  <r_epik_Ionization_Penalty_Charging>  (190) 
0

>  <r_epik_Ionization_Penalty_Neutral>  (190) 
9.47147e-07

>  <r_epik_State_Penalty>  (190) 
-0

>  <r_epik_Charging_Adjusted_Penalty>  (190) 
0

>  <i_epik_Tot_Q>  (190) 
0

>  <i_epik_Tot_abs_Q>  (190) 
0

>  <s_epik_Chemistry_Notes>  (190) 
This compound contains an acetal/aminal-like group ( X-CH(R)-Y where X, Y are N, S, or O) that may be acid/base labile, releasing an aldehyde.

>  <s_lp_Force_Field>  (190) 
OPLS3e

>  <r_lp_Energy>  (190) 
107.122

>  <b_lp_Chiralities_Consistent>  (190) 
1

>  <s_lp_Variant>  (190) 
59:0-1

>  <s_i_glide_gridfile>  (190) 
pfpi4k_grid

>  <i_i_glide_lignum>  (190) 
38

>  <i_i_glide_rotatable_bonds>  (190) 
4

>  <r_i_docking_score>  (190) 
-1.68819

>  <r_i_glide_ligand_efficiency>  (190) 
-0.0392602

>  <r_i_glide_ligand_efficiency_sa>  (190) 
-0.137544

>  <r_i_glide_ligand_efficiency_ln>  (190) 
-0.354572

>  <r_i_glide_gscore>  (190) 
-1.68819

>  <r_i_glide_lipo>  (190) 
-0.0108888

>  <r_i_glide_hbond>  (190) 
0

>  <r_i_glide_metal>  (190) 
-0

>  <r_i_glide_rewards>  (190) 
0

>  <r_i_glide_evdw>  (190) 
-21.6554

>  <r_i_glide_ecoul>  (190) 
-4.58391

>  <r_i_glide_erotb>  (190) 
0.114947

>  <r_i_glide_esite>  (190) 
-0.0218895

>  <r_i_glide_emodel>  (190) 
-27.6844

>  <r_i_glide_energy>  (190) 
-26.2393

>  <r_i_glide_einternal>  (190) 
2.36278

>  <r_i_glide_intrahb_reward>  (190) 
-0

>  <i_i_glide_confnum>  (190) 
6

>  <i_i_glide_posenum>  (190) 
38

>  <r_i_glide_eff_state_penalty>  (190) 
0

>  <ligand_id>  (190) 
59

>  <original_smiles>  (190) 
CC1CCC2C(O)C(CC3C(C)C4C(C)CCC5C(C)C(O)C(C)C6CCC3(C)OOC564)OC3OC4(C)CCC1C32OO4

>  <smiles>  (190) 
[H]OC1([H])C([H])(C([H])([H])[H])C2([H])C([H])([H])C([H])([H])C([H])(C([H])([H])[H])C3([H])C([H])(C([H])([H])[H])C([H])(C([H])([H])C4([H])OC5([H])OC6(C([H])([H])[H])OOC57C([H])(C([H])([H])C([H])([H])C([H])(C([H])([H])[H])C7([H])C([H])([H])C6([H])[H])C4([H])O[H])C4(C([H])([H])[H])OOC23C([H])(C([H])([H])C4([H])[H])C1([H])C([H])([H])[H]

$$$$
59:0:2
     RDKit          3D

 99106  0  0  1  0  0  0  0  0999 V2000
    4.8694    0.1436    6.8866 C   0  0  0  0  0  0  0  0  0  0  0  0
    3.5999    0.9824    7.1993 C   0  0  2  0  0  0  0  0  0  0  0  0
    2.9206    0.4523    8.4705 C   0  0  0  0  0  0  0  0  0  0  0  0
    2.2172   -0.8775    8.1995 C   0  0  0  0  0  0  0  0  0  0  0  0
    1.1438   -0.7463    7.1075 C   0  0  2  0  0  0  0  0  0  0  0  0
    0.4284   -2.0898    6.8310 C   0  0  1  0  0  0  0  0  0  0  0  0
   -0.8071   -1.8485    6.2039 O   0  0  0  0  0  0  0  0  0  0  0  0
    1.2481   -2.9913    5.8837 C   0  0  1  0  0  0  0  0  0  0  0  0
    0.5740   -4.3355    5.5329 C   0  0  0  0  0  0  0  0  0  0  0  0
    1.4874   -5.5207    5.0467 C   0  0  2  0  0  0  0  0  0  0  0  0
    1.6313   -5.5336    3.4692 C   0  0  1  0  0  0  0  0  0  0  0  0
    1.7479   -4.1632    2.7843 C   0  0  0  0  0  0  0  0  0  0  0  0
    2.6547   -6.5278    2.8043 C   0  0  1  0  0  0  0  0  0  0  0  0
    4.0406   -5.8708    2.4741 C   0  0  1  0  0  0  0  0  0  0  0  0
    4.9060   -5.4862    3.6972 C   0  0  0  0  0  0  0  0  0  0  0  0
    4.8270   -6.7037    1.4440 C   0  0  0  0  0  0  0  0  0  0  0  0
    4.4168   -8.1773    1.4262 C   0  0  0  0  0  0  0  0  0  0  0  0
    4.1154   -8.6886    2.8513 C   0  0  2  0  0  0  0  0  0  0  0  0
    4.0675  -10.2444    2.8067 C   0  0  1  0  0  0  0  0  0  0  0  0
    5.4759  -10.8719    2.8031 C   0  0  0  0  0  0  0  0  0  0  0  0
    3.1942  -10.8614    3.9045 C   0  0  1  0  0  0  0  0  0  0  0  0
    3.7289  -10.5829    5.1790 O   0  0  0  0  0  0  0  0  0  0  0  0
    1.7351  -10.3866    3.7921 C   0  0  1  0  0  0  0  0  0  0  0  0
    0.9048  -10.8014    5.0164 C   0  0  0  0  0  0  0  0  0  0  0  0
    1.5778   -8.9063    3.2954 C   0  0  1  0  0  0  0  0  0  0  0  0
    0.1689   -8.2919    3.5148 C   0  0  0  0  0  0  0  0  0  0  0  0
   -0.1445   -7.6354    4.8810 C   0  0  0  0  0  0  0  0  0  0  0  0
    0.9995   -6.9218    5.6356 C   0  0  2  0  0  0  0  0  0  0  0  0
    0.6027   -6.8501    7.1342 C   0  0  0  0  0  0  0  0  0  0  0  0
    1.9946   -7.9251    5.6662 O   0  0  0  0  0  0  0  0  0  0  0  0
    3.1261   -7.6098    4.7676 O   0  0  0  0  0  0  0  0  0  0  0  0
    2.8283   -7.9606    3.4330 C   0  0  2  0  0  0  0  0  0  0  0  0
    1.5016   -2.2254    4.7199 O   0  0  0  0  0  0  0  0  0  0  0  0
    2.3675   -1.1707    4.8805 C   0  0  1  0  0  0  0  0  0  0  0  0
    2.7209   -0.6366    3.6425 O   0  0  0  0  0  0  0  0  0  0  0  0
    1.8202    0.3561    3.1516 C   0  0  2  0  0  0  0  0  0  0  0  0
    1.7880    0.1906    1.6204 C   0  0  0  0  0  0  0  0  0  0  0  0
    2.2750    1.7923    3.5236 C   0  0  0  0  0  0  0  0  0  0  0  0
    3.1595    1.8300    4.7900 C   0  0  0  0  0  0  0  0  0  0  0  0
    2.5770    1.1521    6.0539 C   0  0  1  0  0  0  0  0  0  0  0  0
    1.6811   -0.0946    5.7909 C   0  0  2  0  0  0  0  0  0  0  0  0
    0.5200    0.4419    5.1379 O   0  0  0  0  0  0  0  0  0  0  0  0
    0.5102    0.1458    3.6555 O   0  0  0  0  0  0  0  0  0  0  0  0
    4.6259   -0.8989    6.6037 H   0  0  0  0  0  0  0  0  0  0  0  0
    5.5620    0.1488    7.7311 H   0  0  0  0  0  0  0  0  0  0  0  0
    5.4475    0.5372    6.0738 H   0  0  0  0  0  0  0  0  0  0  0  0
    3.9427    2.0048    7.4547 H   0  0  0  0  0  0  0  0  0  0  0  0
    3.6461    0.3366    9.2712 H   0  0  0  0  0  0  0  0  0  0  0  0
    2.1906    1.1683    8.8367 H   0  0  0  0  0  0  0  0  0  0  0  0
    2.9532   -1.6438    7.9200 H   0  0  0  0  0  0  0  0  0  0  0  0
    1.7663   -1.2505    9.1219 H   0  0  0  0  0  0  0  0  0  0  0  0
    0.3974   -0.0643    7.5366 H   0  0  0  0  0  0  0  0  0  0  0  0
    0.2218   -2.5910    7.7879 H   0  0  0  0  0  0  0  0  0  0  0  0
   -0.6021   -1.4625    5.3578 H   0  0  0  0  0  0  0  0  0  0  0  0
    2.1790   -3.2111    6.3862 H   0  0  0  0  0  0  0  0  0  0  0  0
    0.0204   -4.5799    6.4247 H   0  0  0  0  0  0  0  0  0  0  0  0
   -0.1941   -4.1715    4.7969 H   0  0  0  0  0  0  0  0  0  0  0  0
    2.4766   -5.3471    5.4740 H   0  0  0  0  0  0  0  0  0  0  0  0
    0.6415   -5.7963    3.1373 H   0  0  0  0  0  0  0  0  0  0  0  0
    2.6082   -3.6058    3.1526 H   0  0  0  0  0  0  0  0  0  0  0  0
    0.8633   -3.5607    2.9345 H   0  0  0  0  0  0  0  0  0  0  0  0
    1.8261   -4.2399    1.6985 H   0  0  0  0  0  0  0  0  0  0  0  0
    2.2120   -6.7211    1.8266 H   0  0  0  0  0  0  0  0  0  0  0  0
    3.8916   -4.9349    1.9442 H   0  0  0  0  0  0  0  0  0  0  0  0
    5.2562   -6.3407    4.2754 H   0  0  0  0  0  0  0  0  0  0  0  0
    4.3627   -4.8305    4.3732 H   0  0  0  0  0  0  0  0  0  0  0  0
    5.7893   -4.9311    3.3837 H   0  0  0  0  0  0  0  0  0  0  0  0
    4.6753   -6.2779    0.4462 H   0  0  0  0  0  0  0  0  0  0  0  0
    5.8953   -6.6281    1.6501 H   0  0  0  0  0  0  0  0  0  0  0  0
    3.5370   -8.3006    0.7869 H   0  0  0  0  0  0  0  0  0  0  0  0
    5.2145   -8.7480    0.9564 H   0  0  0  0  0  0  0  0  0  0  0  0
    4.9522   -8.4187    3.5046 H   0  0  0  0  0  0  0  0  0  0  0  0
    3.5871  -10.5425    1.8726 H   0  0  0  0  0  0  0  0  0  0  0  0
    6.0369  -10.6167    3.7042 H   0  0  0  0  0  0  0  0  0  0  0  0
    6.0637  -10.5502    1.9447 H   0  0  0  0  0  0  0  0  0  0  0  0
    5.4153  -11.9590    2.7479 H   0  0  0  0  0  0  0  0  0  0  0  0
    3.1971  -11.9484    3.7865 H   0  0  0  0  0  0  0  0  0  0  0  0
    3.2090  -11.0746    5.8117 H   0  0  0  0  0  0  0  0  0  0  0  0
    1.3089  -10.9788    2.9836 H   0  0  0  0  0  0  0  0  0  0  0  0
    1.1423  -10.2151    5.9035 H   0  0  0  0  0  0  0  0  0  0  0  0
    1.0782  -11.8492    5.2628 H   0  0  0  0  0  0  0  0  0  0  0  0
   -0.1572  -10.6952    4.8061 H   0  0  0  0  0  0  0  0  0  0  0  0
    1.5768   -9.0417    2.2196 H   0  0  0  0  0  0  0  0  0  0  0  0
   -0.0521   -7.6258    2.6889 H   0  0  0  0  0  0  0  0  0  0  0  0
   -0.5677   -9.0708    3.3442 H   0  0  0  0  0  0  0  0  0  0  0  0
   -0.9791   -6.9455    4.7946 H   0  0  0  0  0  0  0  0  0  0  0  0
   -0.4894   -8.4425    5.5232 H   0  0  0  0  0  0  0  0  0  0  0  0
   -0.3749   -6.3789    7.2319 H   0  0  0  0  0  0  0  0  0  0  0  0
    1.3272   -6.2719    7.7127 H   0  0  0  0  0  0  0  0  0  0  0  0
    0.5169   -7.8461    7.5753 H   0  0  0  0  0  0  0  0  0  0  0  0
    3.2890   -1.5651    5.3204 H   0  0  0  0  0  0  0  0  0  0  0  0
    1.4721   -0.8096    1.3383 H   0  0  0  0  0  0  0  0  0  0  0  0
    2.7815    0.3389    1.1938 H   0  0  0  0  0  0  0  0  0  0  0  0
    1.1199    0.9039    1.1534 H   0  0  0  0  0  0  0  0  0  0  0  0
    2.9096    2.1964    2.7330 H   0  0  0  0  0  0  0  0  0  0  0  0
    1.4214    2.4758    3.5881 H   0  0  0  0  0  0  0  0  0  0  0  0
    4.0961    1.3366    4.5186 H   0  0  0  0  0  0  0  0  0  0  0  0
    3.4145    2.8759    5.0084 H   0  0  0  0  0  0  0  0  0  0  0  0
    1.8737    1.8886    6.4369 H   0  0  0  0  0  0  0  0  0  0  0  0
  1  2  1  0
  1 44  1  0
  1 45  1  0
  1 46  1  0
  2 40  1  0
  2  3  1  0
  2 47  1  1
  3  4  1  0
  3 48  1  0
  3 49  1  0
  4  5  1  0
  4 50  1  0
  4 51  1  0
  5 41  1  0
  5  6  1  0
  5 52  1  1
  6  7  1  0
  6  8  1  0
  6 53  1  1
  7 54  1  0
  8  9  1  0
  8 33  1  0
  8 55  1  1
  9 10  1  0
  9 56  1  0
  9 57  1  0
 10 28  1  0
 10 11  1  0
 10 58  1  1
 11 12  1  0
 11 13  1  0
 11 59  1  6
 12 60  1  0
 12 61  1  0
 12 62  1  0
 13 32  1  0
 13 14  1  0
 13 63  1  6
 14 15  1  0
 14 16  1  0
 14 64  1  6
 15 65  1  0
 15 66  1  0
 15 67  1  0
 16 17  1  0
 16 68  1  0
 16 69  1  0
 17 18  1  0
 17 70  1  0
 17 71  1  0
 18 32  1  0
 18 19  1  0
 18 72  1  1
 19 20  1  0
 19 21  1  0
 19 73  1  6
 20 74  1  0
 20 75  1  0
 20 76  1  0
 21 22  1  0
 21 23  1  0
 21 77  1  6
 22 78  1  0
 23 24  1  0
 23 25  1  0
 23 79  1  6
 24 80  1  0
 24 81  1  0
 24 82  1  0
 25 32  1  0
 25 26  1  0
 25 83  1  6
 26 27  1  0
 26 84  1  0
 26 85  1  0
 27 28  1  0
 27 86  1  0
 27 87  1  0
 28 29  1  1
 28 30  1  0
 29 88  1  0
 29 89  1  0
 29 90  1  0
 30 31  1  0
 32 31  1  1
 33 34  1  0
 34 41  1  0
 34 35  1  0
 34 91  1  1
 35 36  1  0
 36 43  1  0
 36 37  1  6
 36 38  1  0
 37 92  1  0
 37 93  1  0
 37 94  1  0
 38 39  1  0
 38 95  1  0
 38 96  1  0
 39 40  1  0
 39 97  1  0
 39 98  1  0
 40 41  1  0
 40 99  1  1
 41 42  1  6
 42 43  1  0
M  END
>  <i_m_ct_stereo_status>  (191) 
1

>  <s_m_source_file>  (191) 
/var/tmp/pbs.5076255.sched01/tmp0glzbzrw/400n8fk_jm.sdf

>  <i_m_source_file_index>  (191) 
38

>  <i_lp_mmshare_version>  (191) 
48012

>  <i_f3d_flags>  (191) 
0

>  <s_epik_input>  (191) 
W0NAQF0xMjNbQ0BASF00W0NIMl1bQ0gyXVtDQEBIXShbQ0gzXSlbQ0BIXTJbQ0gyXVtDSDJdW0NAXShbQ0gzXSkoT08zKU9bQ0BASF0xT1tDQEBIXShbQ0BASF00W09IXSlbQ0gyXVtDQEhdKFtDQEBIXShbQ0gzXSlbQ0BASF01W0NAXTY3OClbQ0BdKFtDSDNdKShPTzgpW0NIMl1bQ0gyXVtDQEBIXTdbQ0BIXShbQ0gzXSlbQ0BIXShbT0hdKVtDQEhdKFtDSDNdKVtDQEhdNltDSDJdW0NIMl1bQ0BASF01W0NIM10=

>  <s_epik_cmdline>  (191) 
J2VwaWtfcHl0aG9uJywgJy1waHQnLCAnMi4wJywgJy1waCcsICc3LjAnLCAnLXRuJywgJzgnLCAnLW1hJywgJzIwMCcsICctaW1hZScsICc8aW5maWxlLm1hZT4nLCAnLW9tYWUnLCAnPG91dGZpbGUubWFlPic=

>  <r_lp_tautomer_probability>  (191) 
1

>  <r_epik_Ionization_Penalty>  (191) 
9.47147e-07

>  <r_epik_Ionization_Penalty_Charging>  (191) 
0

>  <r_epik_Ionization_Penalty_Neutral>  (191) 
9.47147e-07

>  <r_epik_State_Penalty>  (191) 
-0

>  <r_epik_Charging_Adjusted_Penalty>  (191) 
0

>  <i_epik_Tot_Q>  (191) 
0

>  <i_epik_Tot_abs_Q>  (191) 
0

>  <s_epik_Chemistry_Notes>  (191) 
This compound contains an acetal/aminal-like group ( X-CH(R)-Y where X, Y are N, S, or O) that may be acid/base labile, releasing an aldehyde.

>  <s_lp_Force_Field>  (191) 
OPLS3e

>  <r_lp_Energy>  (191) 
107.122

>  <b_lp_Chiralities_Consistent>  (191) 
1

>  <s_lp_Variant>  (191) 
59:0-1

>  <s_i_glide_gridfile>  (191) 
pfpi4k_grid

>  <i_i_glide_lignum>  (191) 
38

>  <i_i_glide_rotatable_bonds>  (191) 
4

>  <r_i_docking_score>  (191) 
-1.54765

>  <r_i_glide_ligand_efficiency>  (191) 
-0.0359919

>  <r_i_glide_ligand_efficiency_sa>  (191) 
-0.126094

>  <r_i_glide_ligand_efficiency_ln>  (191) 
-0.325055

>  <r_i_glide_gscore>  (191) 
-1.54765

>  <r_i_glide_lipo>  (191) 
-0.0927867

>  <r_i_glide_hbond>  (191) 
0

>  <r_i_glide_metal>  (191) 
-0

>  <r_i_glide_rewards>  (191) 
0

>  <r_i_glide_evdw>  (191) 
-23.5077

>  <r_i_glide_ecoul>  (191) 
-2.56092

>  <r_i_glide_erotb>  (191) 
0.114947

>  <r_i_glide_esite>  (191) 
-0.0102901

>  <r_i_glide_emodel>  (191) 
-26.4852

>  <r_i_glide_energy>  (191) 
-26.0686

>  <r_i_glide_einternal>  (191) 
3.83927

>  <r_i_glide_intrahb_reward>  (191) 
-0

>  <i_i_glide_confnum>  (191) 
5

>  <i_i_glide_posenum>  (191) 
14

>  <r_i_glide_eff_state_penalty>  (191) 
0

>  <ligand_id>  (191) 
59

>  <original_smiles>  (191) 
CC1CCC2C(O)C(CC3C(C)C4C(C)CCC5C(C)C(O)C(C)C6CCC3(C)OOC564)OC3OC4(C)CCC1C32OO4

>  <smiles>  (191) 
[H]OC1([H])C([H])(C([H])([H])[H])C2([H])C([H])([H])C([H])([H])C([H])(C([H])([H])[H])C3([H])C([H])(C([H])([H])[H])C([H])(C([H])([H])C4([H])OC5([H])OC6(C([H])([H])[H])OOC57C([H])(C([H])([H])C([H])([H])C([H])(C([H])([H])[H])C7([H])C([H])([H])C6([H])[H])C4([H])O[H])C4(C([H])([H])[H])OOC23C([H])(C([H])([H])C4([H])[H])C1([H])C([H])([H])[H]

$$$$
60:0:0
     RDKit          3D

 46 49  0  0  1  0  0  0  0  0999 V2000
    2.6248    1.3968   -5.6081 C   0  0  0  0  0  0  0  0  0  0  0  0
    2.8094    0.5308   -4.4412 N   0  0  0  0  0  0  0  0  0  0  0  0
    2.4623   -0.8575   -4.7266 C   0  0  0  0  0  0  0  0  0  0  0  0
    2.6410   -1.8210   -3.5195 C   0  0  0  0  0  0  0  0  0  0  0  0
    4.0029   -1.6777   -2.9710 N   0  0  0  0  0  0  0  0  0  0  0  0
    4.7055   -2.7550   -2.6885 C   0  0  0  0  0  0  0  0  0  0  0  0
    4.7336   -3.7241   -3.4623 O   0  0  0  0  0  0  0  0  0  0  0  0
    5.4763   -2.8294   -1.3056 C   0  0  2  0  0  0  0  0  0  0  0  0
    7.0102   -2.6828   -1.5800 C   0  0  0  0  0  0  0  0  0  0  0  0
    7.7924   -2.6855   -0.2392 C   0  0  1  0  0  0  0  0  0  0  0  0
    7.2370   -1.5448    0.6694 C   0  0  0  0  0  0  0  0  0  0  0  0
    5.7599   -1.8548    1.0308 C   0  0  2  0  0  0  0  0  0  0  0  0
    5.5692   -3.2346    1.6730 C   0  0  0  0  0  0  0  0  0  0  0  0
    6.0805   -4.3006    0.6886 C   0  0  2  0  0  0  0  0  0  0  0  0
    7.5870   -4.0669    0.4270 C   0  0  0  0  0  0  0  0  0  0  0  0
    5.2753   -4.2184   -0.6437 C   0  0  0  0  0  0  0  0  0  0  0  0
    4.9629   -1.7441   -0.2578 C   0  0  0  0  0  0  0  0  0  0  0  0
    4.4476   -0.3037   -2.7711 C   0  0  0  0  0  0  0  0  0  0  0  0
    4.2034    0.5553   -4.0009 C   0  0  0  0  0  0  0  0  0  0  0  0
    3.1751    0.9449   -6.4387 H   0  0  0  0  0  0  0  0  0  0  0  0
    2.9832    2.4119   -5.4273 H   0  0  0  0  0  0  0  0  0  0  0  0
    1.5825    1.4545   -5.9058 H   0  0  0  0  0  0  0  0  0  0  0  0
    1.4477   -0.8404   -5.1167 H   0  0  0  0  0  0  0  0  0  0  0  0
    3.1605   -1.1561   -5.5081 H   0  0  0  0  0  0  0  0  0  0  0  0
    2.0151   -1.6019   -2.6751 H   0  0  0  0  0  0  0  0  0  0  0  0
    2.3937   -2.8696   -3.7477 H   0  0  0  0  0  0  0  0  0  0  0  0
    7.3355   -3.4774   -2.2505 H   0  0  0  0  0  0  0  0  0  0  0  0
    7.2235   -1.7972   -2.1678 H   0  0  0  0  0  0  0  0  0  0  0  0
    8.8616   -2.5482   -0.4069 H   0  0  0  0  0  0  0  0  0  0  0  0
    7.7806   -1.2629    1.5555 H   0  0  0  0  0  0  0  0  0  0  0  0
    7.3177   -0.6023    0.1178 H   0  0  0  0  0  0  0  0  0  0  0  0
    5.4323   -1.0916    1.7231 H   0  0  0  0  0  0  0  0  0  0  0  0
    6.0911   -3.3026    2.6372 H   0  0  0  0  0  0  0  0  0  0  0  0
    4.5054   -3.3755    1.8618 H   0  0  0  0  0  0  0  0  0  0  0  0
    5.9278   -5.2843    1.1307 H   0  0  0  0  0  0  0  0  0  0  0  0
    7.9715   -4.8593   -0.2169 H   0  0  0  0  0  0  0  0  0  0  0  0
    8.1527   -4.1379    1.3618 H   0  0  0  0  0  0  0  0  0  0  0  0
    4.2163   -4.3770   -0.4597 H   0  0  0  0  0  0  0  0  0  0  0  0
    5.5700   -5.0342   -1.2978 H   0  0  0  0  0  0  0  0  0  0  0  0
    5.2068   -0.7253   -0.5455 H   0  0  0  0  0  0  0  0  0  0  0  0
    3.8771   -1.8369   -0.0565 H   0  0  0  0  0  0  0  0  0  0  0  0
    3.8240    0.1294   -1.9829 H   0  0  0  0  0  0  0  0  0  0  0  0
    5.5177   -0.2850   -2.4983 H   0  0  0  0  0  0  0  0  0  0  0  0
    4.6980    0.1435   -4.8748 H   0  0  0  0  0  0  0  0  0  0  0  0
    4.4935    1.5872   -3.8001 H   0  0  0  0  0  0  0  0  0  0  0  0
    2.2555    0.9069   -3.6711 H   0  0  0  0  0  0  0  0  0  0  0  0
  1  2  1  0
  1 20  1  0
  1 21  1  0
  1 22  1  0
  2 19  1  0
  2  3  1  0
  2 46  1  0
  3  4  1  0
  3 23  1  0
  3 24  1  0
  4  5  1  0
  4 25  1  0
  4 26  1  0
  5  6  1  0
  5 18  1  0
  6  7  2  0
  8  6  1  6
  8 16  1  0
  8 17  1  0
  8  9  1  0
  9 10  1  0
  9 27  1  0
  9 28  1  0
 10 15  1  0
 10 11  1  0
 10 29  1  6
 11 12  1  0
 11 30  1  0
 11 31  1  0
 12 13  1  0
 12 17  1  0
 12 32  1  1
 13 14  1  0
 13 33  1  0
 13 34  1  0
 14 15  1  0
 14 16  1  0
 14 35  1  1
 15 36  1  0
 15 37  1  0
 16 38  1  0
 16 39  1  0
 17 40  1  0
 17 41  1  0
 18 19  1  0
 18 42  1  0
 18 43  1  0
 19 44  1  0
 19 45  1  0
M  CHG  1   2   1
M  END
>  <i_m_ct_stereo_status>  (192) 
1

>  <s_m_source_file>  (192) 
/var/tmp/pbs.5076255.sched01/tmp0glzbzrw/400n8fk_jm.sdf

>  <i_m_source_file_index>  (192) 
39

>  <i_lp_mmshare_version>  (192) 
48012

>  <i_f3d_flags>  (192) 
0

>  <s_epik_input>  (192) 
W0NIM11OMVtDSDJdW0NIMl1OKFtDSDJdW0NIMl0xKUMoPU8pQzIzW0NIMl1bQ0BASF00W0NIMl1bQ0BIXShbQ0gyXTMpW0NIMl1bQ0BASF0oW0NIMl00KVtDSDJdMg==

>  <s_epik_cmdline>  (192) 
J2VwaWtfcHl0aG9uJywgJy1waHQnLCAnMi4wJywgJy1waCcsICc3LjAnLCAnLXRuJywgJzgnLCAnLW1hJywgJzIwMCcsICctaW1hZScsICc8aW5maWxlLm1hZT4nLCAnLW9tYWUnLCAnPG91dGZpbGUubWFlPic=

>  <r_epik_Ionization_Penalty>  (192) 
0.0684911

>  <r_epik_Ionization_Penalty_Charging>  (192) 
0.0684911

>  <r_epik_Ionization_Penalty_Neutral>  (192) 
1.89287e-10

>  <r_epik_State_Penalty>  (192) 
0.0599336

>  <r_epik_Charging_Adjusted_Penalty>  (192) 
0.128425

>  <i_epik_Tot_Q>  (192) 
1

>  <i_epik_Tot_abs_Q>  (192) 
1

>  <s_lp_Force_Field>  (192) 
OPLS3e

>  <r_lp_Energy>  (192) 
26.5765

>  <b_lp_Chiralities_Consistent>  (192) 
1

>  <s_lp_Variant>  (192) 
60:0-1

>  <s_i_glide_gridfile>  (192) 
pfpi4k_grid

>  <i_i_glide_lignum>  (192) 
39

>  <i_i_glide_rotatable_bonds>  (192) 
2

>  <r_i_docking_score>  (192) 
-3.11907

>  <r_i_glide_ligand_efficiency>  (192) 
-0.164162

>  <r_i_glide_ligand_efficiency_sa>  (192) 
-0.43805

>  <r_i_glide_ligand_efficiency_ln>  (192) 
-0.790753

>  <r_i_glide_gscore>  (192) 
-3.11907

>  <r_i_glide_lipo>  (192) 
-0.799581

>  <r_i_glide_hbond>  (192) 
0

>  <r_i_glide_metal>  (192) 
-0

>  <r_i_glide_rewards>  (192) 
-1.82405

>  <r_i_glide_evdw>  (192) 
-9.84628

>  <r_i_glide_ecoul>  (192) 
-3.09276

>  <r_i_glide_erotb>  (192) 
0.511918

>  <r_i_glide_esite>  (192) 
-0.0511297

>  <r_i_glide_emodel>  (192) 
-3.986

>  <r_i_glide_energy>  (192) 
-12.939

>  <r_i_glide_einternal>  (192) 
22.9997

>  <r_i_glide_intrahb_reward>  (192) 
-0

>  <i_i_glide_confnum>  (192) 
4

>  <i_i_glide_posenum>  (192) 
9

>  <r_i_glide_eff_state_penalty>  (192) 
0

>  <ligand_id>  (192) 
60

>  <original_smiles>  (192) 
CN1CCN(C(=O)C23CC4CC(CC(C4)C2)C3)CC1

>  <smiles>  (192) 
[H]C1([H])N(C(=O)C23C([H])([H])C4([H])C([H])([H])C([H])(C([H])([H])C([H])(C4([H])[H])C2([H])[H])C3([H])[H])C([H])([H])C([H])([H])[N+]([H])(C([H])([H])[H])C1([H])[H]

$$$$
60:0:1
     RDKit          3D

 46 49  0  0  1  0  0  0  0  0999 V2000
    2.9327   -2.7069   -3.9588 C   0  0  0  0  0  0  0  0  0  0  0  0
    3.2855   -3.4212   -2.7238 N   0  0  0  0  0  0  0  0  0  0  0  0
    4.7242   -3.3029   -2.3604 C   0  0  0  0  0  0  0  0  0  0  0  0
    5.0446   -4.0807   -1.0733 C   0  0  0  0  0  0  0  0  0  0  0  0
    4.1151   -3.7582    0.0141 N   0  0  0  0  0  0  0  0  0  0  0  0
    4.5721   -3.3351    1.2088 C   0  0  0  0  0  0  0  0  0  0  0  0
    5.5074   -2.5396    1.2568 O   0  0  0  0  0  0  0  0  0  0  0  0
    4.0823   -4.0477    2.5170 C   0  0  2  0  0  0  0  0  0  0  0  0
    4.6864   -5.4815    2.5759 C   0  0  0  0  0  0  0  0  0  0  0  0
    4.2403   -6.2066    3.8718 C   0  0  1  0  0  0  0  0  0  0  0  0
    4.7329   -5.4206    5.1027 C   0  0  0  0  0  0  0  0  0  0  0  0
    4.1359   -3.9929    5.0763 C   0  0  2  0  0  0  0  0  0  0  0  0
    2.5954   -4.0705    5.1301 C   0  0  0  0  0  0  0  0  0  0  0  0
    2.1066   -4.8787    3.9265 C   0  0  2  0  0  0  0  0  0  0  0  0
    2.7036   -6.3003    3.9251 C   0  0  0  0  0  0  0  0  0  0  0  0
    2.5334   -4.1761    2.6440 C   0  0  0  0  0  0  0  0  0  0  0  0
    4.5880   -3.2716    3.7748 C   0  0  0  0  0  0  0  0  0  0  0  0
    2.6987   -3.7781   -0.3536 C   0  0  0  0  0  0  0  0  0  0  0  0
    2.4342   -2.9803   -1.6144 C   0  0  0  0  0  0  0  0  0  0  0  0
    3.1145   -1.6297   -3.8625 H   0  0  0  0  0  0  0  0  0  0  0  0
    1.8782   -2.8342   -4.2261 H   0  0  0  0  0  0  0  0  0  0  0  0
    3.5352   -3.0803   -4.7809 H   0  0  0  0  0  0  0  0  0  0  0  0
    5.3433   -3.6641   -3.1871 H   0  0  0  0  0  0  0  0  0  0  0  0
    4.9691   -2.2445   -2.2109 H   0  0  0  0  0  0  0  0  0  0  0  0
    4.9496   -5.1453   -1.2708 H   0  0  0  0  0  0  0  0  0  0  0  0
    6.0877   -3.9292   -0.7885 H   0  0  0  0  0  0  0  0  0  0  0  0
    4.3480   -6.0430    1.7085 H   0  0  0  0  0  0  0  0  0  0  0  0
    5.7759   -5.4680    2.4998 H   0  0  0  0  0  0  0  0  0  0  0  0
    4.6573   -7.2123    3.9003 H   0  0  0  0  0  0  0  0  0  0  0  0
    4.4479   -5.9341    6.0253 H   0  0  0  0  0  0  0  0  0  0  0  0
    5.8231   -5.3672    5.1053 H   0  0  0  0  0  0  0  0  0  0  0  0
    4.4930   -3.4387    5.9458 H   0  0  0  0  0  0  0  0  0  0  0  0
    2.2473   -4.5278    6.0582 H   0  0  0  0  0  0  0  0  0  0  0  0
    2.1775   -3.0636    5.0904 H   0  0  0  0  0  0  0  0  0  0  0  0
    1.0192   -4.9378    3.9433 H   0  0  0  0  0  0  0  0  0  0  0  0
    2.3419   -6.8560    3.0587 H   0  0  0  0  0  0  0  0  0  0  0  0
    2.3743   -6.8581    4.8028 H   0  0  0  0  0  0  0  0  0  0  0  0
    2.0610   -3.1953    2.5874 H   0  0  0  0  0  0  0  0  0  0  0  0
    2.1190   -4.8148    1.8702 H   0  0  0  0  0  0  0  0  0  0  0  0
    5.6777   -3.2169    3.7622 H   0  0  0  0  0  0  0  0  0  0  0  0
    4.2384   -2.2373    3.7805 H   0  0  0  0  0  0  0  0  0  0  0  0
    2.3549   -4.8107   -0.4571 H   0  0  0  0  0  0  0  0  0  0  0  0
    2.0752   -3.2450    0.3607 H   0  0  0  0  0  0  0  0  0  0  0  0
    2.6484   -1.9250   -1.4160 H   0  0  0  0  0  0  0  0  0  0  0  0
    1.3769   -3.0573   -1.8808 H   0  0  0  0  0  0  0  0  0  0  0  0
    3.0819   -4.4192   -2.8313 H   0  0  0  0  0  0  0  0  0  0  0  0
  1  2  1  0
  1 20  1  0
  1 21  1  0
  1 22  1  0
  2 19  1  0
  2  3  1  0
  2 46  1  0
  3  4  1  0
  3 23  1  0
  3 24  1  0
  4  5  1  0
  4 25  1  0
  4 26  1  0
  5  6  1  0
  5 18  1  0
  6  7  2  0
  8  6  1  6
  8 16  1  0
  8 17  1  0
  8  9  1  0
  9 10  1  0
  9 27  1  0
  9 28  1  0
 10 15  1  0
 10 11  1  0
 10 29  1  6
 11 12  1  0
 11 30  1  0
 11 31  1  0
 12 13  1  0
 12 17  1  0
 12 32  1  1
 13 14  1  0
 13 33  1  0
 13 34  1  0
 14 15  1  0
 14 16  1  0
 14 35  1  6
 15 36  1  0
 15 37  1  0
 16 38  1  0
 16 39  1  0
 17 40  1  0
 17 41  1  0
 18 19  1  0
 18 42  1  0
 18 43  1  0
 19 44  1  0
 19 45  1  0
M  CHG  1   2   1
M  END
>  <i_m_ct_stereo_status>  (193) 
1

>  <s_m_source_file>  (193) 
/var/tmp/pbs.5076255.sched01/tmp0glzbzrw/400n8fk_jm.sdf

>  <i_m_source_file_index>  (193) 
39

>  <i_lp_mmshare_version>  (193) 
48012

>  <i_f3d_flags>  (193) 
0

>  <s_epik_input>  (193) 
W0NIM11OMVtDSDJdW0NIMl1OKFtDSDJdW0NIMl0xKUMoPU8pQzIzW0NIMl1bQ0BASF00W0NIMl1bQ0BIXShbQ0gyXTMpW0NIMl1bQ0BASF0oW0NIMl00KVtDSDJdMg==

>  <s_epik_cmdline>  (193) 
J2VwaWtfcHl0aG9uJywgJy1waHQnLCAnMi4wJywgJy1waCcsICc3LjAnLCAnLXRuJywgJzgnLCAnLW1hJywgJzIwMCcsICctaW1hZScsICc8aW5maWxlLm1hZT4nLCAnLW9tYWUnLCAnPG91dGZpbGUubWFlPic=

>  <r_epik_Ionization_Penalty>  (193) 
0.0684911

>  <r_epik_Ionization_Penalty_Charging>  (193) 
0.0684911

>  <r_epik_Ionization_Penalty_Neutral>  (193) 
1.89287e-10

>  <r_epik_State_Penalty>  (193) 
0.0599336

>  <r_epik_Charging_Adjusted_Penalty>  (193) 
0.128425

>  <i_epik_Tot_Q>  (193) 
1

>  <i_epik_Tot_abs_Q>  (193) 
1

>  <s_lp_Force_Field>  (193) 
OPLS3e

>  <r_lp_Energy>  (193) 
26.5765

>  <b_lp_Chiralities_Consistent>  (193) 
1

>  <s_lp_Variant>  (193) 
60:0-1

>  <s_i_glide_gridfile>  (193) 
pfpi4k_grid

>  <i_i_glide_lignum>  (193) 
39

>  <i_i_glide_rotatable_bonds>  (193) 
2

>  <r_i_docking_score>  (193) 
-3.02577

>  <r_i_glide_ligand_efficiency>  (193) 
-0.159251

>  <r_i_glide_ligand_efficiency_sa>  (193) 
-0.424946

>  <r_i_glide_ligand_efficiency_ln>  (193) 
-0.767098

>  <r_i_glide_gscore>  (193) 
-3.02577

>  <r_i_glide_lipo>  (193) 
-0.188098

>  <r_i_glide_hbond>  (193) 
0

>  <r_i_glide_metal>  (193) 
-0

>  <r_i_glide_rewards>  (193) 
-1.65744

>  <r_i_glide_evdw>  (193) 
-14.7352

>  <r_i_glide_ecoul>  (193) 
-6.16985

>  <r_i_glide_erotb>  (193) 
0.511918

>  <r_i_glide_esite>  (193) 
-0.0299152

>  <r_i_glide_emodel>  (193) 
-20.3574

>  <r_i_glide_energy>  (193) 
-20.9051

>  <r_i_glide_einternal>  (193) 
9.073

>  <r_i_glide_intrahb_reward>  (193) 
-0

>  <i_i_glide_confnum>  (193) 
4

>  <i_i_glide_posenum>  (193) 
5

>  <r_i_glide_eff_state_penalty>  (193) 
0

>  <ligand_id>  (193) 
60

>  <original_smiles>  (193) 
CN1CCN(C(=O)C23CC4CC(CC(C4)C2)C3)CC1

>  <smiles>  (193) 
[H]C1([H])N(C(=O)C23C([H])([H])C4([H])C([H])([H])C([H])(C([H])([H])C([H])(C4([H])[H])C2([H])[H])C3([H])[H])C([H])([H])C([H])([H])[N+]([H])(C([H])([H])[H])C1([H])[H]

$$$$
60:0:2
     RDKit          3D

 46 49  0  0  1  0  0  0  0  0999 V2000
    2.6762    1.3855   -5.5951 C   0  0  0  0  0  0  0  0  0  0  0  0
    2.8255    0.5094   -4.4263 N   0  0  0  0  0  0  0  0  0  0  0  0
    2.4359   -0.8764   -4.7130 C   0  0  0  0  0  0  0  0  0  0  0  0
    2.5624   -1.8139   -3.4999 C   0  0  0  0  0  0  0  0  0  0  0  0
    3.8895   -1.6715   -2.9010 N   0  0  0  0  0  0  0  0  0  0  0  0
    4.6092   -2.7589   -2.5945 C   0  0  0  0  0  0  0  0  0  0  0  0
    4.6502   -3.6871   -3.4037 O   0  0  0  0  0  0  0  0  0  0  0  0
    5.2860   -2.8688   -1.1853 C   0  0  2  0  0  0  0  0  0  0  0  0
    6.2707   -4.0275   -1.2186 C   0  0  0  0  0  0  0  0  0  0  0  0
    7.0658   -4.2431    0.0866 C   0  0  1  0  0  0  0  0  0  0  0  0
    7.8800   -2.9847    0.3802 C   0  0  0  0  0  0  0  0  0  0  0  0
    6.8979   -1.8194    0.5188 C   0  0  2  0  0  0  0  0  0  0  0  0
    5.8433   -2.0670    1.6098 C   0  0  0  0  0  0  0  0  0  0  0  0
    5.0597   -3.3570    1.2932 C   0  0  2  0  0  0  0  0  0  0  0  0
    6.0566   -4.5327    1.2119 C   0  0  0  0  0  0  0  0  0  0  0  0
    4.2890   -3.1930   -0.0532 C   0  0  0  0  0  0  0  0  0  0  0  0
    6.1380   -1.6366   -0.7883 C   0  0  0  0  0  0  0  0  0  0  0  0
    4.3861   -0.3123   -2.7395 C   0  0  0  0  0  0  0  0  0  0  0  0
    4.1843    0.5257   -3.9735 C   0  0  0  0  0  0  0  0  0  0  0  0
    3.2318    0.9394   -6.4253 H   0  0  0  0  0  0  0  0  0  0  0  0
    3.0241    2.4079   -5.3876 H   0  0  0  0  0  0  0  0  0  0  0  0
    1.6196    1.3838   -5.8289 H   0  0  0  0  0  0  0  0  0  0  0  0
    1.4108   -0.8432   -5.1136 H   0  0  0  0  0  0  0  0  0  0  0  0
    3.1503   -1.2112   -5.4641 H   0  0  0  0  0  0  0  0  0  0  0  0
    1.8820   -1.5407   -2.7023 H   0  0  0  0  0  0  0  0  0  0  0  0
    2.2976   -2.8590   -3.7250 H   0  0  0  0  0  0  0  0  0  0  0  0
    5.7099   -4.9357   -1.4518 H   0  0  0  0  0  0  0  0  0  0  0  0
    6.9655   -3.7928   -2.0292 H   0  0  0  0  0  0  0  0  0  0  0  0
    7.7520   -5.0917    0.0163 H   0  0  0  0  0  0  0  0  0  0  0  0
    8.4911   -3.1229    1.2836 H   0  0  0  0  0  0  0  0  0  0  0  0
    8.5972   -2.7987   -0.4117 H   0  0  0  0  0  0  0  0  0  0  0  0
    7.4512   -0.9083    0.7190 H   0  0  0  0  0  0  0  0  0  0  0  0
    6.3005   -2.1191    2.5897 H   0  0  0  0  0  0  0  0  0  0  0  0
    5.1526   -1.2230    1.6356 H   0  0  0  0  0  0  0  0  0  0  0  0
    4.3402   -3.5471    2.0873 H   0  0  0  0  0  0  0  0  0  0  0  0
    5.5221   -5.4606    0.9981 H   0  0  0  0  0  0  0  0  0  0  0  0
    6.5723   -4.6827    2.1605 H   0  0  0  0  0  0  0  0  0  0  0  0
    3.5582   -2.3868    0.0160 H   0  0  0  0  0  0  0  0  0  0  0  0
    3.7369   -4.1083   -0.2802 H   0  0  0  0  0  0  0  0  0  0  0  0
    6.8326   -1.4740   -1.6140 H   0  0  0  0  0  0  0  0  0  0  0  0
    5.5231   -0.7524   -0.6380 H   0  0  0  0  0  0  0  0  0  0  0  0
    3.8615    0.1373   -1.9151 H   0  0  0  0  0  0  0  0  0  0  0  0
    5.4407   -0.2391   -2.5646 H   0  0  0  0  0  0  0  0  0  0  0  0
    4.7439    0.0687   -4.7883 H   0  0  0  0  0  0  0  0  0  0  0  0
    4.5152    1.5509   -3.7776 H   0  0  0  0  0  0  0  0  0  0  0  0
    2.2415    0.9031   -3.6851 H   0  0  0  0  0  0  0  0  0  0  0  0
  1  2  1  0
  1 20  1  0
  1 21  1  0
  1 22  1  0
  2 19  1  0
  2  3  1  0
  2 46  1  0
  3  4  1  0
  3 23  1  0
  3 24  1  0
  4  5  1  0
  4 25  1  0
  4 26  1  0
  5  6  1  0
  5 18  1  0
  6  7  2  0
  8  6  1  6
  8 16  1  0
  8 17  1  0
  8  9  1  0
  9 10  1  0
  9 27  1  0
  9 28  1  0
 10 15  1  0
 10 11  1  0
 10 29  1  6
 11 12  1  0
 11 30  1  0
 11 31  1  0
 12 13  1  0
 12 17  1  0
 12 32  1  1
 13 14  1  0
 13 33  1  0
 13 34  1  0
 14 15  1  0
 14 16  1  0
 14 35  1  1
 15 36  1  0
 15 37  1  0
 16 38  1  0
 16 39  1  0
 17 40  1  0
 17 41  1  0
 18 19  1  0
 18 42  1  0
 18 43  1  0
 19 44  1  0
 19 45  1  0
M  CHG  1   2   1
M  END
>  <i_m_ct_stereo_status>  (194) 
1

>  <s_m_source_file>  (194) 
/var/tmp/pbs.5076255.sched01/tmp0glzbzrw/400n8fk_jm.sdf

>  <i_m_source_file_index>  (194) 
39

>  <i_lp_mmshare_version>  (194) 
48012

>  <i_f3d_flags>  (194) 
0

>  <s_epik_input>  (194) 
W0NIM11OMVtDSDJdW0NIMl1OKFtDSDJdW0NIMl0xKUMoPU8pQzIzW0NIMl1bQ0BASF00W0NIMl1bQ0BIXShbQ0gyXTMpW0NIMl1bQ0BASF0oW0NIMl00KVtDSDJdMg==

>  <s_epik_cmdline>  (194) 
J2VwaWtfcHl0aG9uJywgJy1waHQnLCAnMi4wJywgJy1waCcsICc3LjAnLCAnLXRuJywgJzgnLCAnLW1hJywgJzIwMCcsICctaW1hZScsICc8aW5maWxlLm1hZT4nLCAnLW9tYWUnLCAnPG91dGZpbGUubWFlPic=

>  <r_epik_Ionization_Penalty>  (194) 
0.0684911

>  <r_epik_Ionization_Penalty_Charging>  (194) 
0.0684911

>  <r_epik_Ionization_Penalty_Neutral>  (194) 
1.89287e-10

>  <r_epik_State_Penalty>  (194) 
0.0599336

>  <r_epik_Charging_Adjusted_Penalty>  (194) 
0.128425

>  <i_epik_Tot_Q>  (194) 
1

>  <i_epik_Tot_abs_Q>  (194) 
1

>  <s_lp_Force_Field>  (194) 
OPLS3e

>  <r_lp_Energy>  (194) 
26.5765

>  <b_lp_Chiralities_Consistent>  (194) 
1

>  <s_lp_Variant>  (194) 
60:0-1

>  <s_i_glide_gridfile>  (194) 
pfpi4k_grid

>  <i_i_glide_lignum>  (194) 
39

>  <i_i_glide_rotatable_bonds>  (194) 
2

>  <r_i_docking_score>  (194) 
-2.90727

>  <r_i_glide_ligand_efficiency>  (194) 
-0.153014

>  <r_i_glide_ligand_efficiency_sa>  (194) 
-0.408303

>  <r_i_glide_ligand_efficiency_ln>  (194) 
-0.737054

>  <r_i_glide_gscore>  (194) 
-2.90727

>  <r_i_glide_lipo>  (194) 
-0.899787

>  <r_i_glide_hbond>  (194) 
0

>  <r_i_glide_metal>  (194) 
-0

>  <r_i_glide_rewards>  (194) 
-1.74939

>  <r_i_glide_evdw>  (194) 
-5.9462

>  <r_i_glide_ecoul>  (194) 
-2.83154

>  <r_i_glide_erotb>  (194) 
0.511918

>  <r_i_glide_esite>  (194) 
-0.0479654

>  <r_i_glide_emodel>  (194) 
-6.4367

>  <r_i_glide_energy>  (194) 
-8.77774

>  <r_i_glide_einternal>  (194) 
9.64274

>  <r_i_glide_intrahb_reward>  (194) 
-0

>  <i_i_glide_confnum>  (194) 
4

>  <i_i_glide_posenum>  (194) 
6

>  <r_i_glide_eff_state_penalty>  (194) 
0

>  <ligand_id>  (194) 
60

>  <original_smiles>  (194) 
CN1CCN(C(=O)C23CC4CC(CC(C4)C2)C3)CC1

>  <smiles>  (194) 
[H]C1([H])N(C(=O)C23C([H])([H])C4([H])C([H])([H])C([H])(C([H])([H])C([H])(C4([H])[H])C2([H])[H])C3([H])[H])C([H])([H])C([H])([H])[N+]([H])(C([H])([H])[H])C1([H])[H]

$$$$
60:1:0
     RDKit          3D

 45 48  0  0  1  0  0  0  0  0999 V2000
    8.6141   -2.7953   -0.9208 C   0  0  0  0  0  0  0  0  0  0  0  0
    7.2610   -2.2701   -1.0368 N   0  0  0  0  0  0  0  0  0  0  0  0
    6.3227   -3.3661   -1.2922 C   0  0  0  0  0  0  0  0  0  0  0  0
    4.8773   -2.8379   -1.3818 C   0  0  0  0  0  0  0  0  0  0  0  0
    4.5468   -2.1413   -0.1256 N   0  0  0  0  0  0  0  0  0  0  0  0
    3.4210   -2.4399    0.5832 C   0  0  0  0  0  0  0  0  0  0  0  0
    2.5838   -3.2191    0.1329 O   0  0  0  0  0  0  0  0  0  0  0  0
    3.2175   -1.8976    2.0353 C   0  0  1  0  0  0  0  0  0  0  0  0
    4.3969   -2.3960    2.9530 C   0  0  0  0  0  0  0  0  0  0  0  0
    4.2249   -1.8778    4.3853 C   0  0  2  0  0  0  0  0  0  0  0  0
    2.9387   -2.4804    4.9798 C   0  0  0  0  0  0  0  0  0  0  0  0
    1.7324   -2.0266    4.1341 C   0  0  1  0  0  0  0  0  0  0  0  0
    1.5989   -0.4948    4.1521 C   0  0  0  0  0  0  0  0  0  0  0  0
    2.8851    0.1089    3.5494 C   0  0  1  0  0  0  0  0  0  0  0  0
    4.1164   -0.3388    4.3844 C   0  0  0  0  0  0  0  0  0  0  0  0
    3.0347   -0.3200    2.0924 C   0  0  0  0  0  0  0  0  0  0  0  0
    1.9202   -2.5099    2.6672 C   0  0  0  0  0  0  0  0  0  0  0  0
    5.5071   -1.0649    0.1821 C   0  0  0  0  0  0  0  0  0  0  0  0
    6.9244   -1.6575    0.2413 C   0  0  0  0  0  0  0  0  0  0  0  0
    8.9106   -3.2587   -1.8604 H   0  0  0  0  0  0  0  0  0  0  0  0
    8.7074   -3.5202   -0.1067 H   0  0  0  0  0  0  0  0  0  0  0  0
    9.3004   -1.9775   -0.7183 H   0  0  0  0  0  0  0  0  0  0  0  0
    6.5984   -3.8479   -2.2351 H   0  0  0  0  0  0  0  0  0  0  0  0
    6.3913   -4.1175   -0.5005 H   0  0  0  0  0  0  0  0  0  0  0  0
    4.7666   -2.1501   -2.2217 H   0  0  0  0  0  0  0  0  0  0  0  0
    4.2180   -3.6795   -1.5926 H   0  0  0  0  0  0  0  0  0  0  0  0
    4.4332   -3.4862    2.9280 H   0  0  0  0  0  0  0  0  0  0  0  0
    5.4031   -2.0931    2.6366 H   0  0  0  0  0  0  0  0  0  0  0  0
    5.0836   -2.1875    4.9812 H   0  0  0  0  0  0  0  0  0  0  0  0
    3.0117   -3.5696    4.9701 H   0  0  0  0  0  0  0  0  0  0  0  0
    2.8272   -2.1734    6.0201 H   0  0  0  0  0  0  0  0  0  0  0  0
    0.8202   -2.4653    4.5445 H   0  0  0  0  0  0  0  0  0  0  0  0
    0.7597   -0.1798    3.5412 H   0  0  0  0  0  0  0  0  0  0  0  0
    1.4243   -0.1229    5.1681 H   0  0  0  0  0  0  0  0  0  0  0  0
    2.8182    1.1934    3.5998 H   0  0  0  0  0  0  0  0  0  0  0  0
    4.0600    0.0369    5.4191 H   0  0  0  0  0  0  0  0  0  0  0  0
    5.0247    0.0972    3.9733 H   0  0  0  0  0  0  0  0  0  0  0  0
    3.8568    0.2430    1.7149 H   0  0  0  0  0  0  0  0  0  0  0  0
    2.1515   -0.0038    1.4695 H   0  0  0  0  0  0  0  0  0  0  0  0
    1.0463   -2.2192    2.0955 H   0  0  0  0  0  0  0  0  0  0  0  0
    1.9414   -3.5969    2.6629 H   0  0  0  0  0  0  0  0  0  0  0  0
    5.4298   -0.2863   -0.6050 H   0  0  0  0  0  0  0  0  0  0  0  0
    5.4432   -0.5687    1.1140 H   0  0  0  0  0  0  0  0  0  0  0  0
    6.9745   -2.3866    1.0425 H   0  0  0  0  0  0  0  0  0  0  0  0
    7.6113   -0.8575    0.4875 H   0  0  0  0  0  0  0  0  0  0  0  0
  1  2  1  0
  1 20  1  0
  1 21  1  0
  1 22  1  0
  2 19  1  0
  2  3  1  0
  3  4  1  0
  3 23  1  0
  3 24  1  0
  4  5  1  0
  4 25  1  0
  4 26  1  0
  5  6  1  0
  5 18  1  0
  6  7  2  0
  8  6  1  6
  8 16  1  0
  8 17  1  0
  8  9  1  0
  9 10  1  0
  9 27  1  0
  9 28  1  0
 10 15  1  0
 10 11  1  0
 10 29  1  1
 11 12  1  0
 11 30  1  0
 11 31  1  0
 12 13  1  0
 12 17  1  0
 12 32  1  1
 13 14  1  0
 13 33  1  0
 13 34  1  0
 14 15  1  0
 14 16  1  0
 14 35  1  6
 15 36  1  0
 15 37  1  0
 16 38  1  0
 16 39  1  0
 17 40  1  0
 17 41  1  0
 18 19  1  0
 18 42  1  0
 18 43  1  0
 19 44  1  0
 19 45  1  0
M  END
>  <i_m_ct_stereo_status>  (195) 
1

>  <s_m_source_file>  (195) 
/var/tmp/pbs.5076255.sched01/tmp0glzbzrw/400n8fk_jm.sdf

>  <i_m_source_file_index>  (195) 
40

>  <i_lp_mmshare_version>  (195) 
48012

>  <i_f3d_flags>  (195) 
0

>  <s_epik_input>  (195) 
W0NIM11OMVtDSDJdW0NIMl1OKFtDSDJdW0NIMl0xKUMoPU8pQzIzW0NIMl1bQ0BASF00W0NIMl1bQ0BIXShbQ0gyXTMpW0NIMl1bQ0BASF0oW0NIMl00KVtDSDJdMg==

>  <s_epik_cmdline>  (195) 
J2VwaWtfcHl0aG9uJywgJy1waHQnLCAnMi4wJywgJy1waCcsICc3LjAnLCAnLXRuJywgJzgnLCAnLW1hJywgJzIwMCcsICctaW1hZScsICc8aW5maWxlLm1hZT4nLCAnLW9tYWUnLCAnPG91dGZpbGUubWFlPic=

>  <r_epik_Ionization_Penalty>  (195) 
1.31228

>  <r_epik_Ionization_Penalty_Charging>  (195) 
0

>  <r_epik_Ionization_Penalty_Neutral>  (195) 
1.31228

>  <r_epik_State_Penalty>  (195) 
1.38715

>  <r_epik_Charging_Adjusted_Penalty>  (195) 
1.38715

>  <i_epik_Tot_Q>  (195) 
0

>  <i_epik_Tot_abs_Q>  (195) 
0

>  <s_lp_Force_Field>  (195) 
OPLS3e

>  <r_lp_Energy>  (195) 
36.7525

>  <b_lp_Chiralities_Consistent>  (195) 
1

>  <s_lp_Variant>  (195) 
60:0-2

>  <s_i_glide_gridfile>  (195) 
pfpi4k_grid

>  <i_i_glide_lignum>  (195) 
40

>  <i_i_glide_rotatable_bonds>  (195) 
2

>  <r_i_docking_score>  (195) 
-2.82422

>  <r_i_glide_ligand_efficiency>  (195) 
-0.148643

>  <r_i_glide_ligand_efficiency_sa>  (195) 
-0.396639

>  <r_i_glide_ligand_efficiency_ln>  (195) 
-0.716

>  <r_i_glide_gscore>  (195) 
-2.82422

>  <r_i_glide_lipo>  (195) 
-0.22563

>  <r_i_glide_hbond>  (195) 
-0.16

>  <r_i_glide_metal>  (195) 
-0

>  <r_i_glide_rewards>  (195) 
-1.62007

>  <r_i_glide_evdw>  (195) 
-15.6777

>  <r_i_glide_ecoul>  (195) 
-3.38403

>  <r_i_glide_erotb>  (195) 
0.515313

>  <r_i_glide_esite>  (195) 
-0.042349

>  <r_i_glide_emodel>  (195) 
-21.1879

>  <r_i_glide_energy>  (195) 
-19.0617

>  <r_i_glide_einternal>  (195) 
1.47816

>  <r_i_glide_intrahb_reward>  (195) 
-0

>  <i_i_glide_confnum>  (195) 
3

>  <i_i_glide_posenum>  (195) 
32

>  <r_i_glide_eff_state_penalty>  (195) 
0

>  <ligand_id>  (195) 
60

>  <original_smiles>  (195) 
CN1CCN(C(=O)C23CC4CC(CC(C4)C2)C3)CC1

>  <smiles>  (195) 
[H]C([H])([H])N1C([H])([H])C([H])([H])N(C(=O)C23C([H])([H])C4([H])C([H])([H])C([H])(C([H])([H])C([H])(C4([H])[H])C2([H])[H])C3([H])[H])C([H])([H])C1([H])[H]

$$$$
60:1:1
     RDKit          3D

 45 48  0  0  1  0  0  0  0  0999 V2000
    1.3958    2.1484    4.2572 C   0  0  0  0  0  0  0  0  0  0  0  0
    2.0478    0.8692    4.0138 N   0  0  0  0  0  0  0  0  0  0  0  0
    1.8338    0.4621    2.6350 C   0  0  0  0  0  0  0  0  0  0  0  0
    2.4353   -0.9495    2.4017 C   0  0  0  0  0  0  0  0  0  0  0  0
    3.9077   -0.8563    2.6370 N   0  0  0  0  0  0  0  0  0  0  0  0
    4.9021   -1.2101    1.7936 C   0  0  0  0  0  0  0  0  0  0  0  0
    6.0851   -1.0231    2.1021 O   0  0  0  0  0  0  0  0  0  0  0  0
    4.6524   -1.9861    0.4666 C   0  0  1  0  0  0  0  0  0  0  0  0
    3.8046   -1.1346   -0.5721 C   0  0  0  0  0  0  0  0  0  0  0  0
    3.5882   -1.9784   -1.8482 C   0  0  2  0  0  0  0  0  0  0  0  0
    2.8596   -3.3050   -1.4886 C   0  0  0  0  0  0  0  0  0  0  0  0
    3.7400   -4.1469   -0.5477 C   0  0  1  0  0  0  0  0  0  0  0  0
    5.1033   -4.4406   -1.2005 C   0  0  0  0  0  0  0  0  0  0  0  0
    5.7870   -3.0997   -1.5300 C   0  0  1  0  0  0  0  0  0  0  0  0
    4.9147   -2.2891   -2.5321 C   0  0  0  0  0  0  0  0  0  0  0  0
    5.9976   -2.3139   -0.2428 C   0  0  0  0  0  0  0  0  0  0  0  0
    3.9636   -3.3544    0.7683 C   0  0  0  0  0  0  0  0  0  0  0  0
    4.1924   -0.3646    4.0034 C   0  0  0  0  0  0  0  0  0  0  0  0
    3.4795    0.9900    4.2699 C   0  0  0  0  0  0  0  0  0  0  0  0
    0.3236    2.0707    4.0529 H   0  0  0  0  0  0  0  0  0  0  0  0
    1.8152    2.9447    3.6257 H   0  0  0  0  0  0  0  0  0  0  0  0
    1.5125    2.4351    5.3106 H   0  0  0  0  0  0  0  0  0  0  0  0
    0.7711    0.4258    2.4207 H   0  0  0  0  0  0  0  0  0  0  0  0
    2.2572    1.2048    1.9565 H   0  0  0  0  0  0  0  0  0  0  0  0
    2.0213   -1.6534    3.1428 H   0  0  0  0  0  0  0  0  0  0  0  0
    2.1198   -1.2590    1.4356 H   0  0  0  0  0  0  0  0  0  0  0  0
    2.8359   -0.8611   -0.2677 H   0  0  0  0  0  0  0  0  0  0  0  0
    4.3494   -0.2006   -0.8089 H   0  0  0  0  0  0  0  0  0  0  0  0
    2.9417   -1.4151   -2.5331 H   0  0  0  0  0  0  0  0  0  0  0  0
    1.9036   -3.0981   -1.0136 H   0  0  0  0  0  0  0  0  0  0  0  0
    2.6240   -3.8600   -2.3985 H   0  0  0  0  0  0  0  0  0  0  0  0
    3.2417   -5.0889   -0.3117 H   0  0  0  0  0  0  0  0  0  0  0  0
    5.7245   -5.0085   -0.5132 H   0  0  0  0  0  0  0  0  0  0  0  0
    4.9906   -5.0414   -2.0891 H   0  0  0  0  0  0  0  0  0  0  0  0
    6.7543   -3.3069   -2.0173 H   0  0  0  0  0  0  0  0  0  0  0  0
    4.7738   -2.8162   -3.4761 H   0  0  0  0  0  0  0  0  0  0  0  0
    5.3920   -1.3360   -2.7440 H   0  0  0  0  0  0  0  0  0  0  0  0
    6.4996   -1.3617   -0.4596 H   0  0  0  0  0  0  0  0  0  0  0  0
    6.7269   -2.8515    0.4238 H   0  0  0  0  0  0  0  0  0  0  0  0
    4.5782   -3.9518    1.4578 H   0  0  0  0  0  0  0  0  0  0  0  0
    2.9988   -3.2636    1.2671 H   0  0  0  0  0  0  0  0  0  0  0  0
    3.8291   -1.1206    4.7141 H   0  0  0  0  0  0  0  0  0  0  0  0
    5.2548   -0.2436    4.2354 H   0  0  0  0  0  0  0  0  0  0  0  0
    3.9175    1.7575    3.6321 H   0  0  0  0  0  0  0  0  0  0  0  0
    3.6497    1.2886    5.3133 H   0  0  0  0  0  0  0  0  0  0  0  0
  1  2  1  0
  1 20  1  0
  1 21  1  0
  1 22  1  0
  2 19  1  0
  2  3  1  0
  3  4  1  0
  3 23  1  0
  3 24  1  0
  4  5  1  0
  4 25  1  0
  4 26  1  0
  5  6  1  0
  5 18  1  0
  6  7  2  0
  8  6  1  1
  8 16  1  0
  8 17  1  0
  8  9  1  0
  9 10  1  0
  9 27  1  0
  9 28  1  0
 10 15  1  0
 10 11  1  0
 10 29  1  6
 11 12  1  0
 11 30  1  0
 11 31  1  0
 12 13  1  0
 12 17  1  0
 12 32  1  1
 13 14  1  0
 13 33  1  0
 13 34  1  0
 14 15  1  0
 14 16  1  0
 14 35  1  6
 15 36  1  0
 15 37  1  0
 16 38  1  0
 16 39  1  0
 17 40  1  0
 17 41  1  0
 18 19  1  0
 18 42  1  0
 18 43  1  0
 19 44  1  0
 19 45  1  0
M  END
>  <i_m_ct_stereo_status>  (196) 
1

>  <s_m_source_file>  (196) 
/var/tmp/pbs.5076255.sched01/tmp0glzbzrw/400n8fk_jm.sdf

>  <i_m_source_file_index>  (196) 
40

>  <i_lp_mmshare_version>  (196) 
48012

>  <i_f3d_flags>  (196) 
0

>  <s_epik_input>  (196) 
W0NIM11OMVtDSDJdW0NIMl1OKFtDSDJdW0NIMl0xKUMoPU8pQzIzW0NIMl1bQ0BASF00W0NIMl1bQ0BIXShbQ0gyXTMpW0NIMl1bQ0BASF0oW0NIMl00KVtDSDJdMg==

>  <s_epik_cmdline>  (196) 
J2VwaWtfcHl0aG9uJywgJy1waHQnLCAnMi4wJywgJy1waCcsICc3LjAnLCAnLXRuJywgJzgnLCAnLW1hJywgJzIwMCcsICctaW1hZScsICc8aW5maWxlLm1hZT4nLCAnLW9tYWUnLCAnPG91dGZpbGUubWFlPic=

>  <r_epik_Ionization_Penalty>  (196) 
1.31228

>  <r_epik_Ionization_Penalty_Charging>  (196) 
0

>  <r_epik_Ionization_Penalty_Neutral>  (196) 
1.31228

>  <r_epik_State_Penalty>  (196) 
1.38715

>  <r_epik_Charging_Adjusted_Penalty>  (196) 
1.38715

>  <i_epik_Tot_Q>  (196) 
0

>  <i_epik_Tot_abs_Q>  (196) 
0

>  <s_lp_Force_Field>  (196) 
OPLS3e

>  <r_lp_Energy>  (196) 
36.7525

>  <b_lp_Chiralities_Consistent>  (196) 
1

>  <s_lp_Variant>  (196) 
60:0-2

>  <s_i_glide_gridfile>  (196) 
pfpi4k_grid

>  <i_i_glide_lignum>  (196) 
40

>  <i_i_glide_rotatable_bonds>  (196) 
2

>  <r_i_docking_score>  (196) 
-2.6057

>  <r_i_glide_ligand_efficiency>  (196) 
-0.137142

>  <r_i_glide_ligand_efficiency_sa>  (196) 
-0.36595

>  <r_i_glide_ligand_efficiency_ln>  (196) 
-0.660601

>  <r_i_glide_gscore>  (196) 
-2.6057

>  <r_i_glide_lipo>  (196) 
-0.337409

>  <r_i_glide_hbond>  (196) 
0

>  <r_i_glide_metal>  (196) 
-0

>  <r_i_glide_rewards>  (196) 
-1.75875

>  <r_i_glide_evdw>  (196) 
-17.6585

>  <r_i_glide_ecoul>  (196) 
-0.946179

>  <r_i_glide_erotb>  (196) 
0.515313

>  <r_i_glide_esite>  (196) 
0

>  <r_i_glide_emodel>  (196) 
-21.184

>  <r_i_glide_energy>  (196) 
-18.6047

>  <r_i_glide_einternal>  (196) 
0.246257

>  <r_i_glide_intrahb_reward>  (196) 
-0

>  <i_i_glide_confnum>  (196) 
6

>  <i_i_glide_posenum>  (196) 
33

>  <r_i_glide_eff_state_penalty>  (196) 
0

>  <ligand_id>  (196) 
60

>  <original_smiles>  (196) 
CN1CCN(C(=O)C23CC4CC(CC(C4)C2)C3)CC1

>  <smiles>  (196) 
[H]C([H])([H])N1C([H])([H])C([H])([H])N(C(=O)C23C([H])([H])C4([H])C([H])([H])C([H])(C([H])([H])C([H])(C4([H])[H])C2([H])[H])C3([H])[H])C([H])([H])C1([H])[H]

$$$$
61:0:0
     RDKit          3D

 29 30  0  0  1  0  0  0  0  0999 V2000
   -8.3597   -4.1559   -5.5382 C   0  0  0  0  0  0  0  0  0  0  0  0
   -7.0698   -4.8691   -5.1836 C   0  0  0  0  0  0  0  0  0  0  0  0
   -6.9670   -6.2003   -5.1000 C   0  0  0  0  0  0  0  0  0  0  0  0
   -5.6936   -6.9708   -4.7954 C   0  0  0  0  0  0  0  0  0  0  0  0
   -5.3892   -8.0762   -5.8074 C   0  0  2  0  0  0  0  0  0  0  0  0
   -5.6902   -7.8603   -7.2746 C   0  0  0  0  0  0  0  0  0  0  0  0
   -6.4491   -8.8924   -6.4833 C   0  0  1  0  0  0  0  0  0  0  0  0
   -6.0300  -10.3290   -6.4167 C   0  0  0  0  0  0  0  0  0  0  0  0
   -4.5780  -10.2960   -6.1197 N   0  0  2  0  0  0  0  0  0  0  0  0
   -4.0677  -11.5395   -5.5023 C   0  0  0  0  0  0  0  0  0  0  0  0
   -4.3143   -9.0486   -5.3550 C   0  0  0  0  0  0  0  0  0  0  0  0
   -8.2169   -3.5427   -6.4301 H   0  0  0  0  0  0  0  0  0  0  0  0
   -8.6845   -3.5139   -4.7214 H   0  0  0  0  0  0  0  0  0  0  0  0
   -9.1644   -4.8604   -5.7536 H   0  0  0  0  0  0  0  0  0  0  0  0
   -6.2150   -4.2362   -4.9958 H   0  0  0  0  0  0  0  0  0  0  0  0
   -7.8537   -6.7889   -5.2611 H   0  0  0  0  0  0  0  0  0  0  0  0
   -4.8507   -6.2885   -4.7393 H   0  0  0  0  0  0  0  0  0  0  0  0
   -5.7821   -7.4134   -3.8085 H   0  0  0  0  0  0  0  0  0  0  0  0
   -6.2392   -6.9704   -7.5507 H   0  0  0  0  0  0  0  0  0  0  0  0
   -4.9731   -8.2087   -8.0159 H   0  0  0  0  0  0  0  0  0  0  0  0
   -7.4968   -8.6900   -6.2850 H   0  0  0  0  0  0  0  0  0  0  0  0
   -6.5835  -10.7839   -5.5949 H   0  0  0  0  0  0  0  0  0  0  0  0
   -6.2659  -10.8594   -7.3384 H   0  0  0  0  0  0  0  0  0  0  0  0
   -4.5678  -11.7320   -4.5482 H   0  0  0  0  0  0  0  0  0  0  0  0
   -2.9902  -11.4791   -5.3271 H   0  0  0  0  0  0  0  0  0  0  0  0
   -4.2599  -12.4036   -6.1412 H   0  0  0  0  0  0  0  0  0  0  0  0
   -3.3188   -8.6503   -5.5256 H   0  0  0  0  0  0  0  0  0  0  0  0
   -4.4220   -9.2299   -4.2855 H   0  0  0  0  0  0  0  0  0  0  0  0
   -4.1203  -10.1643   -7.0102 H   0  0  0  0  0  0  0  0  0  0  0  0
  1  2  1  0
  1 12  1  0
  1 13  1  0
  1 14  1  0
  2  3  2  3
  2 15  1  0
  3  4  1  0
  3 16  1  0
  5  4  1  1
  4 17  1  0
  4 18  1  0
  5  7  1  0
  5 11  1  0
  5  6  1  0
  6  7  1  0
  6 19  1  0
  6 20  1  0
  7  8  1  0
  7 21  1  1
  8  9  1  0
  8 22  1  0
  8 23  1  0
  9 10  1  0
  9 11  1  0
  9 29  1  6
 10 24  1  0
 10 25  1  0
 10 26  1  0
 11 27  1  0
 11 28  1  0
M  CHG  1   9   1
M  END
>  <i_m_ct_stereo_status>  (197) 
1

>  <s_m_source_file>  (197) 
/var/tmp/pbs.5076255.sched01/tmpinim70aj/80j3ziidn5.sdf

>  <i_m_source_file_index>  (197) 
1

>  <i_lp_mmshare_version>  (197) 
48012

>  <i_f3d_flags>  (197) 
0

>  <s_epik_input>  (197) 
W0NIM10vW0NIXT1bQ0hdL1tDSDJdW0NAQF0xMltDQEBIXShbQ0gyXTEpW0NIMl1OKFtDSDNdKVtDSDJdMg==

>  <s_epik_cmdline>  (197) 
J2VwaWtfcHl0aG9uJywgJy1waHQnLCAnMi4wJywgJy1waCcsICc3LjAnLCAnLXRuJywgJzgnLCAnLW1hJywgJzIwMCcsICctaW1hZScsICc8aW5maWxlLm1hZT4nLCAnLW9tYWUnLCAnPG91dGZpbGUubWFlPic=

>  <r_epik_Ionization_Penalty>  (197) 
0.000789566

>  <r_epik_Ionization_Penalty_Charging>  (197) 
0.000789566

>  <r_epik_Ionization_Penalty_Neutral>  (197) 
0

>  <r_epik_State_Penalty>  (197) 
0.000506566

>  <r_epik_Charging_Adjusted_Penalty>  (197) 
0.00129613

>  <i_epik_Tot_Q>  (197) 
1

>  <i_epik_Tot_abs_Q>  (197) 
1

>  <s_lp_Force_Field>  (197) 
OPLS3e

>  <r_lp_Energy>  (197) 
12.7369

>  <b_lp_Chiralities_Consistent>  (197) 
1

>  <s_lp_Variant>  (197) 
61:0-1

>  <s_i_glide_gridfile>  (197) 
pfpi4k_grid

>  <i_i_glide_lignum>  (197) 
1

>  <i_i_glide_rotatable_bonds>  (197) 
2

>  <r_i_docking_score>  (197) 
-4.50557

>  <r_i_glide_ligand_efficiency>  (197) 
-0.409597

>  <r_i_glide_ligand_efficiency_sa>  (197) 
-0.910936

>  <r_i_glide_ligand_efficiency_ln>  (197) 
-1.32599

>  <r_i_glide_gscore>  (197) 
-4.50557

>  <r_i_glide_lipo>  (197) 
-2.12065

>  <r_i_glide_hbond>  (197) 
0

>  <r_i_glide_metal>  (197) 
-0

>  <r_i_glide_rewards>  (197) 
-2.56557

>  <r_i_glide_evdw>  (197) 
-14.9921

>  <r_i_glide_ecoul>  (197) 
-2.30351

>  <r_i_glide_erotb>  (197) 
1.27578

>  <r_i_glide_esite>  (197) 
0

>  <r_i_glide_emodel>  (197) 
-20.1585

>  <r_i_glide_energy>  (197) 
-17.2956

>  <r_i_glide_einternal>  (197) 
2.29291

>  <r_i_glide_intrahb_reward>  (197) 
-0

>  <i_i_glide_confnum>  (197) 
2

>  <i_i_glide_posenum>  (197) 
9

>  <r_i_glide_eff_state_penalty>  (197) 
0

>  <ligand_id>  (197) 
61

>  <original_smiles>  (197) 
CC=CCC12CC1CN(C)C2

>  <smiles>  (197) 
[H]C(=C([H])C([H])([H])C12C([H])([H])C1([H])C([H])([H])[N+]([H])(C([H])([H])[H])C2([H])[H])C([H])([H])[H]

$$$$
61:0:1
     RDKit          3D

 29 30  0  0  1  0  0  0  0  0999 V2000
   -6.6574   -4.2699   -4.4043 C   0  0  0  0  0  0  0  0  0  0  0  0
   -7.1216   -5.5428   -5.0724 C   0  0  0  0  0  0  0  0  0  0  0  0
   -6.4171   -6.6817   -5.1102 C   0  0  0  0  0  0  0  0  0  0  0  0
   -6.9058   -7.9463   -5.7887 C   0  0  0  0  0  0  0  0  0  0  0  0
   -5.8221   -8.7300   -6.4970 C   0  0  2  0  0  0  0  0  0  0  0  0
   -5.6205   -8.5385   -7.9857 C   0  0  0  0  0  0  0  0  0  0  0  0
   -6.1828   -9.8340   -7.4390 C   0  0  1  0  0  0  0  0  0  0  0  0
   -5.3177  -11.0246   -7.0979 C   0  0  0  0  0  0  0  0  0  0  0  0
   -4.2041  -10.4762   -6.2888 N   0  0  2  0  0  0  0  0  0  0  0  0
   -3.5289  -11.4580   -5.4246 C   0  0  0  0  0  0  0  0  0  0  0  0
   -4.7210   -9.2756   -5.5909 C   0  0  0  0  0  0  0  0  0  0  0  0
   -7.3509   -3.9917   -3.6097 H   0  0  0  0  0  0  0  0  0  0  0  0
   -6.6192   -3.4608   -5.1252 H   0  0  0  0  0  0  0  0  0  0  0  0
   -5.6633   -4.3791   -3.9721 H   0  0  0  0  0  0  0  0  0  0  0  0
   -8.0940   -5.5051   -5.5332 H   0  0  0  0  0  0  0  0  0  0  0  0
   -5.4505   -6.7171   -4.6304 H   0  0  0  0  0  0  0  0  0  0  0  0
   -7.3728   -8.6096   -5.0734 H   0  0  0  0  0  0  0  0  0  0  0  0
   -7.6945   -7.6881   -6.4960 H   0  0  0  0  0  0  0  0  0  0  0  0
   -6.3040   -7.8658   -8.5022 H   0  0  0  0  0  0  0  0  0  0  0  0
   -4.5983   -8.5198   -8.3440 H   0  0  0  0  0  0  0  0  0  0  0  0
   -7.2385  -10.0383   -7.6105 H   0  0  0  0  0  0  0  0  0  0  0  0
   -5.9121  -11.7273   -6.5066 H   0  0  0  0  0  0  0  0  0  0  0  0
   -4.9684  -11.5314   -7.9970 H   0  0  0  0  0  0  0  0  0  0  0  0
   -4.2438  -11.8503   -4.7108 H   0  0  0  0  0  0  0  0  0  0  0  0
   -2.6969  -11.0072   -4.8778 H   0  0  0  0  0  0  0  0  0  0  0  0
   -3.1360  -12.2939   -6.0045 H   0  0  0  0  0  0  0  0  0  0  0  0
   -3.9360   -8.5368   -5.4182 H   0  0  0  0  0  0  0  0  0  0  0  0
   -5.1475   -9.5540   -4.6240 H   0  0  0  0  0  0  0  0  0  0  0  0
   -3.5187  -10.1294   -6.9459 H   0  0  0  0  0  0  0  0  0  0  0  0
  1  2  1  0
  1 12  1  0
  1 13  1  0
  1 14  1  0
  2  3  2  3
  2 15  1  0
  3  4  1  0
  3 16  1  0
  5  4  1  1
  4 17  1  0
  4 18  1  0
  5  7  1  0
  5 11  1  0
  5  6  1  0
  6  7  1  0
  6 19  1  0
  6 20  1  0
  7  8  1  0
  7 21  1  6
  8  9  1  0
  8 22  1  0
  8 23  1  0
  9 10  1  0
  9 11  1  0
  9 29  1  6
 10 24  1  0
 10 25  1  0
 10 26  1  0
 11 27  1  0
 11 28  1  0
M  CHG  1   9   1
M  END
>  <i_m_ct_stereo_status>  (198) 
1

>  <s_m_source_file>  (198) 
/var/tmp/pbs.5076255.sched01/tmpinim70aj/80j3ziidn5.sdf

>  <i_m_source_file_index>  (198) 
1

>  <i_lp_mmshare_version>  (198) 
48012

>  <i_f3d_flags>  (198) 
0

>  <s_epik_input>  (198) 
W0NIM10vW0NIXT1bQ0hdL1tDSDJdW0NAQF0xMltDQEBIXShbQ0gyXTEpW0NIMl1OKFtDSDNdKVtDSDJdMg==

>  <s_epik_cmdline>  (198) 
J2VwaWtfcHl0aG9uJywgJy1waHQnLCAnMi4wJywgJy1waCcsICc3LjAnLCAnLXRuJywgJzgnLCAnLW1hJywgJzIwMCcsICctaW1hZScsICc8aW5maWxlLm1hZT4nLCAnLW9tYWUnLCAnPG91dGZpbGUubWFlPic=

>  <r_epik_Ionization_Penalty>  (198) 
0.000789566

>  <r_epik_Ionization_Penalty_Charging>  (198) 
0.000789566

>  <r_epik_Ionization_Penalty_Neutral>  (198) 
0

>  <r_epik_State_Penalty>  (198) 
0.000506566

>  <r_epik_Charging_Adjusted_Penalty>  (198) 
0.00129613

>  <i_epik_Tot_Q>  (198) 
1

>  <i_epik_Tot_abs_Q>  (198) 
1

>  <s_lp_Force_Field>  (198) 
OPLS3e

>  <r_lp_Energy>  (198) 
12.7369

>  <b_lp_Chiralities_Consistent>  (198) 
1

>  <s_lp_Variant>  (198) 
61:0-1

>  <s_i_glide_gridfile>  (198) 
pfpi4k_grid

>  <i_i_glide_lignum>  (198) 
1

>  <i_i_glide_rotatable_bonds>  (198) 
2

>  <r_i_docking_score>  (198) 
-4.31762

>  <r_i_glide_ligand_efficiency>  (198) 
-0.392511

>  <r_i_glide_ligand_efficiency_sa>  (198) 
-0.872937

>  <r_i_glide_ligand_efficiency_ln>  (198) 
-1.27068

>  <r_i_glide_gscore>  (198) 
-4.31762

>  <r_i_glide_lipo>  (198) 
-2.06347

>  <r_i_glide_hbond>  (198) 
0

>  <r_i_glide_metal>  (198) 
-0

>  <r_i_glide_rewards>  (198) 
-2.53506

>  <r_i_glide_evdw>  (198) 
-13.4561

>  <r_i_glide_ecoul>  (198) 
-2.14708

>  <r_i_glide_erotb>  (198) 
1.27578

>  <r_i_glide_esite>  (198) 
0

>  <r_i_glide_emodel>  (198) 
-19.1419

>  <r_i_glide_energy>  (198) 
-15.6032

>  <r_i_glide_einternal>  (198) 
0.705024

>  <r_i_glide_intrahb_reward>  (198) 
-0

>  <i_i_glide_confnum>  (198) 
2

>  <i_i_glide_posenum>  (198) 
33

>  <r_i_glide_eff_state_penalty>  (198) 
0

>  <ligand_id>  (198) 
61

>  <original_smiles>  (198) 
CC=CCC12CC1CN(C)C2

>  <smiles>  (198) 
[H]C(=C([H])C([H])([H])C12C([H])([H])C1([H])C([H])([H])[N+]([H])(C([H])([H])[H])C2([H])[H])C([H])([H])[H]

$$$$
61:0:2
     RDKit          3D

 29 30  0  0  1  0  0  0  0  0999 V2000
   -5.3791   -4.4126   -5.1077 C   0  0  0  0  0  0  0  0  0  0  0  0
   -5.6087   -5.8473   -5.4952 C   0  0  0  0  0  0  0  0  0  0  0  0
   -6.7906   -6.4793   -5.4110 C   0  0  0  0  0  0  0  0  0  0  0  0
   -7.0643   -7.9153   -5.8169 C   0  0  0  0  0  0  0  0  0  0  0  0
   -5.9119   -8.6376   -6.4819 C   0  0  2  0  0  0  0  0  0  0  0  0
   -5.6331   -8.3742   -7.9513 C   0  0  0  0  0  0  0  0  0  0  0  0
   -6.1474   -9.7241   -7.4815 C   0  0  1  0  0  0  0  0  0  0  0  0
   -5.2301  -10.8708   -7.1281 C   0  0  0  0  0  0  0  0  0  0  0  0
   -4.2108  -10.2963   -6.2183 N   0  0  2  0  0  0  0  0  0  0  0  0
   -3.5276  -11.2714   -5.3485 C   0  0  0  0  0  0  0  0  0  0  0  0
   -4.8411   -9.1506   -5.5225 C   0  0  0  0  0  0  0  0  0  0  0  0
   -4.9863   -3.8493   -5.9547 H   0  0  0  0  0  0  0  0  0  0  0  0
   -4.6226   -4.3738   -4.3272 H   0  0  0  0  0  0  0  0  0  0  0  0
   -6.2874   -3.9289   -4.7500 H   0  0  0  0  0  0  0  0  0  0  0  0
   -4.7344   -6.3574   -5.8619 H   0  0  0  0  0  0  0  0  0  0  0  0
   -7.6465   -5.9436   -5.0295 H   0  0  0  0  0  0  0  0  0  0  0  0
   -7.3772   -8.4883   -4.9556 H   0  0  0  0  0  0  0  0  0  0  0  0
   -7.9161   -7.9103   -6.4951 H   0  0  0  0  0  0  0  0  0  0  0  0
   -6.3391   -7.7310   -8.4758 H   0  0  0  0  0  0  0  0  0  0  0  0
   -4.5946   -8.2734   -8.2554 H   0  0  0  0  0  0  0  0  0  0  0  0
   -7.1736   -9.9841   -7.7360 H   0  0  0  0  0  0  0  0  0  0  0  0
   -5.8247  -11.6278   -6.6073 H   0  0  0  0  0  0  0  0  0  0  0  0
   -4.7917  -11.3188   -8.0203 H   0  0  0  0  0  0  0  0  0  0  0  0
   -4.2508  -11.7617   -4.6958 H   0  0  0  0  0  0  0  0  0  0  0  0
   -2.7629  -10.7920   -4.7302 H   0  0  0  0  0  0  0  0  0  0  0  0
   -3.0352  -12.0542   -5.9296 H   0  0  0  0  0  0  0  0  0  0  0  0
   -4.0993   -8.3914   -5.2739 H   0  0  0  0  0  0  0  0  0  0  0  0
   -5.3044   -9.4877   -4.5930 H   0  0  0  0  0  0  0  0  0  0  0  0
   -3.5148   -9.8645   -6.8130 H   0  0  0  0  0  0  0  0  0  0  0  0
  1  2  1  0
  1 12  1  0
  1 13  1  0
  1 14  1  0
  2  3  2  3
  2 15  1  0
  3  4  1  0
  3 16  1  0
  5  4  1  1
  4 17  1  0
  4 18  1  0
  5  7  1  0
  5 11  1  0
  5  6  1  0
  6  7  1  0
  6 19  1  0
  6 20  1  0
  7  8  1  0
  7 21  1  6
  8  9  1  0
  8 22  1  0
  8 23  1  0
  9 10  1  0
  9 11  1  0
  9 29  1  6
 10 24  1  0
 10 25  1  0
 10 26  1  0
 11 27  1  0
 11 28  1  0
M  CHG  1   9   1
M  END
>  <i_m_ct_stereo_status>  (199) 
1

>  <s_m_source_file>  (199) 
/var/tmp/pbs.5076255.sched01/tmpinim70aj/80j3ziidn5.sdf

>  <i_m_source_file_index>  (199) 
1

>  <i_lp_mmshare_version>  (199) 
48012

>  <i_f3d_flags>  (199) 
0

>  <s_epik_input>  (199) 
W0NIM10vW0NIXT1bQ0hdL1tDSDJdW0NAQF0xMltDQEBIXShbQ0gyXTEpW0NIMl1OKFtDSDNdKVtDSDJdMg==

>  <s_epik_cmdline>  (199) 
J2VwaWtfcHl0aG9uJywgJy1waHQnLCAnMi4wJywgJy1waCcsICc3LjAnLCAnLXRuJywgJzgnLCAnLW1hJywgJzIwMCcsICctaW1hZScsICc8aW5maWxlLm1hZT4nLCAnLW9tYWUnLCAnPG91dGZpbGUubWFlPic=

>  <r_epik_Ionization_Penalty>  (199) 
0.000789566

>  <r_epik_Ionization_Penalty_Charging>  (199) 
0.000789566

>  <r_epik_Ionization_Penalty_Neutral>  (199) 
0

>  <r_epik_State_Penalty>  (199) 
0.000506566

>  <r_epik_Charging_Adjusted_Penalty>  (199) 
0.00129613

>  <i_epik_Tot_Q>  (199) 
1

>  <i_epik_Tot_abs_Q>  (199) 
1

>  <s_lp_Force_Field>  (199) 
OPLS3e

>  <r_lp_Energy>  (199) 
12.7369

>  <b_lp_Chiralities_Consistent>  (199) 
1

>  <s_lp_Variant>  (199) 
61:0-1

>  <s_i_glide_gridfile>  (199) 
pfpi4k_grid

>  <i_i_glide_lignum>  (199) 
1

>  <i_i_glide_rotatable_bonds>  (199) 
2

>  <r_i_docking_score>  (199) 
-3.61108

>  <r_i_glide_ligand_efficiency>  (199) 
-0.32828

>  <r_i_glide_ligand_efficiency_sa>  (199) 
-0.730089

>  <r_i_glide_ligand_efficiency_ln>  (199) 
-1.06274

>  <r_i_glide_gscore>  (199) 
-3.61108

>  <r_i_glide_lipo>  (199) 
-1.7094

>  <r_i_glide_hbond>  (199) 
0

>  <r_i_glide_metal>  (199) 
-0

>  <r_i_glide_rewards>  (199) 
-2.25

>  <r_i_glide_evdw>  (199) 
-12.4271

>  <r_i_glide_ecoul>  (199) 
-2.04071

>  <r_i_glide_erotb>  (199) 
1.27578

>  <r_i_glide_esite>  (199) 
0

>  <r_i_glide_emodel>  (199) 
-17.2511

>  <r_i_glide_energy>  (199) 
-14.4678

>  <r_i_glide_einternal>  (199) 
0.948221

>  <r_i_glide_intrahb_reward>  (199) 
-0

>  <i_i_glide_confnum>  (199) 
2

>  <i_i_glide_posenum>  (199) 
1

>  <r_i_glide_eff_state_penalty>  (199) 
0

>  <ligand_id>  (199) 
61

>  <original_smiles>  (199) 
CC=CCC12CC1CN(C)C2

>  <smiles>  (199) 
[H]C(=C([H])C([H])([H])C12C([H])([H])C1([H])C([H])([H])[N+]([H])(C([H])([H])[H])C2([H])[H])C([H])([H])[H]

$$$$
61:1:0
     RDKit          3D

 29 30  0  0  1  0  0  0  0  0999 V2000
   -9.6631   -3.7882   -5.6877 C   0  0  0  0  0  0  0  0  0  0  0  0
   -9.7380   -4.8627   -6.7522 C   0  0  0  0  0  0  0  0  0  0  0  0
   -8.8313   -5.8198   -7.0149 C   0  0  0  0  0  0  0  0  0  0  0  0
   -7.4927   -6.0513   -6.3185 C   0  0  0  0  0  0  0  0  0  0  0  0
   -6.7410   -7.2973   -6.7962 C   0  0  2  0  0  0  0  0  0  0  0  0
   -6.9269   -7.8600   -8.1935 C   0  0  0  0  0  0  0  0  0  0  0  0
   -7.4439   -8.5996   -6.9828 C   0  0  1  0  0  0  0  0  0  0  0  0
   -6.6254   -9.6631   -6.3011 C   0  0  0  0  0  0  0  0  0  0  0  0
   -5.2803   -9.0640   -6.1517 N   0  0  2  0  0  0  0  0  0  0  0  0
   -4.4438   -9.6821   -5.1057 C   0  0  0  0  0  0  0  0  0  0  0  0
   -5.4705   -7.5998   -6.0198 C   0  0  0  0  0  0  0  0  0  0  0  0
   -9.6017   -2.8018   -6.1423 H   0  0  0  0  0  0  0  0  0  0  0  0
   -8.8133   -3.9293   -5.0268 H   0  0  0  0  0  0  0  0  0  0  0  0
  -10.5715   -3.8264   -5.0901 H   0  0  0  0  0  0  0  0  0  0  0  0
  -10.6392   -4.8365   -7.3541 H   0  0  0  0  0  0  0  0  0  0  0  0
   -9.0851   -6.5025   -7.7964 H   0  0  0  0  0  0  0  0  0  0  0  0
   -6.8577   -5.1760   -6.4459 H   0  0  0  0  0  0  0  0  0  0  0  0
   -7.6601   -6.1223   -5.2431 H   0  0  0  0  0  0  0  0  0  0  0  0
   -7.6490   -7.4038   -8.8642 H   0  0  0  0  0  0  0  0  0  0  0  0
   -6.0524   -8.2758   -8.6871 H   0  0  0  0  0  0  0  0  0  0  0  0
   -8.5143   -8.6191   -6.7914 H   0  0  0  0  0  0  0  0  0  0  0  0
   -7.0662   -9.8547   -5.3215 H   0  0  0  0  0  0  0  0  0  0  0  0
   -6.6157  -10.5842   -6.8813 H   0  0  0  0  0  0  0  0  0  0  0  0
   -4.9082   -9.5414   -4.1268 H   0  0  0  0  0  0  0  0  0  0  0  0
   -3.4482   -9.2356   -5.0832 H   0  0  0  0  0  0  0  0  0  0  0  0
   -4.3227  -10.7541   -5.2754 H   0  0  0  0  0  0  0  0  0  0  0  0
   -4.6124   -7.0618   -6.4161 H   0  0  0  0  0  0  0  0  0  0  0  0
   -5.5988   -7.3273   -4.9719 H   0  0  0  0  0  0  0  0  0  0  0  0
   -4.8282   -9.1998   -7.0444 H   0  0  0  0  0  0  0  0  0  0  0  0
  1  2  1  0
  1 12  1  0
  1 13  1  0
  1 14  1  0
  2  3  2  3
  2 15  1  0
  3  4  1  0
  3 16  1  0
  5  4  1  6
  4 17  1  0
  4 18  1  0
  5  7  1  0
  5 11  1  0
  5  6  1  0
  6  7  1  0
  6 19  1  0
  6 20  1  0
  7  8  1  0
  7 21  1  6
  8  9  1  0
  8 22  1  0
  8 23  1  0
  9 10  1  0
  9 11  1  0
  9 29  1  6
 10 24  1  0
 10 25  1  0
 10 26  1  0
 11 27  1  0
 11 28  1  0
M  CHG  1   9   1
M  END
>  <i_m_ct_stereo_status>  (200) 
1

>  <s_m_source_file>  (200) 
/var/tmp/pbs.5076255.sched01/tmpinim70aj/80j3ziidn5.sdf

>  <i_m_source_file_index>  (200) 
2

>  <i_lp_mmshare_version>  (200) 
48012

>  <i_f3d_flags>  (200) 
0

>  <s_epik_input>  (200) 
W0NIM10vW0NIXT1bQ0hdL1tDSDJdW0NAQF0xMltDQEBIXShbQ0gyXTEpW0NIMl1OKFtDSDNdKVtDSDJdMg==

>  <s_epik_cmdline>  (200) 
J2VwaWtfcHl0aG9uJywgJy1waHQnLCAnMi4wJywgJy1waCcsICc3LjAnLCAnLXRuJywgJzgnLCAnLW1hJywgJzIwMCcsICctaW1hZScsICc8aW5maWxlLm1hZT4nLCAnLW9tYWUnLCAnPG91dGZpbGUubWFlPic=

>  <r_epik_Ionization_Penalty>  (200) 
0.000789566

>  <r_epik_Ionization_Penalty_Charging>  (200) 
0.000789566

>  <r_epik_Ionization_Penalty_Neutral>  (200) 
0

>  <r_epik_State_Penalty>  (200) 
0.000506566

>  <r_epik_Charging_Adjusted_Penalty>  (200) 
0.00129613

>  <i_epik_Tot_Q>  (200) 
1

>  <i_epik_Tot_abs_Q>  (200) 
1

>  <s_lp_Force_Field>  (200) 
OPLS3e

>  <r_lp_Energy>  (200) 
13.8206

>  <b_lp_Chiralities_Consistent>  (200) 
1

>  <s_lp_Variant>  (200) 
61:0-2

>  <s_i_glide_gridfile>  (200) 
pfpi4k_grid

>  <i_i_glide_lignum>  (200) 
2

>  <i_i_glide_rotatable_bonds>  (200) 
2

>  <r_i_docking_score>  (200) 
-4.2748

>  <r_i_glide_ligand_efficiency>  (200) 
-0.388618

>  <r_i_glide_ligand_efficiency_sa>  (200) 
-0.864278

>  <r_i_glide_ligand_efficiency_ln>  (200) 
-1.25807

>  <r_i_glide_gscore>  (200) 
-4.2748

>  <r_i_glide_lipo>  (200) 
-1.93051

>  <r_i_glide_hbond>  (200) 
0

>  <r_i_glide_metal>  (200) 
-0

>  <r_i_glide_rewards>  (200) 
-2.63333

>  <r_i_glide_evdw>  (200) 
-15.5091

>  <r_i_glide_ecoul>  (200) 
-1.40858

>  <r_i_glide_erotb>  (200) 
1.27578

>  <r_i_glide_esite>  (200) 
0

>  <r_i_glide_emodel>  (200) 
-18.4725

>  <r_i_glide_energy>  (200) 
-16.9177

>  <r_i_glide_einternal>  (200) 
4.3694

>  <r_i_glide_intrahb_reward>  (200) 
-0

>  <i_i_glide_confnum>  (200) 
5

>  <i_i_glide_posenum>  (200) 
33

>  <r_i_glide_eff_state_penalty>  (200) 
0

>  <ligand_id>  (200) 
61

>  <original_smiles>  (200) 
CC=CCC12CC1CN(C)C2

>  <smiles>  (200) 
[H]C(=C([H])C([H])([H])C12C([H])([H])C1([H])C([H])([H])[N+]([H])(C([H])([H])[H])C2([H])[H])C([H])([H])[H]

$$$$
61:1:1
     RDKit          3D

 29 30  0  0  1  0  0  0  0  0999 V2000
   -6.0374   -4.0666   -4.8315 C   0  0  0  0  0  0  0  0  0  0  0  0
   -7.0999   -5.0548   -4.4028 C   0  0  0  0  0  0  0  0  0  0  0  0
   -7.7168   -5.9576   -5.1816 C   0  0  0  0  0  0  0  0  0  0  0  0
   -7.5118   -6.1895   -6.6672 C   0  0  0  0  0  0  0  0  0  0  0  0
   -6.8052   -7.5000   -6.9861 C   0  0  2  0  0  0  0  0  0  0  0  0
   -7.1029   -8.1955   -8.3050 C   0  0  0  0  0  0  0  0  0  0  0  0
   -7.5389   -8.8021   -6.9876 C   0  0  1  0  0  0  0  0  0  0  0  0
   -6.6907   -9.7964   -6.2303 C   0  0  0  0  0  0  0  0  0  0  0  0
   -5.3277   -9.2128   -6.2054 N   0  0  2  0  0  0  0  0  0  0  0  0
   -4.4680   -9.6949   -5.1045 C   0  0  0  0  0  0  0  0  0  0  0  0
   -5.4846   -7.7389   -6.2567 C   0  0  0  0  0  0  0  0  0  0  0  0
   -6.4246   -3.0532   -4.7125 H   0  0  0  0  0  0  0  0  0  0  0  0
   -5.7133   -4.1957   -5.8612 H   0  0  0  0  0  0  0  0  0  0  0  0
   -5.1555   -4.1649   -4.2056 H   0  0  0  0  0  0  0  0  0  0  0  0
   -7.3748   -5.0048   -3.3562 H   0  0  0  0  0  0  0  0  0  0  0  0
   -8.4427   -6.6022   -4.7241 H   0  0  0  0  0  0  0  0  0  0  0  0
   -8.4972   -6.1981   -7.1317 H   0  0  0  0  0  0  0  0  0  0  0  0
   -6.9855   -5.3598   -7.1243 H   0  0  0  0  0  0  0  0  0  0  0  0
   -7.8723   -7.7669   -8.9453 H   0  0  0  0  0  0  0  0  0  0  0  0
   -6.2784   -8.6686   -8.8298 H   0  0  0  0  0  0  0  0  0  0  0  0
   -8.6027   -8.7984   -6.7517 H   0  0  0  0  0  0  0  0  0  0  0  0
   -7.0917   -9.8590   -5.2179 H   0  0  0  0  0  0  0  0  0  0  0  0
   -6.7141  -10.7853   -6.6930 H   0  0  0  0  0  0  0  0  0  0  0  0
   -4.8972   -9.4353   -4.1343 H   0  0  0  0  0  0  0  0  0  0  0  0
   -3.4707   -9.2551   -5.1540 H   0  0  0  0  0  0  0  0  0  0  0  0
   -4.3595  -10.7784   -5.1392 H   0  0  0  0  0  0  0  0  0  0  0  0
   -4.6508   -7.2505   -6.7635 H   0  0  0  0  0  0  0  0  0  0  0  0
   -5.5327   -7.3519   -5.2377 H   0  0  0  0  0  0  0  0  0  0  0  0
   -4.9088   -9.4667   -7.0902 H   0  0  0  0  0  0  0  0  0  0  0  0
  1  2  1  0
  1 12  1  0
  1 13  1  0
  1 14  1  0
  2  3  2  3
  2 15  1  0
  3  4  1  0
  3 16  1  0
  5  4  1  6
  4 17  1  0
  4 18  1  0
  5  7  1  0
  5 11  1  0
  5  6  1  0
  6  7  1  0
  6 19  1  0
  6 20  1  0
  7  8  1  0
  7 21  1  6
  8  9  1  0
  8 22  1  0
  8 23  1  0
  9 10  1  0
  9 11  1  0
  9 29  1  6
 10 24  1  0
 10 25  1  0
 10 26  1  0
 11 27  1  0
 11 28  1  0
M  CHG  1   9   1
M  END
>  <i_m_ct_stereo_status>  (201) 
1

>  <s_m_source_file>  (201) 
/var/tmp/pbs.5076255.sched01/tmpinim70aj/80j3ziidn5.sdf

>  <i_m_source_file_index>  (201) 
2

>  <i_lp_mmshare_version>  (201) 
48012

>  <i_f3d_flags>  (201) 
0

>  <s_epik_input>  (201) 
W0NIM10vW0NIXT1bQ0hdL1tDSDJdW0NAQF0xMltDQEBIXShbQ0gyXTEpW0NIMl1OKFtDSDNdKVtDSDJdMg==

>  <s_epik_cmdline>  (201) 
J2VwaWtfcHl0aG9uJywgJy1waHQnLCAnMi4wJywgJy1waCcsICc3LjAnLCAnLXRuJywgJzgnLCAnLW1hJywgJzIwMCcsICctaW1hZScsICc8aW5maWxlLm1hZT4nLCAnLW9tYWUnLCAnPG91dGZpbGUubWFlPic=

>  <r_epik_Ionization_Penalty>  (201) 
0.000789566

>  <r_epik_Ionization_Penalty_Charging>  (201) 
0.000789566

>  <r_epik_Ionization_Penalty_Neutral>  (201) 
0

>  <r_epik_State_Penalty>  (201) 
0.000506566

>  <r_epik_Charging_Adjusted_Penalty>  (201) 
0.00129613

>  <i_epik_Tot_Q>  (201) 
1

>  <i_epik_Tot_abs_Q>  (201) 
1

>  <s_lp_Force_Field>  (201) 
OPLS3e

>  <r_lp_Energy>  (201) 
13.8206

>  <b_lp_Chiralities_Consistent>  (201) 
1

>  <s_lp_Variant>  (201) 
61:0-2

>  <s_i_glide_gridfile>  (201) 
pfpi4k_grid

>  <i_i_glide_lignum>  (201) 
2

>  <i_i_glide_rotatable_bonds>  (201) 
2

>  <r_i_docking_score>  (201) 
-4.24385

>  <r_i_glide_ligand_efficiency>  (201) 
-0.385805

>  <r_i_glide_ligand_efficiency_sa>  (201) 
-0.858022

>  <r_i_glide_ligand_efficiency_ln>  (201) 
-1.24896

>  <r_i_glide_gscore>  (201) 
-4.24385

>  <r_i_glide_lipo>  (201) 
-2.02203

>  <r_i_glide_hbond>  (201) 
0

>  <r_i_glide_metal>  (201) 
-0

>  <r_i_glide_rewards>  (201) 
-2.575

>  <r_i_glide_evdw>  (201) 
-13.1145

>  <r_i_glide_ecoul>  (201) 
-1.77923

>  <r_i_glide_erotb>  (201) 
1.27578

>  <r_i_glide_esite>  (201) 
0

>  <r_i_glide_emodel>  (201) 
-18.209

>  <r_i_glide_energy>  (201) 
-14.8937

>  <r_i_glide_einternal>  (201) 
1.20211

>  <r_i_glide_intrahb_reward>  (201) 
-0

>  <i_i_glide_confnum>  (201) 
5

>  <i_i_glide_posenum>  (201) 
8

>  <r_i_glide_eff_state_penalty>  (201) 
0

>  <ligand_id>  (201) 
61

>  <original_smiles>  (201) 
CC=CCC12CC1CN(C)C2

>  <smiles>  (201) 
[H]C(=C([H])C([H])([H])C12C([H])([H])C1([H])C([H])([H])[N+]([H])(C([H])([H])[H])C2([H])[H])C([H])([H])[H]

$$$$
62:0:0
     RDKit          3D

 34 36  0  0  1  0  0  0  0  0999 V2000
   -3.3892    3.0624    9.7553 C   0  0  0  0  0  0  0  0  0  0  0  0
   -3.4035    2.9720    8.3386 O   0  0  0  0  0  0  0  0  0  0  0  0
   -2.2545    2.5666    7.7126 C   0  0  0  0  0  0  0  0  0  0  0  0
   -1.2146    2.1066    8.4382 N   0  0  0  0  0  0  0  0  0  0  0  0
   -0.1318    1.6731    7.8087 C   0  0  0  0  0  0  0  0  0  0  0  0
    0.1009    1.5914    6.5063 N   0  0  0  0  0  0  0  0  0  0  0  0
   -0.9100    2.1203    5.7623 C   0  0  0  0  0  0  0  0  0  0  0  0
   -2.1406    2.6111    6.3090 C   0  0  0  0  0  0  0  0  0  0  0  0
   -2.9533    3.0116    5.2150 C   0  0  0  0  0  0  0  0  0  0  0  0
   -2.2353    2.8187    4.0778 C   0  0  0  0  0  0  0  0  0  0  0  0
   -0.9803    2.2864    4.3823 N   0  0  0  0  0  0  0  0  0  0  0  0
    0.0825    1.9616    3.3417 C   0  0  2  0  0  0  0  0  0  0  0  0
    0.6373    0.7165    3.6438 O   0  0  0  0  0  0  0  0  0  0  0  0
    1.9866    0.8471    4.1093 C   0  0  1  0  0  0  0  0  0  0  0  0
    2.9041    0.2077    3.0436 C   0  0  0  0  0  0  0  0  0  0  0  0
    2.2152    2.3722    4.3338 C   0  0  1  0  0  0  0  0  0  0  0  0
    3.5421    2.8163    4.1400 O   0  0  0  0  0  0  0  0  0  0  0  0
    1.2207    2.9946    3.3660 C   0  0  1  0  0  0  0  0  0  0  0  0
    1.8121    3.1311    2.0792 O   0  0  0  0  0  0  0  0  0  0  0  0
   -4.3914    3.3362   10.0865 H   0  0  0  0  0  0  0  0  0  0  0  0
   -2.6944    3.8453   10.0624 H   0  0  0  0  0  0  0  0  0  0  0  0
   -3.1127    2.1389   10.2672 H   0  0  0  0  0  0  0  0  0  0  0  0
    0.6953    1.3790    8.4525 H   0  0  0  0  0  0  0  0  0  0  0  0
   -3.9674    3.3331    5.3197 H   0  0  0  0  0  0  0  0  0  0  0  0
   -2.5311    2.9900    3.0437 H   0  0  0  0  0  0  0  0  0  0  0  0
   -0.4991    1.9467    2.4114 H   0  0  0  0  0  0  0  0  0  0  0  0
    2.0898    0.2966    5.0446 H   0  0  0  0  0  0  0  0  0  0  0  0
    3.9507    0.3105    3.3402 H   0  0  0  0  0  0  0  0  0  0  0  0
    2.8063    0.6929    2.0709 H   0  0  0  0  0  0  0  0  0  0  0  0
    2.7103   -0.8567    2.8879 H   0  0  0  0  0  0  0  0  0  0  0  0
    2.0030    2.7174    5.3417 H   0  0  0  0  0  0  0  0  0  0  0  0
    3.7847    2.6969    3.2311 H   0  0  0  0  0  0  0  0  0  0  0  0
    0.8735    3.9737    3.6731 H   0  0  0  0  0  0  0  0  0  0  0  0
    1.1485    3.5709    1.4976 H   0  0  0  0  0  0  0  0  0  0  0  0
  1  2  1  0
  1 20  1  0
  1 21  1  0
  1 22  1  0
  2  3  1  0
  3  8  2  0
  3  4  1  0
  4  5  2  0
  5  6  1  0
  5 23  1  0
  6  7  2  0
  7 11  1  0
  7  8  1  0
  8  9  1  0
  9 10  2  0
  9 24  1  0
 10 11  1  0
 10 25  1  0
 11 12  1  0
 12 18  1  0
 12 13  1  0
 12 26  1  6
 13 14  1  0
 14 15  1  0
 14 16  1  0
 14 27  1  1
 15 28  1  0
 15 29  1  0
 15 30  1  0
 16 17  1  0
 16 18  1  0
 16 31  1  1
 17 32  1  0
 18 19  1  0
 18 33  1  1
 19 34  1  0
M  END
>  <i_m_ct_stereo_status>  (202) 
1

>  <s_m_source_file>  (202) 
/var/tmp/pbs.5076255.sched01/tmpinim70aj/80j3ziidn5.sdf

>  <i_m_source_file_index>  (202) 
3

>  <i_lp_mmshare_version>  (202) 
48012

>  <i_f3d_flags>  (202) 
0

>  <s_epik_input>  (202) 
bjFbY0hdbmMoT1tDSDNdKWMoYzEyKVtjSF1bY0hdbjJbQ0BASF0zT1tDQEBIXShbQ0gzXSlbQ0BASF0oW09IXSlbQ0BIXTNbT0hd

>  <s_epik_cmdline>  (202) 
J2VwaWtfcHl0aG9uJywgJy1waHQnLCAnMi4wJywgJy1waCcsICc3LjAnLCAnLXRuJywgJzgnLCAnLW1hJywgJzIwMCcsICctaW1hZScsICc8aW5maWxlLm1hZT4nLCAnLW9tYWUnLCAnPG91dGZpbGUubWFlPic=

>  <r_lp_tautomer_probability>  (202) 
1

>  <r_epik_Ionization_Penalty>  (202) 
8.45141e-06

>  <r_epik_Ionization_Penalty_Charging>  (202) 
0

>  <r_epik_Ionization_Penalty_Neutral>  (202) 
8.45141e-06

>  <r_epik_State_Penalty>  (202) 
-0

>  <r_epik_Charging_Adjusted_Penalty>  (202) 
0

>  <i_epik_Tot_Q>  (202) 
0

>  <i_epik_Tot_abs_Q>  (202) 
0

>  <s_epik_Chemistry_Notes>  (202) 
This compound contains an acetal/aminal-like group ( X-CH(R)-Y where X, Y are N, S, or O) that may be acid/base labile, releasing an aldehyde.

>  <s_lp_Force_Field>  (202) 
OPLS3e

>  <r_lp_Energy>  (202) 
24.9098

>  <b_lp_Chiralities_Consistent>  (202) 
1

>  <s_lp_Variant>  (202) 
62:0-1

>  <s_i_glide_gridfile>  (202) 
pfpi4k_grid

>  <i_i_glide_lignum>  (202) 
3

>  <i_i_glide_rotatable_bonds>  (202) 
4

>  <r_i_docking_score>  (202) 
-3.53404

>  <r_i_glide_ligand_efficiency>  (202) 
-0.186002

>  <r_i_glide_ligand_efficiency_sa>  (202) 
-0.496328

>  <r_i_glide_ligand_efficiency_ln>  (202) 
-0.895955

>  <r_i_glide_gscore>  (202) 
-3.53404

>  <r_i_glide_lipo>  (202) 
-0.150042

>  <r_i_glide_hbond>  (202) 
0

>  <r_i_glide_metal>  (202) 
-0

>  <r_i_glide_rewards>  (202) 
-1.60046

>  <r_i_glide_evdw>  (202) 
-12.1515

>  <r_i_glide_ecoul>  (202) 
-8.986

>  <r_i_glide_erotb>  (202) 
0.252858

>  <r_i_glide_esite>  (202) 
-0.0809177

>  <r_i_glide_emodel>  (202) 
-26.0168

>  <r_i_glide_energy>  (202) 
-21.1375

>  <r_i_glide_einternal>  (202) 
2.17311

>  <r_i_glide_intrahb_reward>  (202) 
-0

>  <i_i_glide_confnum>  (202) 
5

>  <i_i_glide_posenum>  (202) 
17

>  <r_i_glide_eff_state_penalty>  (202) 
0

>  <ligand_id>  (202) 
62

>  <original_smiles>  (202) 
COc1ncnc2c1ccn2C1OC(C)C(O)C1O

>  <smiles>  (202) 
[H]OC1([H])C([H])(n2c([H])c([H])c3c(OC([H])([H])[H])nc([H])nc32)OC([H])(C([H])([H])[H])C1([H])O[H]

$$$$
62:0:1
     RDKit          3D

 34 36  0  0  1  0  0  0  0  0999 V2000
   -0.3076    1.6935   11.5923 C   0  0  0  0  0  0  0  0  0  0  0  0
   -1.0076    2.8982   11.2942 O   0  0  0  0  0  0  0  0  0  0  0  0
   -1.6016    2.9581   10.0591 C   0  0  0  0  0  0  0  0  0  0  0  0
   -2.9108    3.2715   10.0284 N   0  0  0  0  0  0  0  0  0  0  0  0
   -3.5123    3.3336    8.8435 C   0  0  0  0  0  0  0  0  0  0  0  0
   -2.9880    3.1577    7.6252 N   0  0  0  0  0  0  0  0  0  0  0  0
   -1.6543    2.8973    7.6546 C   0  0  0  0  0  0  0  0  0  0  0  0
   -0.8848    2.7804    8.8477 C   0  0  0  0  0  0  0  0  0  0  0  0
    0.4568    2.5188    8.4577 C   0  0  0  0  0  0  0  0  0  0  0  0
    0.4666    2.4140    7.0896 C   0  0  0  0  0  0  0  0  0  0  0  0
   -0.8027    2.7051    6.5812 N   0  0  0  0  0  0  0  0  0  0  0  0
   -1.2092    2.7993    5.1218 C   0  0  2  0  0  0  0  0  0  0  0  0
   -0.8555    1.5883    4.4966 O   0  0  0  0  0  0  0  0  0  0  0  0
    0.2110    1.7488    3.5541 C   0  0  1  0  0  0  0  0  0  0  0  0
   -0.3147    1.6576    2.1106 C   0  0  0  0  0  0  0  0  0  0  0  0
    0.7860    3.1377    3.8850 C   0  0  1  0  0  0  0  0  0  0  0  0
    1.4990    3.8261    2.8826 O   0  0  0  0  0  0  0  0  0  0  0  0
   -0.4069    3.9166    4.4357 C   0  0  1  0  0  0  0  0  0  0  0  0
   -1.1504    4.5911    3.4239 O   0  0  0  0  0  0  0  0  0  0  0  0
    0.2146    1.8043   12.5492 H   0  0  0  0  0  0  0  0  0  0  0  0
    0.4380    1.4440   10.8393 H   0  0  0  0  0  0  0  0  0  0  0  0
   -1.0148    0.8625   11.6616 H   0  0  0  0  0  0  0  0  0  0  0  0
   -4.5597    3.5652    8.9113 H   0  0  0  0  0  0  0  0  0  0  0  0
    1.3087    2.4065    9.1066 H   0  0  0  0  0  0  0  0  0  0  0  0
    1.3245    2.1689    6.4779 H   0  0  0  0  0  0  0  0  0  0  0  0
   -2.2980    2.9557    5.1190 H   0  0  0  0  0  0  0  0  0  0  0  0
    0.9413    0.9563    3.7134 H   0  0  0  0  0  0  0  0  0  0  0  0
    0.4935    1.8281    1.3951 H   0  0  0  0  0  0  0  0  0  0  0  0
   -1.0632    2.4234    1.9187 H   0  0  0  0  0  0  0  0  0  0  0  0
   -0.7589    0.6910    1.8563 H   0  0  0  0  0  0  0  0  0  0  0  0
    1.5562    3.0085    4.6494 H   0  0  0  0  0  0  0  0  0  0  0  0
    0.9783    3.8918    2.0698 H   0  0  0  0  0  0  0  0  0  0  0  0
   -0.1047    4.6616    5.1590 H   0  0  0  0  0  0  0  0  0  0  0  0
   -0.7083    4.4767    2.5835 H   0  0  0  0  0  0  0  0  0  0  0  0
  1  2  1  0
  1 20  1  0
  1 21  1  0
  1 22  1  0
  2  3  1  0
  3  8  2  0
  3  4  1  0
  4  5  2  0
  5  6  1  0
  5 23  1  0
  6  7  2  0
  7 11  1  0
  7  8  1  0
  8  9  1  0
  9 10  2  0
  9 24  1  0
 10 11  1  0
 10 25  1  0
 11 12  1  0
 12 18  1  0
 12 13  1  0
 12 26  1  1
 13 14  1  0
 14 15  1  0
 14 16  1  0
 14 27  1  1
 15 28  1  0
 15 29  1  0
 15 30  1  0
 16 17  1  0
 16 18  1  0
 16 31  1  1
 17 32  1  0
 18 19  1  0
 18 33  1  1
 19 34  1  0
M  END
>  <i_m_ct_stereo_status>  (203) 
1

>  <s_m_source_file>  (203) 
/var/tmp/pbs.5076255.sched01/tmpinim70aj/80j3ziidn5.sdf

>  <i_m_source_file_index>  (203) 
3

>  <i_lp_mmshare_version>  (203) 
48012

>  <i_f3d_flags>  (203) 
0

>  <s_epik_input>  (203) 
bjFbY0hdbmMoT1tDSDNdKWMoYzEyKVtjSF1bY0hdbjJbQ0BASF0zT1tDQEBIXShbQ0gzXSlbQ0BASF0oW09IXSlbQ0BIXTNbT0hd

>  <s_epik_cmdline>  (203) 
J2VwaWtfcHl0aG9uJywgJy1waHQnLCAnMi4wJywgJy1waCcsICc3LjAnLCAnLXRuJywgJzgnLCAnLW1hJywgJzIwMCcsICctaW1hZScsICc8aW5maWxlLm1hZT4nLCAnLW9tYWUnLCAnPG91dGZpbGUubWFlPic=

>  <r_lp_tautomer_probability>  (203) 
1

>  <r_epik_Ionization_Penalty>  (203) 
8.45141e-06

>  <r_epik_Ionization_Penalty_Charging>  (203) 
0

>  <r_epik_Ionization_Penalty_Neutral>  (203) 
8.45141e-06

>  <r_epik_State_Penalty>  (203) 
-0

>  <r_epik_Charging_Adjusted_Penalty>  (203) 
0

>  <i_epik_Tot_Q>  (203) 
0

>  <i_epik_Tot_abs_Q>  (203) 
0

>  <s_epik_Chemistry_Notes>  (203) 
This compound contains an acetal/aminal-like group ( X-CH(R)-Y where X, Y are N, S, or O) that may be acid/base labile, releasing an aldehyde.

>  <s_lp_Force_Field>  (203) 
OPLS3e

>  <r_lp_Energy>  (203) 
24.9098

>  <b_lp_Chiralities_Consistent>  (203) 
1

>  <s_lp_Variant>  (203) 
62:0-1

>  <s_i_glide_gridfile>  (203) 
pfpi4k_grid

>  <i_i_glide_lignum>  (203) 
3

>  <i_i_glide_rotatable_bonds>  (203) 
4

>  <r_i_docking_score>  (203) 
-3.46451

>  <r_i_glide_ligand_efficiency>  (203) 
-0.182343

>  <r_i_glide_ligand_efficiency_sa>  (203) 
-0.486564

>  <r_i_glide_ligand_efficiency_ln>  (203) 
-0.878328

>  <r_i_glide_gscore>  (203) 
-3.46451

>  <r_i_glide_lipo>  (203) 
0

>  <r_i_glide_hbond>  (203) 
0

>  <r_i_glide_metal>  (203) 
-0

>  <r_i_glide_rewards>  (203) 
-1.65607

>  <r_i_glide_evdw>  (203) 
-17.5325

>  <r_i_glide_ecoul>  (203) 
-7.85338

>  <r_i_glide_erotb>  (203) 
0.252858

>  <r_i_glide_esite>  (203) 
-0.00666811

>  <r_i_glide_emodel>  (203) 
-26.5237

>  <r_i_glide_energy>  (203) 
-25.3859

>  <r_i_glide_einternal>  (203) 
9.73481

>  <r_i_glide_intrahb_reward>  (203) 
-0

>  <i_i_glide_confnum>  (203) 
5

>  <i_i_glide_posenum>  (203) 
21

>  <r_i_glide_eff_state_penalty>  (203) 
0

>  <ligand_id>  (203) 
62

>  <original_smiles>  (203) 
COc1ncnc2c1ccn2C1OC(C)C(O)C1O

>  <smiles>  (203) 
[H]OC1([H])C([H])(n2c([H])c([H])c3c(OC([H])([H])[H])nc([H])nc32)OC([H])(C([H])([H])[H])C1([H])O[H]

$$$$
62:0:2
     RDKit          3D

 34 36  0  0  1  0  0  0  0  0999 V2000
    1.6723   -5.4202    6.3540 C   0  0  0  0  0  0  0  0  0  0  0  0
    2.1482   -4.1674    5.8913 O   0  0  0  0  0  0  0  0  0  0  0  0
    1.2340   -3.1559    5.6790 C   0  0  0  0  0  0  0  0  0  0  0  0
   -0.0869   -3.3636    5.9037 N   0  0  0  0  0  0  0  0  0  0  0  0
   -0.9363   -2.3613    5.6756 C   0  0  0  0  0  0  0  0  0  0  0  0
   -0.6774   -1.1285    5.2514 N   0  0  0  0  0  0  0  0  0  0  0  0
    0.6587   -0.9153    5.0718 C   0  0  0  0  0  0  0  0  0  0  0  0
    1.6799   -1.8912    5.2624 C   0  0  0  0  0  0  0  0  0  0  0  0
    2.9332   -1.2793    4.9634 C   0  0  0  0  0  0  0  0  0  0  0  0
    2.6584    0.0188    4.6259 C   0  0  0  0  0  0  0  0  0  0  0  0
    1.2902    0.2600    4.7066 N   0  0  0  0  0  0  0  0  0  0  0  0
    0.6450    1.5732    4.4235 C   0  0  2  0  0  0  0  0  0  0  0  0
   -0.4317    1.7657    5.2993 O   0  0  0  0  0  0  0  0  0  0  0  0
   -1.5956    2.1096    4.5569 C   0  0  1  0  0  0  0  0  0  0  0  0
   -2.4186    3.1464    5.3279 C   0  0  0  0  0  0  0  0  0  0  0  0
   -1.0729    2.5536    3.1900 C   0  0  1  0  0  0  0  0  0  0  0  0
   -0.6635    3.9111    3.2794 O   0  0  0  0  0  0  0  0  0  0  0  0
    0.1081    1.6203    2.9907 C   0  0  1  0  0  0  0  0  0  0  0  0
    1.0556    2.1471    2.0833 O   0  0  0  0  0  0  0  0  0  0  0  0
    2.5264   -6.0848    6.4655 H   0  0  0  0  0  0  0  0  0  0  0  0
    0.9840   -5.8793    5.6442 H   0  0  0  0  0  0  0  0  0  0  0  0
    1.1885   -5.3354    7.3273 H   0  0  0  0  0  0  0  0  0  0  0  0
   -1.9751   -2.5745    5.8550 H   0  0  0  0  0  0  0  0  0  0  0  0
    3.8937   -1.7663    5.0029 H   0  0  0  0  0  0  0  0  0  0  0  0
    3.3395    0.8032    4.3255 H   0  0  0  0  0  0  0  0  0  0  0  0
    1.4033    2.3264    4.6393 H   0  0  0  0  0  0  0  0  0  0  0  0
   -2.1801    1.2028    4.4085 H   0  0  0  0  0  0  0  0  0  0  0  0
   -3.2734    3.4507    4.7310 H   0  0  0  0  0  0  0  0  0  0  0  0
   -1.8161    4.0245    5.5574 H   0  0  0  0  0  0  0  0  0  0  0  0
   -2.7810    2.7524    6.2762 H   0  0  0  0  0  0  0  0  0  0  0  0
   -1.8181    2.4402    2.4014 H   0  0  0  0  0  0  0  0  0  0  0  0
   -0.3595    4.1732    2.4094 H   0  0  0  0  0  0  0  0  0  0  0  0
   -0.2325    0.6263    2.6836 H   0  0  0  0  0  0  0  0  0  0  0  0
    0.6444    2.8157    1.5434 H   0  0  0  0  0  0  0  0  0  0  0  0
  1  2  1  0
  1 20  1  0
  1 21  1  0
  1 22  1  0
  2  3  1  0
  3  8  2  0
  3  4  1  0
  4  5  2  0
  5  6  1  0
  5 23  1  0
  6  7  2  0
  7 11  1  0
  7  8  1  0
  8  9  1  0
  9 10  2  0
  9 24  1  0
 10 11  1  0
 10 25  1  0
 11 12  1  0
 12 18  1  0
 12 13  1  0
 12 26  1  6
 13 14  1  0
 14 15  1  0
 14 16  1  0
 14 27  1  6
 15 28  1  0
 15 29  1  0
 15 30  1  0
 16 17  1  0
 16 18  1  0
 16 31  1  6
 17 32  1  0
 18 19  1  0
 18 33  1  6
 19 34  1  0
M  END
>  <i_m_ct_stereo_status>  (204) 
1

>  <s_m_source_file>  (204) 
/var/tmp/pbs.5076255.sched01/tmpinim70aj/80j3ziidn5.sdf

>  <i_m_source_file_index>  (204) 
3

>  <i_lp_mmshare_version>  (204) 
48012

>  <i_f3d_flags>  (204) 
0

>  <s_epik_input>  (204) 
bjFbY0hdbmMoT1tDSDNdKWMoYzEyKVtjSF1bY0hdbjJbQ0BASF0zT1tDQEBIXShbQ0gzXSlbQ0BASF0oW09IXSlbQ0BIXTNbT0hd

>  <s_epik_cmdline>  (204) 
J2VwaWtfcHl0aG9uJywgJy1waHQnLCAnMi4wJywgJy1waCcsICc3LjAnLCAnLXRuJywgJzgnLCAnLW1hJywgJzIwMCcsICctaW1hZScsICc8aW5maWxlLm1hZT4nLCAnLW9tYWUnLCAnPG91dGZpbGUubWFlPic=

>  <r_lp_tautomer_probability>  (204) 
1

>  <r_epik_Ionization_Penalty>  (204) 
8.45141e-06

>  <r_epik_Ionization_Penalty_Charging>  (204) 
0

>  <r_epik_Ionization_Penalty_Neutral>  (204) 
8.45141e-06

>  <r_epik_State_Penalty>  (204) 
-0

>  <r_epik_Charging_Adjusted_Penalty>  (204) 
0

>  <i_epik_Tot_Q>  (204) 
0

>  <i_epik_Tot_abs_Q>  (204) 
0

>  <s_epik_Chemistry_Notes>  (204) 
This compound contains an acetal/aminal-like group ( X-CH(R)-Y where X, Y are N, S, or O) that may be acid/base labile, releasing an aldehyde.

>  <s_lp_Force_Field>  (204) 
OPLS3e

>  <r_lp_Energy>  (204) 
24.9098

>  <b_lp_Chiralities_Consistent>  (204) 
1

>  <s_lp_Variant>  (204) 
62:0-1

>  <s_i_glide_gridfile>  (204) 
pfpi4k_grid

>  <i_i_glide_lignum>  (204) 
3

>  <i_i_glide_rotatable_bonds>  (204) 
4

>  <r_i_docking_score>  (204) 
-3.32331

>  <r_i_glide_ligand_efficiency>  (204) 
-0.174911

>  <r_i_glide_ligand_efficiency_sa>  (204) 
-0.466733

>  <r_i_glide_ligand_efficiency_ln>  (204) 
-0.84253

>  <r_i_glide_gscore>  (204) 
-3.32331

>  <r_i_glide_lipo>  (204) 
0

>  <r_i_glide_hbond>  (204) 
0

>  <r_i_glide_metal>  (204) 
-0

>  <r_i_glide_rewards>  (204) 
-1.60046

>  <r_i_glide_evdw>  (204) 
-13.6047

>  <r_i_glide_ecoul>  (204) 
-8.27906

>  <r_i_glide_erotb>  (204) 
0.252858

>  <r_i_glide_esite>  (204) 
-0.0536095

>  <r_i_glide_emodel>  (204) 
-26.7612

>  <r_i_glide_energy>  (204) 
-21.8837

>  <r_i_glide_einternal>  (204) 
2.47908

>  <r_i_glide_intrahb_reward>  (204) 
-0

>  <i_i_glide_confnum>  (204) 
3

>  <i_i_glide_posenum>  (204) 
11

>  <r_i_glide_eff_state_penalty>  (204) 
0

>  <ligand_id>  (204) 
62

>  <original_smiles>  (204) 
COc1ncnc2c1ccn2C1OC(C)C(O)C1O

>  <smiles>  (204) 
[H]OC1([H])C([H])(n2c([H])c([H])c3c(OC([H])([H])[H])nc([H])nc32)OC([H])(C([H])([H])[H])C1([H])O[H]

$$$$
63:0:0
     RDKit          3D

 44 48  0  0  1  0  0  0  0  0999 V2000
    3.5063   -3.7411    4.2209 C   0  0  0  0  0  0  0  0  0  0  0  0
    3.8161   -3.9683    2.6977 C   0  0  0  0  0  0  0  0  0  0  0  0
    4.1731   -5.4813    2.6631 C   0  0  0  0  0  0  0  0  0  0  0  0
    2.5596   -3.5636    1.8658 C   0  0  1  0  0  0  0  0  0  0  0  0
    2.2951   -2.0098    2.0275 C   0  0  0  0  0  0  0  0  0  0  0  0
    3.5590   -1.0945    1.9072 C   0  0  1  0  0  0  0  0  0  0  0  0
    4.7142   -1.6877    2.6675 C   0  0  0  0  0  0  0  0  0  0  0  0
    5.3525   -1.1415    3.5656 O   0  0  0  0  0  0  0  0  0  0  0  0
    4.9754   -3.0735    2.1020 C   0  0  2  0  0  0  0  0  0  0  0  0
    4.8631   -2.7134    0.5445 C   0  0  1  0  0  0  0  0  0  0  0  0
    4.2264   -1.3071    0.5817 C   0  0  0  0  0  0  0  0  0  0  0  0
    4.2833   -0.4575   -0.2962 O   0  0  0  0  0  0  0  0  0  0  0  0
    6.2124   -2.8750   -0.1983 C   0  0  2  0  0  0  0  0  0  0  0  0
    7.2855   -2.2988    0.5112 O   0  0  0  0  0  0  0  0  0  0  0  0
    6.2303   -2.2954   -1.6423 C   0  0  0  0  0  0  0  0  0  0  0  0
    5.0927   -2.8511   -2.5257 C   0  0  0  0  0  0  0  0  0  0  0  0
    3.7844   -3.1243   -1.7549 C   0  0  0  0  0  0  0  0  0  0  0  0
    4.0331   -3.6828   -0.3161 C   0  0  1  0  0  0  0  0  0  0  0  0
    5.0444   -4.8522   -0.4377 C   0  0  0  0  0  0  0  0  0  0  0  0
    6.3444   -4.2552   -0.3079 O   0  0  0  0  0  0  0  0  0  0  0  0
    2.6556   -3.9570    0.3511 C   0  0  1  0  0  0  0  0  0  0  0  0
    2.2144   -5.2721    0.0803 O   0  0  0  0  0  0  0  0  0  0  0  0
    3.1607   -2.7420    4.4867 H   0  0  0  0  0  0  0  0  0  0  0  0
    4.3750   -3.9513    4.8492 H   0  0  0  0  0  0  0  0  0  0  0  0
    2.7029   -4.4048    4.5494 H   0  0  0  0  0  0  0  0  0  0  0  0
    3.6082   -6.0476    1.9283 H   0  0  0  0  0  0  0  0  0  0  0  0
    3.9602   -5.9882    3.6069 H   0  0  0  0  0  0  0  0  0  0  0  0
    5.2380   -5.6377    2.4859 H   0  0  0  0  0  0  0  0  0  0  0  0
    1.6923   -4.0756    2.2810 H   0  0  0  0  0  0  0  0  0  0  0  0
    1.5614   -1.6831    1.2872 H   0  0  0  0  0  0  0  0  0  0  0  0
    1.8167   -1.8143    2.9887 H   0  0  0  0  0  0  0  0  0  0  0  0
    5.9604   -3.4221    2.4103 H   0  0  0  0  0  0  0  0  0  0  0  0
    7.2510   -2.6146    1.3994 H   0  0  0  0  0  0  0  0  0  0  0  0
    6.1774   -1.2096   -1.6049 H   0  0  0  0  0  0  0  0  0  0  0  0
    7.1896   -2.5349   -2.1072 H   0  0  0  0  0  0  0  0  0  0  0  0
    4.8972   -2.1650   -3.3520 H   0  0  0  0  0  0  0  0  0  0  0  0
    5.4411   -3.7730   -2.9966 H   0  0  0  0  0  0  0  0  0  0  0  0
    3.1669   -2.2260   -1.7449 H   0  0  0  0  0  0  0  0  0  0  0  0
    3.2036   -3.8429   -2.3325 H   0  0  0  0  0  0  0  0  0  0  0  0
    4.9429   -5.6326    0.3030 H   0  0  0  0  0  0  0  0  0  0  0  0
    4.9618   -5.3630   -1.3979 H   0  0  0  0  0  0  0  0  0  0  0  0
    1.9159   -3.3468   -0.1660 H   0  0  0  0  0  0  0  0  0  0  0  0
    2.4309   -5.4810   -0.8249 H   0  0  0  0  0  0  0  0  0  0  0  0
    3.3940   -0.0432    2.1293 H   0  0  0  0  0  0  0  0  0  0  0  0
  1  2  1  0
  1 23  1  0
  1 24  1  0
  1 25  1  0
  2  3  1  0
  2  4  1  0
  2  9  1  0
  3 26  1  0
  3 27  1  0
  3 28  1  0
  4 21  1  0
  4  5  1  0
  4 29  1  1
  5 30  1  0
  5 31  1  0
  5  6  1  0
  6 11  1  0
  6  7  1  0
  6 44  1  1
  7  9  1  0
  7  8  2  0
  9 32  1  6
  9 10  1  0
 10 18  1  0
 10 13  1  0
 10 11  1  1
 11 12  2  0
 13 20  1  0
 13 14  1  1
 13 15  1  0
 14 33  1  0
 15 16  1  0
 15 34  1  0
 15 35  1  0
 16 17  1  0
 16 36  1  0
 16 37  1  0
 18 17  1  6
 17 38  1  0
 17 39  1  0
 18 19  1  0
 18 21  1  0
 19 20  1  0
 19 40  1  0
 19 41  1  0
 21 22  1  0
 21 42  1  6
 22 43  1  0
M  END
>  <i_m_ct_stereo_status>  (205) 
1

>  <s_m_source_file>  (205) 
/var/tmp/pbs.5076255.sched01/tmpinim70aj/80j3ziidn5.sdf

>  <i_m_source_file_index>  (205) 
4

>  <i_lp_mmshare_version>  (205) 
48012

>  <i_f3d_flags>  (205) 
0

>  <s_epik_input>  (205) 
Tz1DMVtDQEBIXShbQ0gyXTIpQyg9TylbQ0BIXTNDKFtDSDNdKShbQ0gzXSlbQ0BASF0yW0NASF0oW09IXSlbQ0BdNChbQ0BAXTEzNSlbQ0gyXVtDSDJdW0NIMl1bQ0BdNShbT0hdKU9bQ0gyXTQ=

>  <s_epik_cmdline>  (205) 
J2VwaWtfcHl0aG9uJywgJy1waHQnLCAnMi4wJywgJy1waCcsICc3LjAnLCAnLXRuJywgJzgnLCAnLW1hJywgJzIwMCcsICctaW1hZScsICc8aW5maWxlLm1hZT4nLCAnLW9tYWUnLCAnPG91dGZpbGUubWFlPic=

>  <r_lp_tautomer_probability>  (205) 
1

>  <r_epik_Ionization_Penalty>  (205) 
0.0143293

>  <r_epik_Ionization_Penalty_Charging>  (205) 
0

>  <r_epik_Ionization_Penalty_Neutral>  (205) 
0.0143293

>  <r_epik_State_Penalty>  (205) 
-0

>  <r_epik_Charging_Adjusted_Penalty>  (205) 
0

>  <i_epik_Tot_Q>  (205) 
0

>  <i_epik_Tot_abs_Q>  (205) 
0

>  <s_lp_Force_Field>  (205) 
OPLS3e

>  <r_lp_Energy>  (205) 
49.2651

>  <b_lp_Chiralities_Consistent>  (205) 
1

>  <s_lp_Variant>  (205) 
63:0-1

>  <s_i_glide_gridfile>  (205) 
pfpi4k_grid

>  <i_i_glide_lignum>  (205) 
4

>  <i_i_glide_rotatable_bonds>  (205) 
2

>  <r_i_docking_score>  (205) 
-3.99471

>  <r_i_glide_ligand_efficiency>  (205) 
-0.181578

>  <r_i_glide_ligand_efficiency_sa>  (205) 
-0.508787

>  <r_i_glide_ligand_efficiency_ln>  (205) 
-0.976452

>  <r_i_glide_gscore>  (205) 
-3.99471

>  <r_i_glide_lipo>  (205) 
-0.242132

>  <r_i_glide_hbond>  (205) 
-0.32

>  <r_i_glide_metal>  (205) 
-0

>  <r_i_glide_rewards>  (205) 
-1.441

>  <r_i_glide_evdw>  (205) 
-22.95

>  <r_i_glide_ecoul>  (205) 
-5.53237

>  <r_i_glide_erotb>  (205) 
0

>  <r_i_glide_esite>  (205) 
-0.0142144

>  <r_i_glide_emodel>  (205) 
-35.1234

>  <r_i_glide_energy>  (205) 
-28.4824

>  <r_i_glide_einternal>  (205) 
0.614303

>  <r_i_glide_intrahb_reward>  (205) 
-0

>  <i_i_glide_confnum>  (205) 
2

>  <i_i_glide_posenum>  (205) 
11

>  <r_i_glide_eff_state_penalty>  (205) 
0

>  <ligand_id>  (205) 
63

>  <original_smiles>  (205) 
CC1(C)C2CC3C(=O)C1C1(C3=O)C3(O)CCCC1(CO3)C2O

>  <smiles>  (205) 
[H]OC1([H])C2([H])C([H])([H])C3([H])C(=O)C([H])(C4(C3=O)C3(O[H])OC([H])([H])C14C([H])([H])C([H])([H])C3([H])[H])C2(C([H])([H])[H])C([H])([H])[H]

$$$$
63:0:1
     RDKit          3D

 44 48  0  0  1  0  0  0  0  0999 V2000
    4.9494   -4.3192    4.2971 C   0  0  0  0  0  0  0  0  0  0  0  0
    4.8462   -4.2345    2.7307 C   0  0  0  0  0  0  0  0  0  0  0  0
    5.7254   -5.4383    2.2852 C   0  0  0  0  0  0  0  0  0  0  0  0
    3.3393   -4.3204    2.3241 C   0  0  1  0  0  0  0  0  0  0  0  0
    2.5711   -3.0514    2.8754 C   0  0  0  0  0  0  0  0  0  0  0  0
    3.3000   -1.6812    2.6737 C   0  0  1  0  0  0  0  0  0  0  0  0
    4.7662   -1.8003    2.9934 C   0  0  0  0  0  0  0  0  0  0  0  0
    5.3914   -1.1243    3.8069 O   0  0  0  0  0  0  0  0  0  0  0  0
    5.3460   -2.8761    2.0897 C   0  0  2  0  0  0  0  0  0  0  0  0
    4.6439   -2.4346    0.7168 C   0  0  1  0  0  0  0  0  0  0  0  0
    3.5707   -1.4382    1.2198 C   0  0  0  0  0  0  0  0  0  0  0  0
    3.0633   -0.5140    0.5937 O   0  0  0  0  0  0  0  0  0  0  0  0
    5.6635   -1.9306   -0.3392 C   0  0  2  0  0  0  0  0  0  0  0  0
    6.6161   -1.0555    0.2214 O   0  0  0  0  0  0  0  0  0  0  0  0
    5.0178   -1.2349   -1.5760 C   0  0  0  0  0  0  0  0  0  0  0  0
    3.9728   -2.1350   -2.2716 C   0  0  0  0  0  0  0  0  0  0  0  0
    3.1743   -3.0334   -1.3032 C   0  0  0  0  0  0  0  0  0  0  0  0
    4.0301   -3.5746   -0.1156 C   0  0  1  0  0  0  0  0  0  0  0  0
    5.3150   -4.1831   -0.7320 C   0  0  0  0  0  0  0  0  0  0  0  0
    6.2580   -3.1030   -0.8059 O   0  0  0  0  0  0  0  0  0  0  0  0
    3.1264   -4.4737    0.7813 C   0  0  1  0  0  0  0  0  0  0  0  0
    3.1588   -5.8185    0.3553 O   0  0  0  0  0  0  0  0  0  0  0  0
    4.3502   -3.5939    4.8481 H   0  0  0  0  0  0  0  0  0  0  0  0
    5.9780   -4.2060    4.6478 H   0  0  0  0  0  0  0  0  0  0  0  0
    4.5970   -5.2909    4.6509 H   0  0  0  0  0  0  0  0  0  0  0  0
    5.2276   -6.1123    1.5946 H   0  0  0  0  0  0  0  0  0  0  0  0
    6.0164   -6.0828    3.1173 H   0  0  0  0  0  0  0  0  0  0  0  0
    6.6627   -5.1071    1.8372 H   0  0  0  0  0  0  0  0  0  0  0  0
    2.8942   -5.1936    2.8015 H   0  0  0  0  0  0  0  0  0  0  0  0
    1.5807   -2.9897    2.4205 H   0  0  0  0  0  0  0  0  0  0  0  0
    2.3726   -3.1772    3.9405 H   0  0  0  0  0  0  0  0  0  0  0  0
    6.4315   -2.8053    2.0736 H   0  0  0  0  0  0  0  0  0  0  0  0
    6.8385   -1.3566    1.0876 H   0  0  0  0  0  0  0  0  0  0  0  0
    4.5843   -0.2767   -1.2892 H   0  0  0  0  0  0  0  0  0  0  0  0
    5.8050   -0.9991   -2.2914 H   0  0  0  0  0  0  0  0  0  0  0  0
    3.2850   -1.5225   -2.8551 H   0  0  0  0  0  0  0  0  0  0  0  0
    4.4857   -2.7646   -3.0024 H   0  0  0  0  0  0  0  0  0  0  0  0
    2.2984   -2.5021   -0.9443 H   0  0  0  0  0  0  0  0  0  0  0  0
    2.7577   -3.8547   -1.8837 H   0  0  0  0  0  0  0  0  0  0  0  0
    5.7575   -4.9919   -0.1678 H   0  0  0  0  0  0  0  0  0  0  0  0
    5.1278   -4.5994   -1.7241 H   0  0  0  0  0  0  0  0  0  0  0  0
    2.0922   -4.1928    0.5967 H   0  0  0  0  0  0  0  0  0  0  0  0
    3.0371   -5.8508   -0.5866 H   0  0  0  0  0  0  0  0  0  0  0  0
    2.8256   -0.8283    3.1529 H   0  0  0  0  0  0  0  0  0  0  0  0
  1  2  1  0
  1 23  1  0
  1 24  1  0
  1 25  1  0
  2  3  1  0
  2  4  1  0
  2  9  1  0
  3 26  1  0
  3 27  1  0
  3 28  1  0
  4 21  1  0
  4  5  1  0
  4 29  1  1
  5 30  1  0
  5 31  1  0
  5  6  1  0
  6 11  1  0
  6  7  1  0
  6 44  1  1
  7  9  1  0
  7  8  2  0
  9 32  1  6
  9 10  1  0
 10 18  1  0
 10 13  1  0
 10 11  1  1
 11 12  2  0
 13 20  1  0
 13 14  1  1
 13 15  1  0
 14 33  1  0
 15 16  1  0
 15 34  1  0
 15 35  1  0
 16 17  1  0
 16 36  1  0
 16 37  1  0
 18 17  1  6
 17 38  1  0
 17 39  1  0
 18 19  1  0
 18 21  1  0
 19 20  1  0
 19 40  1  0
 19 41  1  0
 21 22  1  0
 21 42  1  1
 22 43  1  0
M  END
>  <i_m_ct_stereo_status>  (206) 
1

>  <s_m_source_file>  (206) 
/var/tmp/pbs.5076255.sched01/tmpinim70aj/80j3ziidn5.sdf

>  <i_m_source_file_index>  (206) 
4

>  <i_lp_mmshare_version>  (206) 
48012

>  <i_f3d_flags>  (206) 
0

>  <s_epik_input>  (206) 
Tz1DMVtDQEBIXShbQ0gyXTIpQyg9TylbQ0BIXTNDKFtDSDNdKShbQ0gzXSlbQ0BASF0yW0NASF0oW09IXSlbQ0BdNChbQ0BAXTEzNSlbQ0gyXVtDSDJdW0NIMl1bQ0BdNShbT0hdKU9bQ0gyXTQ=

>  <s_epik_cmdline>  (206) 
J2VwaWtfcHl0aG9uJywgJy1waHQnLCAnMi4wJywgJy1waCcsICc3LjAnLCAnLXRuJywgJzgnLCAnLW1hJywgJzIwMCcsICctaW1hZScsICc8aW5maWxlLm1hZT4nLCAnLW9tYWUnLCAnPG91dGZpbGUubWFlPic=

>  <r_lp_tautomer_probability>  (206) 
1

>  <r_epik_Ionization_Penalty>  (206) 
0.0143293

>  <r_epik_Ionization_Penalty_Charging>  (206) 
0

>  <r_epik_Ionization_Penalty_Neutral>  (206) 
0.0143293

>  <r_epik_State_Penalty>  (206) 
-0

>  <r_epik_Charging_Adjusted_Penalty>  (206) 
0

>  <i_epik_Tot_Q>  (206) 
0

>  <i_epik_Tot_abs_Q>  (206) 
0

>  <s_lp_Force_Field>  (206) 
OPLS3e

>  <r_lp_Energy>  (206) 
49.2651

>  <b_lp_Chiralities_Consistent>  (206) 
1

>  <s_lp_Variant>  (206) 
63:0-1

>  <s_i_glide_gridfile>  (206) 
pfpi4k_grid

>  <i_i_glide_lignum>  (206) 
4

>  <i_i_glide_rotatable_bonds>  (206) 
2

>  <r_i_docking_score>  (206) 
-3.69091

>  <r_i_glide_ligand_efficiency>  (206) 
-0.167769

>  <r_i_glide_ligand_efficiency_sa>  (206) 
-0.470095

>  <r_i_glide_ligand_efficiency_ln>  (206) 
-0.902194

>  <r_i_glide_gscore>  (206) 
-3.69091

>  <r_i_glide_lipo>  (206) 
-0.163539

>  <r_i_glide_hbond>  (206) 
-0.32

>  <r_i_glide_metal>  (206) 
-0

>  <r_i_glide_rewards>  (206) 
-1.39377

>  <r_i_glide_evdw>  (206) 
-22.0075

>  <r_i_glide_ecoul>  (206) 
-4.44172

>  <r_i_glide_erotb>  (206) 
0

>  <r_i_glide_esite>  (206) 
-0.046967

>  <r_i_glide_emodel>  (206) 
-32.5386

>  <r_i_glide_energy>  (206) 
-26.4492

>  <r_i_glide_einternal>  (206) 
0.581497

>  <r_i_glide_intrahb_reward>  (206) 
-0

>  <i_i_glide_confnum>  (206) 
2

>  <i_i_glide_posenum>  (206) 
8

>  <r_i_glide_eff_state_penalty>  (206) 
0

>  <ligand_id>  (206) 
63

>  <original_smiles>  (206) 
CC1(C)C2CC3C(=O)C1C1(C3=O)C3(O)CCCC1(CO3)C2O

>  <smiles>  (206) 
[H]OC1([H])C2([H])C([H])([H])C3([H])C(=O)C([H])(C4(C3=O)C3(O[H])OC([H])([H])C14C([H])([H])C([H])([H])C3([H])[H])C2(C([H])([H])[H])C([H])([H])[H]

$$$$
63:0:2
     RDKit          3D

 44 48  0  0  1  0  0  0  0  0999 V2000
    2.3730   -3.5130    5.3749 C   0  0  0  0  0  0  0  0  0  0  0  0
    3.0984   -3.4684    3.9795 C   0  0  0  0  0  0  0  0  0  0  0  0
    3.9251   -4.7852    4.0055 C   0  0  0  0  0  0  0  0  0  0  0  0
    2.0196   -3.3852    2.8573 C   0  0  1  0  0  0  0  0  0  0  0  0
    1.2387   -2.0115    2.9815 C   0  0  0  0  0  0  0  0  0  0  0  0
    2.1214   -0.7404    3.2127 C   0  0  1  0  0  0  0  0  0  0  0  0
    3.1882   -1.0324    4.2326 C   0  0  0  0  0  0  0  0  0  0  0  0
    3.3584   -0.4425    5.2962 O   0  0  0  0  0  0  0  0  0  0  0  0
    4.0110   -2.2015    3.7159 C   0  0  2  0  0  0  0  0  0  0  0  0
    4.1567   -1.7257    2.1913 C   0  0  1  0  0  0  0  0  0  0  0  0
    3.1086   -0.5912    2.0976 C   0  0  0  0  0  0  0  0  0  0  0  0
    3.0803    0.3332    1.2881 O   0  0  0  0  0  0  0  0  0  0  0  0
    5.6154   -1.3770    1.8247 C   0  0  2  0  0  0  0  0  0  0  0  0
    6.2108   -0.5932    2.8305 O   0  0  0  0  0  0  0  0  0  0  0  0
    5.7910   -0.6595    0.4622 C   0  0  0  0  0  0  0  0  0  0  0  0
    5.1568   -1.4571   -0.7000 C   0  0  0  0  0  0  0  0  0  0  0  0
    3.8730   -2.2159   -0.3114 C   0  0  0  0  0  0  0  0  0  0  0  0
    3.9359   -2.8126    1.1316 C   0  0  1  0  0  0  0  0  0  0  0  0
    5.2718   -3.5907    1.2412 C   0  0  0  0  0  0  0  0  0  0  0  0
    6.2306   -2.6252    1.6890 O   0  0  0  0  0  0  0  0  0  0  0  0
    2.6132   -3.5702    1.4161 C   0  0  1  0  0  0  0  0  0  0  0  0
    2.6750   -4.9230    1.0113 O   0  0  0  0  0  0  0  0  0  0  0  0
    1.6690   -2.7044    5.5619 H   0  0  0  0  0  0  0  0  0  0  0  0
    3.0847   -3.5135    6.2021 H   0  0  0  0  0  0  0  0  0  0  0  0
    1.7743   -4.4221    5.4626 H   0  0  0  0  0  0  0  0  0  0  0  0
    3.7707   -5.4154    3.1344 H   0  0  0  0  0  0  0  0  0  0  0  0
    3.6689   -5.4305    4.8501 H   0  0  0  0  0  0  0  0  0  0  0  0
    4.9924   -4.5829    4.1090 H   0  0  0  0  0  0  0  0  0  0  0  0
    1.2883   -4.1775    3.0115 H   0  0  0  0  0  0  0  0  0  0  0  0
    0.6440   -1.8410    2.0830 H   0  0  0  0  0  0  0  0  0  0  0  0
    0.5037   -2.0766    3.7895 H   0  0  0  0  0  0  0  0  0  0  0  0
    4.9547   -2.2499    4.2624 H   0  0  0  0  0  0  0  0  0  0  0  0
    6.9889   -0.1855    2.4690 H   0  0  0  0  0  0  0  0  0  0  0  0
    5.3814    0.3514    0.5120 H   0  0  0  0  0  0  0  0  0  0  0  0
    6.8602   -0.5492    0.2731 H   0  0  0  0  0  0  0  0  0  0  0  0
    4.9462   -0.7820   -1.5316 H   0  0  0  0  0  0  0  0  0  0  0  0
    5.8887   -2.1700   -1.0849 H   0  0  0  0  0  0  0  0  0  0  0  0
    3.0204   -1.5489   -0.4354 H   0  0  0  0  0  0  0  0  0  0  0  0
    3.7075   -3.0109   -1.0379 H   0  0  0  0  0  0  0  0  0  0  0  0
    5.2658   -4.4218    1.9294 H   0  0  0  0  0  0  0  0  0  0  0  0
    5.5703   -4.0177    0.2852 H   0  0  0  0  0  0  0  0  0  0  0  0
    1.8611   -3.1585    0.7443 H   0  0  0  0  0  0  0  0  0  0  0  0
    3.0100   -4.9647    0.1257 H   0  0  0  0  0  0  0  0  0  0  0  0
    1.5719    0.1755    3.4156 H   0  0  0  0  0  0  0  0  0  0  0  0
  1  2  1  0
  1 23  1  0
  1 24  1  0
  1 25  1  0
  2  3  1  0
  2  4  1  0
  2  9  1  0
  3 26  1  0
  3 27  1  0
  3 28  1  0
  4 21  1  0
  4  5  1  0
  4 29  1  1
  5 30  1  0
  5 31  1  0
  5  6  1  0
  6 11  1  0
  6  7  1  0
  6 44  1  1
  7  9  1  0
  7  8  2  0
  9 32  1  1
  9 10  1  0
 10 18  1  0
 10 13  1  0
 10 11  1  6
 11 12  2  0
 13 20  1  0
 13 14  1  1
 13 15  1  0
 14 33  1  0
 15 16  1  0
 15 34  1  0
 15 35  1  0
 16 17  1  0
 16 36  1  0
 16 37  1  0
 18 17  1  6
 17 38  1  0
 17 39  1  0
 18 19  1  0
 18 21  1  0
 19 20  1  0
 19 40  1  0
 19 41  1  0
 21 22  1  0
 21 42  1  6
 22 43  1  0
M  END
>  <i_m_ct_stereo_status>  (207) 
1

>  <s_m_source_file>  (207) 
/var/tmp/pbs.5076255.sched01/tmpinim70aj/80j3ziidn5.sdf

>  <i_m_source_file_index>  (207) 
4

>  <i_lp_mmshare_version>  (207) 
48012

>  <i_f3d_flags>  (207) 
0

>  <s_epik_input>  (207) 
Tz1DMVtDQEBIXShbQ0gyXTIpQyg9TylbQ0BIXTNDKFtDSDNdKShbQ0gzXSlbQ0BASF0yW0NASF0oW09IXSlbQ0BdNChbQ0BAXTEzNSlbQ0gyXVtDSDJdW0NIMl1bQ0BdNShbT0hdKU9bQ0gyXTQ=

>  <s_epik_cmdline>  (207) 
J2VwaWtfcHl0aG9uJywgJy1waHQnLCAnMi4wJywgJy1waCcsICc3LjAnLCAnLXRuJywgJzgnLCAnLW1hJywgJzIwMCcsICctaW1hZScsICc8aW5maWxlLm1hZT4nLCAnLW9tYWUnLCAnPG91dGZpbGUubWFlPic=

>  <r_lp_tautomer_probability>  (207) 
1

>  <r_epik_Ionization_Penalty>  (207) 
0.0143293

>  <r_epik_Ionization_Penalty_Charging>  (207) 
0

>  <r_epik_Ionization_Penalty_Neutral>  (207) 
0.0143293

>  <r_epik_State_Penalty>  (207) 
-0

>  <r_epik_Charging_Adjusted_Penalty>  (207) 
0

>  <i_epik_Tot_Q>  (207) 
0

>  <i_epik_Tot_abs_Q>  (207) 
0

>  <s_lp_Force_Field>  (207) 
OPLS3e

>  <r_lp_Energy>  (207) 
49.2651

>  <b_lp_Chiralities_Consistent>  (207) 
1

>  <s_lp_Variant>  (207) 
63:0-1

>  <s_i_glide_gridfile>  (207) 
pfpi4k_grid

>  <i_i_glide_lignum>  (207) 
4

>  <i_i_glide_rotatable_bonds>  (207) 
2

>  <r_i_docking_score>  (207) 
-3.43178

>  <r_i_glide_ligand_efficiency>  (207) 
-0.15599

>  <r_i_glide_ligand_efficiency_sa>  (207) 
-0.43709

>  <r_i_glide_ligand_efficiency_ln>  (207) 
-0.838853

>  <r_i_glide_gscore>  (207) 
-3.43178

>  <r_i_glide_lipo>  (207) 
-0.178439

>  <r_i_glide_hbond>  (207) 
0

>  <r_i_glide_metal>  (207) 
-0

>  <r_i_glide_rewards>  (207) 
-1.51268

>  <r_i_glide_evdw>  (207) 
-17.8135

>  <r_i_glide_ecoul>  (207) 
-5.56597

>  <r_i_glide_erotb>  (207) 
0

>  <r_i_glide_esite>  (207) 
-0.0150942

>  <r_i_glide_emodel>  (207) 
-28.9367

>  <r_i_glide_energy>  (207) 
-23.3794

>  <r_i_glide_einternal>  (207) 
0.625927

>  <r_i_glide_intrahb_reward>  (207) 
-0

>  <i_i_glide_confnum>  (207) 
1

>  <i_i_glide_posenum>  (207) 
36

>  <r_i_glide_eff_state_penalty>  (207) 
0

>  <ligand_id>  (207) 
63

>  <original_smiles>  (207) 
CC1(C)C2CC3C(=O)C1C1(C3=O)C3(O)CCCC1(CO3)C2O

>  <smiles>  (207) 
[H]OC1([H])C2([H])C([H])([H])C3([H])C(=O)C([H])(C4(C3=O)C3(O[H])OC([H])([H])C14C([H])([H])C([H])([H])C3([H])[H])C2(C([H])([H])[H])C([H])([H])[H]

$$$$
64:0:0
     RDKit          3D

 14 15  0  0  1  0  0  0  0  0999 V2000
    2.8663  -11.4129    2.9544 C   0  0  0  0  0  0  0  0  0  0  0  0
    2.0873  -10.1512    2.6301 C   0  0  0  0  0  0  0  0  0  0  0  0
    0.7905  -10.1943    3.0312 N   0  0  0  0  0  0  0  0  0  0  0  0
    0.0887   -9.0649    2.7442 C   0  0  0  0  0  0  0  0  0  0  0  0
   -1.1721   -8.7308    2.9804 N   0  0  0  0  0  0  0  0  0  0  0  0
   -1.2986   -7.4461    2.4876 N   0  0  0  0  0  0  0  0  0  0  0  0
   -0.2118   -6.9943    1.9408 N   0  0  0  0  0  0  0  0  0  0  0  0
    0.6978   -7.9889    2.0909 N   0  0  0  0  0  0  0  0  0  0  0  0
    1.9595   -7.9179    1.6793 N   0  0  0  0  0  0  0  0  0  0  0  0
    2.6669   -9.0353    1.9587 C   0  0  0  0  0  0  0  0  0  0  0  0
    4.3229   -9.0447    1.4666 Cl  0  0  0  0  0  0  0  0  0  0  0  0
    3.9033  -11.3877    2.6247 H   0  0  0  0  0  0  0  0  0  0  0  0
    2.3950  -12.2705    2.4834 H   0  0  0  0  0  0  0  0  0  0  0  0
    2.8576  -11.5864    4.0313 H   0  0  0  0  0  0  0  0  0  0  0  0
  1  2  1  0
  1 12  1  0
  1 13  1  0
  1 14  1  0
  2 10  1  0
  2  3  2  0
  3  4  1  0
  4  8  1  0
  4  5  2  0
  5  6  1  0
  6  7  2  0
  7  8  1  0
  8  9  1  0
  9 10  2  0
 10 11  1  0
M  END
>  <i_m_ct_stereo_status>  (208) 
1

>  <s_m_source_file>  (208) 
/var/tmp/pbs.5076255.sched01/tmpinim70aj/80j3ziidn5.sdf

>  <i_m_source_file_index>  (208) 
5

>  <i_lp_mmshare_version>  (208) 
48012

>  <i_f3d_flags>  (208) 
0

>  <s_epik_input>  (208) 
W0NIM11jKG4xKWMoQ2wpbm4oYzEyKW5ubjI=

>  <s_epik_cmdline>  (208) 
J2VwaWtfcHl0aG9uJywgJy1waHQnLCAnMi4wJywgJy1waCcsICc3LjAnLCAnLXRuJywgJzgnLCAnLW1hJywgJzIwMCcsICctaW1hZScsICc8aW5maWxlLm1hZT4nLCAnLW9tYWUnLCAnPG91dGZpbGUubWFlPic=

>  <r_lp_tautomer_probability>  (208) 
1

>  <r_epik_Ionization_Penalty>  (208) 
2.32069e-13

>  <r_epik_Ionization_Penalty_Charging>  (208) 
0

>  <r_epik_Ionization_Penalty_Neutral>  (208) 
2.32069e-13

>  <r_epik_State_Penalty>  (208) 
-0

>  <r_epik_Charging_Adjusted_Penalty>  (208) 
0

>  <i_epik_Tot_Q>  (208) 
0

>  <i_epik_Tot_abs_Q>  (208) 
0

>  <s_lp_Force_Field>  (208) 
OPLS3e

>  <r_lp_Energy>  (208) 
16.2596

>  <b_lp_Chiralities_Consistent>  (208) 
1

>  <s_lp_Variant>  (208) 
64:0-1

>  <s_i_glide_gridfile>  (208) 
pfpi4k_grid

>  <i_i_glide_lignum>  (208) 
5

>  <i_i_glide_rotatable_bonds>  (208) 
0

>  <r_i_docking_score>  (208) 
-4.05974

>  <r_i_glide_ligand_efficiency>  (208) 
-0.369067

>  <r_i_glide_ligand_efficiency_sa>  (208) 
-0.820798

>  <r_i_glide_ligand_efficiency_ln>  (208) 
-1.19478

>  <r_i_glide_gscore>  (208) 
-4.05974

>  <r_i_glide_lipo>  (208) 
-0.0708622

>  <r_i_glide_hbond>  (208) 
0

>  <r_i_glide_metal>  (208) 
-0

>  <r_i_glide_rewards>  (208) 
-2.24619

>  <r_i_glide_evdw>  (208) 
-19.3126

>  <r_i_glide_ecoul>  (208) 
-3.17495

>  <r_i_glide_erotb>  (208) 
0

>  <r_i_glide_esite>  (208) 
-0.300814

>  <r_i_glide_emodel>  (208) 
-28.7864

>  <r_i_glide_energy>  (208) 
-22.4876

>  <r_i_glide_einternal>  (208) 
0

>  <r_i_glide_intrahb_reward>  (208) 
-0

>  <i_i_glide_confnum>  (208) 
2

>  <i_i_glide_posenum>  (208) 
28

>  <r_i_glide_eff_state_penalty>  (208) 
0

>  <ligand_id>  (208) 
64

>  <original_smiles>  (208) 
Cc1nc2nnnn2nc1Cl

>  <smiles>  (208) 
[H]C([H])([H])c1nc2nnnn2nc1Cl

$$$$
64:0:1
     RDKit          3D

 14 15  0  0  1  0  0  0  0  0999 V2000
    4.5308   -6.4802    0.7037 C   0  0  0  0  0  0  0  0  0  0  0  0
    3.3178   -7.1906    1.2817 C   0  0  0  0  0  0  0  0  0  0  0  0
    2.1808   -6.4451    1.2556 N   0  0  0  0  0  0  0  0  0  0  0  0
    1.0906   -7.0844    1.7561 C   0  0  0  0  0  0  0  0  0  0  0  0
   -0.1681   -6.6822    1.8896 N   0  0  0  0  0  0  0  0  0  0  0  0
   -0.8192   -7.7532    2.4795 N   0  0  0  0  0  0  0  0  0  0  0  0
   -0.0353   -8.7658    2.7063 N   0  0  0  0  0  0  0  0  0  0  0  0
    1.1862   -8.3860    2.2534 N   0  0  0  0  0  0  0  0  0  0  0  0
    2.2832   -9.1407    2.2943 N   0  0  0  0  0  0  0  0  0  0  0  0
    3.3750   -8.5198    1.7906 C   0  0  0  0  0  0  0  0  0  0  0  0
    4.8599   -9.4029    1.8022 Cl  0  0  0  0  0  0  0  0  0  0  0  0
    5.4432   -7.0732    0.7296 H   0  0  0  0  0  0  0  0  0  0  0  0
    4.7188   -5.5608    1.2587 H   0  0  0  0  0  0  0  0  0  0  0  0
    4.3413   -6.2104   -0.3358 H   0  0  0  0  0  0  0  0  0  0  0  0
  1  2  1  0
  1 12  1  0
  1 13  1  0
  1 14  1  0
  2 10  1  0
  2  3  2  0
  3  4  1  0
  4  8  1  0
  4  5  2  0
  5  6  1  0
  6  7  2  0
  7  8  1  0
  8  9  1  0
  9 10  2  0
 10 11  1  0
M  END
>  <i_m_ct_stereo_status>  (209) 
1

>  <s_m_source_file>  (209) 
/var/tmp/pbs.5076255.sched01/tmpinim70aj/80j3ziidn5.sdf

>  <i_m_source_file_index>  (209) 
5

>  <i_lp_mmshare_version>  (209) 
48012

>  <i_f3d_flags>  (209) 
0

>  <s_epik_input>  (209) 
W0NIM11jKG4xKWMoQ2wpbm4oYzEyKW5ubjI=

>  <s_epik_cmdline>  (209) 
J2VwaWtfcHl0aG9uJywgJy1waHQnLCAnMi4wJywgJy1waCcsICc3LjAnLCAnLXRuJywgJzgnLCAnLW1hJywgJzIwMCcsICctaW1hZScsICc8aW5maWxlLm1hZT4nLCAnLW9tYWUnLCAnPG91dGZpbGUubWFlPic=

>  <r_lp_tautomer_probability>  (209) 
1

>  <r_epik_Ionization_Penalty>  (209) 
2.32069e-13

>  <r_epik_Ionization_Penalty_Charging>  (209) 
0

>  <r_epik_Ionization_Penalty_Neutral>  (209) 
2.32069e-13

>  <r_epik_State_Penalty>  (209) 
-0

>  <r_epik_Charging_Adjusted_Penalty>  (209) 
0

>  <i_epik_Tot_Q>  (209) 
0

>  <i_epik_Tot_abs_Q>  (209) 
0

>  <s_lp_Force_Field>  (209) 
OPLS3e

>  <r_lp_Energy>  (209) 
16.2596

>  <b_lp_Chiralities_Consistent>  (209) 
1

>  <s_lp_Variant>  (209) 
64:0-1

>  <s_i_glide_gridfile>  (209) 
pfpi4k_grid

>  <i_i_glide_lignum>  (209) 
5

>  <i_i_glide_rotatable_bonds>  (209) 
0

>  <r_i_docking_score>  (209) 
-3.86285

>  <r_i_glide_ligand_efficiency>  (209) 
-0.351168

>  <r_i_glide_ligand_efficiency_sa>  (209) 
-0.780992

>  <r_i_glide_ligand_efficiency_ln>  (209) 
-1.13684

>  <r_i_glide_gscore>  (209) 
-3.86285

>  <r_i_glide_lipo>  (209) 
-0.195218

>  <r_i_glide_hbond>  (209) 
0

>  <r_i_glide_metal>  (209) 
-0

>  <r_i_glide_rewards>  (209) 
-2.24619

>  <r_i_glide_evdw>  (209) 
-16.8789

>  <r_i_glide_ecoul>  (209) 
-1.9216

>  <r_i_glide_erotb>  (209) 
0

>  <r_i_glide_esite>  (209) 
-0.289264

>  <r_i_glide_emodel>  (209) 
-24.7953

>  <r_i_glide_energy>  (209) 
-18.8005

>  <r_i_glide_einternal>  (209) 
0

>  <r_i_glide_intrahb_reward>  (209) 
-0

>  <i_i_glide_confnum>  (209) 
2

>  <i_i_glide_posenum>  (209) 
24

>  <r_i_glide_eff_state_penalty>  (209) 
0

>  <ligand_id>  (209) 
64

>  <original_smiles>  (209) 
Cc1nc2nnnn2nc1Cl

>  <smiles>  (209) 
[H]C([H])([H])c1nc2nnnn2nc1Cl

$$$$
64:0:2
     RDKit          3D

 14 15  0  0  1  0  0  0  0  0999 V2000
    0.3118    1.7421    1.9369 C   0  0  0  0  0  0  0  0  0  0  0  0
    0.3113    0.5278    2.8481 C   0  0  0  0  0  0  0  0  0  0  0  0
   -0.7677    0.4586    3.6735 N   0  0  0  0  0  0  0  0  0  0  0  0
   -0.7737   -0.6334    4.4830 C   0  0  0  0  0  0  0  0  0  0  0  0
   -1.6473   -1.0475    5.3945 N   0  0  0  0  0  0  0  0  0  0  0  0
   -1.1117   -2.2219    5.8941 N   0  0  0  0  0  0  0  0  0  0  0  0
    0.0144   -2.5477    5.3378 N   0  0  0  0  0  0  0  0  0  0  0  0
    0.2652   -1.5676    4.4352 N   0  0  0  0  0  0  0  0  0  0  0  0
    1.3338   -1.5262    3.6439 N   0  0  0  0  0  0  0  0  0  0  0  0
    1.3522   -0.4460    2.8303 C   0  0  0  0  0  0  0  0  0  0  0  0
    2.7107   -0.2910    1.7735 Cl  0  0  0  0  0  0  0  0  0  0  0  0
    1.1805    1.8030    1.2844 H   0  0  0  0  0  0  0  0  0  0  0  0
    0.2831    2.6524    2.5355 H   0  0  0  0  0  0  0  0  0  0  0  0
   -0.5745    1.7297    1.3024 H   0  0  0  0  0  0  0  0  0  0  0  0
  1  2  1  0
  1 12  1  0
  1 13  1  0
  1 14  1  0
  2 10  1  0
  2  3  2  0
  3  4  1  0
  4  8  1  0
  4  5  2  0
  5  6  1  0
  6  7  2  0
  7  8  1  0
  8  9  1  0
  9 10  2  0
 10 11  1  0
M  END
>  <i_m_ct_stereo_status>  (210) 
1

>  <s_m_source_file>  (210) 
/var/tmp/pbs.5076255.sched01/tmpinim70aj/80j3ziidn5.sdf

>  <i_m_source_file_index>  (210) 
5

>  <i_lp_mmshare_version>  (210) 
48012

>  <i_f3d_flags>  (210) 
0

>  <s_epik_input>  (210) 
W0NIM11jKG4xKWMoQ2wpbm4oYzEyKW5ubjI=

>  <s_epik_cmdline>  (210) 
J2VwaWtfcHl0aG9uJywgJy1waHQnLCAnMi4wJywgJy1waCcsICc3LjAnLCAnLXRuJywgJzgnLCAnLW1hJywgJzIwMCcsICctaW1hZScsICc8aW5maWxlLm1hZT4nLCAnLW9tYWUnLCAnPG91dGZpbGUubWFlPic=

>  <r_lp_tautomer_probability>  (210) 
1

>  <r_epik_Ionization_Penalty>  (210) 
2.32069e-13

>  <r_epik_Ionization_Penalty_Charging>  (210) 
0

>  <r_epik_Ionization_Penalty_Neutral>  (210) 
2.32069e-13

>  <r_epik_State_Penalty>  (210) 
-0

>  <r_epik_Charging_Adjusted_Penalty>  (210) 
0

>  <i_epik_Tot_Q>  (210) 
0

>  <i_epik_Tot_abs_Q>  (210) 
0

>  <s_lp_Force_Field>  (210) 
OPLS3e

>  <r_lp_Energy>  (210) 
16.2596

>  <b_lp_Chiralities_Consistent>  (210) 
1

>  <s_lp_Variant>  (210) 
64:0-1

>  <s_i_glide_gridfile>  (210) 
pfpi4k_grid

>  <i_i_glide_lignum>  (210) 
5

>  <i_i_glide_rotatable_bonds>  (210) 
0

>  <r_i_docking_score>  (210) 
-3.67891

>  <r_i_glide_ligand_efficiency>  (210) 
-0.334446

>  <r_i_glide_ligand_efficiency_sa>  (210) 
-0.743802

>  <r_i_glide_ligand_efficiency_ln>  (210) 
-1.0827

>  <r_i_glide_gscore>  (210) 
-3.67891

>  <r_i_glide_lipo>  (210) 
0

>  <r_i_glide_hbond>  (210) 
0

>  <r_i_glide_metal>  (210) 
-0

>  <r_i_glide_rewards>  (210) 
-2.24619

>  <r_i_glide_evdw>  (210) 
-15.1829

>  <r_i_glide_ecoul>  (210) 
-3.56007

>  <r_i_glide_erotb>  (210) 
0

>  <r_i_glide_esite>  (210) 
-0.139571

>  <r_i_glide_emodel>  (210) 
-24.452

>  <r_i_glide_energy>  (210) 
-18.7429

>  <r_i_glide_einternal>  (210) 
0

>  <r_i_glide_intrahb_reward>  (210) 
-0

>  <i_i_glide_confnum>  (210) 
2

>  <i_i_glide_posenum>  (210) 
1

>  <r_i_glide_eff_state_penalty>  (210) 
0

>  <ligand_id>  (210) 
64

>  <original_smiles>  (210) 
Cc1nc2nnnn2nc1Cl

>  <smiles>  (210) 
[H]C([H])([H])c1nc2nnnn2nc1Cl

$$$$
65:0:0
     RDKit          3D

 37 39  0  0  1  0  0  0  0  0999 V2000
   -0.1594    1.5027    2.0432 C   0  0  0  0  0  0  0  0  0  0  0  0
    0.4168    0.6065    3.0892 C   0  0  0  0  0  0  0  0  0  0  0  0
   -0.3253    0.1451    4.0648 N   0  0  0  0  0  0  0  0  0  0  0  0
    0.5407   -0.6221    4.8548 O   0  0  0  0  0  0  0  0  0  0  0  0
    1.8344   -0.6006    4.3215 N   0  0  0  0  0  0  0  0  0  0  0  0
    1.7451    0.1090    3.2194 C   0  0  0  0  0  0  0  0  0  0  0  0
    2.9235    0.2889    2.3071 C   0  0  0  0  0  0  0  0  0  0  0  0
    3.3737   -0.9590    1.6760 N   0  0  0  0  0  0  0  0  0  0  0  0
    2.5236   -2.1441    1.5682 C   0  0  0  0  0  0  0  0  0  0  0  0
    3.3996   -3.2346    0.9558 C   0  0  0  0  0  0  0  0  0  0  0  0
    4.6332   -2.4956    0.3936 C   0  0  1  0  0  0  0  0  0  0  0  0
    4.6773   -2.4159   -1.0785 N   0  0  0  0  0  0  0  0  0  0  0  0
    3.5315   -1.7272   -1.6900 C   0  0  0  0  0  0  0  0  0  0  0  0
    3.6369   -1.6384   -3.2177 C   0  0  0  0  0  0  0  0  0  0  0  0
    3.8278   -2.9394   -3.7741 O   0  0  0  0  0  0  0  0  0  0  0  0
    4.9741   -3.6045   -3.2498 C   0  0  0  0  0  0  0  0  0  0  0  0
    4.8940   -3.7144   -1.7130 C   0  0  0  0  0  0  0  0  0  0  0  0
    4.5473   -1.1227    1.0636 C   0  0  0  0  0  0  0  0  0  0  0  0
    5.4528   -0.2908    1.0094 O   0  0  0  0  0  0  0  0  0  0  0  0
    0.5511    1.7131    1.2475 H   0  0  0  0  0  0  0  0  0  0  0  0
   -0.4578    2.4652    2.4600 H   0  0  0  0  0  0  0  0  0  0  0  0
   -1.0387    1.0611    1.5758 H   0  0  0  0  0  0  0  0  0  0  0  0
    2.6960    1.0065    1.5141 H   0  0  0  0  0  0  0  0  0  0  0  0
    3.7590    0.7278    2.8597 H   0  0  0  0  0  0  0  0  0  0  0  0
    2.1071   -2.4993    2.5167 H   0  0  0  0  0  0  0  0  0  0  0  0
    1.7038   -1.9047    0.8954 H   0  0  0  0  0  0  0  0  0  0  0  0
    3.7157   -3.9295    1.7306 H   0  0  0  0  0  0  0  0  0  0  0  0
    2.8248   -3.8100    0.2187 H   0  0  0  0  0  0  0  0  0  0  0  0
    5.5473   -2.9748    0.7535 H   0  0  0  0  0  0  0  0  0  0  0  0
    2.6108   -2.2673   -1.4512 H   0  0  0  0  0  0  0  0  0  0  0  0
    3.4332   -0.7057   -1.3130 H   0  0  0  0  0  0  0  0  0  0  0  0
    2.7168   -1.2044   -3.6093 H   0  0  0  0  0  0  0  0  0  0  0  0
    4.4590   -0.9776   -3.5012 H   0  0  0  0  0  0  0  0  0  0  0  0
    5.0232   -4.6014   -3.6866 H   0  0  0  0  0  0  0  0  0  0  0  0
    5.8799   -3.0655   -3.5249 H   0  0  0  0  0  0  0  0  0  0  0  0
    5.8117   -4.1710   -1.3357 H   0  0  0  0  0  0  0  0  0  0  0  0
    4.0840   -4.4012   -1.4643 H   0  0  0  0  0  0  0  0  0  0  0  0
  1  2  1  0
  1 20  1  0
  1 21  1  0
  1 22  1  0
  2  6  1  0
  2  3  2  0
  3  4  1  0
  4  5  1  0
  5  6  2  0
  6  7  1  0
  7  8  1  0
  7 23  1  0
  7 24  1  0
  8 18  1  0
  8  9  1  0
  9 10  1  0
  9 25  1  0
  9 26  1  0
 10 11  1  0
 10 27  1  0
 10 28  1  0
 11 12  1  0
 11 18  1  0
 11 29  1  1
 12 17  1  0
 12 13  1  0
 13 14  1  0
 13 30  1  0
 13 31  1  0
 14 15  1  0
 14 32  1  0
 14 33  1  0
 15 16  1  0
 16 17  1  0
 16 34  1  0
 16 35  1  0
 17 36  1  0
 17 37  1  0
 18 19  2  0
M  END
>  <i_m_ct_stereo_status>  (211) 
1

>  <s_m_source_file>  (211) 
/var/tmp/pbs.5076255.sched01/tmpinim70aj/80j3ziidn5.sdf

>  <i_m_source_file_index>  (211) 
6

>  <i_lp_mmshare_version>  (211) 
48012

>  <i_f3d_flags>  (211) 
0

>  <s_epik_input>  (211) 
W0NIM11jMW5vbmMxW0NIMl1OMltDSDJdW0NIMl1bQ0BIXShDMj1PKU4zW0NIMl1bQ0gyXU9bQ0gyXVtDSDJdMw==

>  <s_epik_cmdline>  (211) 
J2VwaWtfcHl0aG9uJywgJy1waHQnLCAnMi4wJywgJy1waCcsICc3LjAnLCAnLXRuJywgJzgnLCAnLW1hJywgJzIwMCcsICctaW1hZScsICc8aW5maWxlLm1hZT4nLCAnLW9tYWUnLCAnPG91dGZpbGUubWFlPic=

>  <r_lp_tautomer_probability>  (211) 
1

>  <r_epik_Ionization_Penalty>  (211) 
8.28275e-05

>  <r_epik_Ionization_Penalty_Charging>  (211) 
0

>  <r_epik_Ionization_Penalty_Neutral>  (211) 
8.28275e-05

>  <r_epik_State_Penalty>  (211) 
-0

>  <r_epik_Charging_Adjusted_Penalty>  (211) 
0

>  <i_epik_Tot_Q>  (211) 
0

>  <i_epik_Tot_abs_Q>  (211) 
0

>  <s_lp_Force_Field>  (211) 
OPLS3e

>  <r_lp_Energy>  (211) 
6.74385

>  <b_lp_Chiralities_Consistent>  (211) 
1

>  <s_lp_Variant>  (211) 
65:0-1

>  <s_i_glide_gridfile>  (211) 
pfpi4k_grid

>  <i_i_glide_lignum>  (211) 
6

>  <i_i_glide_rotatable_bonds>  (211) 
3

>  <r_i_docking_score>  (211) 
-3.02345

>  <r_i_glide_ligand_efficiency>  (211) 
-0.159129

>  <r_i_glide_ligand_efficiency_sa>  (211) 
-0.42462

>  <r_i_glide_ligand_efficiency_ln>  (211) 
-0.76651

>  <r_i_glide_gscore>  (211) 
-3.02345

>  <r_i_glide_lipo>  (211) 
-0.265866

>  <r_i_glide_hbond>  (211) 
-0.0904678

>  <r_i_glide_metal>  (211) 
-0

>  <r_i_glide_rewards>  (211) 
-1.65237

>  <r_i_glide_evdw>  (211) 
-24.4959

>  <r_i_glide_ecoul>  (211) 
-3.32895

>  <r_i_glide_erotb>  (211) 
0.753511

>  <r_i_glide_esite>  (211) 
-0.0441182

>  <r_i_glide_emodel>  (211) 
-30.8422

>  <r_i_glide_energy>  (211) 
-27.8249

>  <r_i_glide_einternal>  (211) 
5.47468

>  <r_i_glide_intrahb_reward>  (211) 
-0

>  <i_i_glide_confnum>  (211) 
1

>  <i_i_glide_posenum>  (211) 
30

>  <r_i_glide_eff_state_penalty>  (211) 
0

>  <ligand_id>  (211) 
65

>  <original_smiles>  (211) 
Cc1nonc1CN1CCC(N2CCOCC2)C1=O

>  <smiles>  (211) 
[H]C([H])([H])c1nonc1C([H])([H])N1C(=O)C([H])(N2C([H])([H])C([H])([H])OC([H])([H])C2([H])[H])C([H])([H])C1([H])[H]

$$$$
65:0:1
     RDKit          3D

 37 39  0  0  1  0  0  0  0  0999 V2000
    2.2561    2.1945    4.6933 C   0  0  0  0  0  0  0  0  0  0  0  0
    3.4107    1.2676    4.6266 C   0  0  0  0  0  0  0  0  0  0  0  0
    4.2198    1.1077    5.6374 N   0  0  0  0  0  0  0  0  0  0  0  0
    5.1713    0.1862    5.2092 O   0  0  0  0  0  0  0  0  0  0  0  0
    4.9027   -0.2155    3.9073 N   0  0  0  0  0  0  0  0  0  0  0  0
    3.8353    0.4423    3.5397 C   0  0  0  0  0  0  0  0  0  0  0  0
    3.2227    0.3296    2.1744 C   0  0  0  0  0  0  0  0  0  0  0  0
    3.5993   -0.8975    1.4659 N   0  0  0  0  0  0  0  0  0  0  0  0
    2.7375   -2.0620    1.5100 C   0  0  0  0  0  0  0  0  0  0  0  0
    3.5593   -3.2018    0.8961 C   0  0  0  0  0  0  0  0  0  0  0  0
    4.7592   -2.5060    0.2166 C   0  0  1  0  0  0  0  0  0  0  0  0
    4.7153   -2.4671   -1.2604 N   0  0  0  0  0  0  0  0  0  0  0  0
    3.5411   -1.7748   -1.8309 C   0  0  0  0  0  0  0  0  0  0  0  0
    3.5684   -1.7250   -3.3596 C   0  0  0  0  0  0  0  0  0  0  0  0
    3.7190   -3.0428   -3.8896 O   0  0  0  0  0  0  0  0  0  0  0  0
    4.8860   -3.7097   -3.4094 C   0  0  0  0  0  0  0  0  0  0  0  0
    4.8892   -3.7891   -1.8733 C   0  0  0  0  0  0  0  0  0  0  0  0
    4.7477   -1.1060    0.8188 C   0  0  0  0  0  0  0  0  0  0  0  0
    5.6787   -0.3183    0.7025 O   0  0  0  0  0  0  0  0  0  0  0  0
    1.6554    2.1835    3.7821 H   0  0  0  0  0  0  0  0  0  0  0  0
    2.5889    3.2236    4.8498 H   0  0  0  0  0  0  0  0  0  0  0  0
    1.5951    1.9362    5.5248 H   0  0  0  0  0  0  0  0  0  0  0  0
    2.1315    0.3842    2.2243 H   0  0  0  0  0  0  0  0  0  0  0  0
    3.5001    1.1785    1.5466 H   0  0  0  0  0  0  0  0  0  0  0  0
    2.4175   -2.3031    2.5295 H   0  0  0  0  0  0  0  0  0  0  0  0
    1.8556   -1.8735    0.8961 H   0  0  0  0  0  0  0  0  0  0  0  0
    3.9228   -3.8785    1.6704 H   0  0  0  0  0  0  0  0  0  0  0  0
    2.9200   -3.7965    0.2367 H   0  0  0  0  0  0  0  0  0  0  0  0
    5.6879   -2.9779    0.5300 H   0  0  0  0  0  0  0  0  0  0  0  0
    2.6243   -2.2811   -1.5253 H   0  0  0  0  0  0  0  0  0  0  0  0
    3.4901   -0.7428   -1.4880 H   0  0  0  0  0  0  0  0  0  0  0  0
    2.6306   -1.2900   -3.7008 H   0  0  0  0  0  0  0  0  0  0  0  0
    4.3797   -1.0781   -3.7022 H   0  0  0  0  0  0  0  0  0  0  0  0
    4.9063   -4.7095   -3.8287 H   0  0  0  0  0  0  0  0  0  0  0  0
    5.7782   -3.1815   -3.7436 H   0  0  0  0  0  0  0  0  0  0  0  0
    5.8285   -4.2305   -1.5350 H   0  0  0  0  0  0  0  0  0  0  0  0
    4.0982   -4.4582   -1.5342 H   0  0  0  0  0  0  0  0  0  0  0  0
  1  2  1  0
  1 20  1  0
  1 21  1  0
  1 22  1  0
  2  6  1  0
  2  3  2  0
  3  4  1  0
  4  5  1  0
  5  6  2  0
  6  7  1  0
  7  8  1  0
  7 23  1  0
  7 24  1  0
  8 18  1  0
  8  9  1  0
  9 10  1  0
  9 25  1  0
  9 26  1  0
 10 11  1  0
 10 27  1  0
 10 28  1  0
 11 12  1  0
 11 18  1  0
 11 29  1  6
 12 17  1  0
 12 13  1  0
 13 14  1  0
 13 30  1  0
 13 31  1  0
 14 15  1  0
 14 32  1  0
 14 33  1  0
 15 16  1  0
 16 17  1  0
 16 34  1  0
 16 35  1  0
 17 36  1  0
 17 37  1  0
 18 19  2  0
M  END
>  <i_m_ct_stereo_status>  (212) 
1

>  <s_m_source_file>  (212) 
/var/tmp/pbs.5076255.sched01/tmpinim70aj/80j3ziidn5.sdf

>  <i_m_source_file_index>  (212) 
6

>  <i_lp_mmshare_version>  (212) 
48012

>  <i_f3d_flags>  (212) 
0

>  <s_epik_input>  (212) 
W0NIM11jMW5vbmMxW0NIMl1OMltDSDJdW0NIMl1bQ0BIXShDMj1PKU4zW0NIMl1bQ0gyXU9bQ0gyXVtDSDJdMw==

>  <s_epik_cmdline>  (212) 
J2VwaWtfcHl0aG9uJywgJy1waHQnLCAnMi4wJywgJy1waCcsICc3LjAnLCAnLXRuJywgJzgnLCAnLW1hJywgJzIwMCcsICctaW1hZScsICc8aW5maWxlLm1hZT4nLCAnLW9tYWUnLCAnPG91dGZpbGUubWFlPic=

>  <r_lp_tautomer_probability>  (212) 
1

>  <r_epik_Ionization_Penalty>  (212) 
8.28275e-05

>  <r_epik_Ionization_Penalty_Charging>  (212) 
0

>  <r_epik_Ionization_Penalty_Neutral>  (212) 
8.28275e-05

>  <r_epik_State_Penalty>  (212) 
-0

>  <r_epik_Charging_Adjusted_Penalty>  (212) 
0

>  <i_epik_Tot_Q>  (212) 
0

>  <i_epik_Tot_abs_Q>  (212) 
0

>  <s_lp_Force_Field>  (212) 
OPLS3e

>  <r_lp_Energy>  (212) 
6.74385

>  <b_lp_Chiralities_Consistent>  (212) 
1

>  <s_lp_Variant>  (212) 
65:0-1

>  <s_i_glide_gridfile>  (212) 
pfpi4k_grid

>  <i_i_glide_lignum>  (212) 
6

>  <i_i_glide_rotatable_bonds>  (212) 
3

>  <r_i_docking_score>  (212) 
-2.89498

>  <r_i_glide_ligand_efficiency>  (212) 
-0.152368

>  <r_i_glide_ligand_efficiency_sa>  (212) 
-0.406578

>  <r_i_glide_ligand_efficiency_ln>  (212) 
-0.733941

>  <r_i_glide_gscore>  (212) 
-2.89498

>  <r_i_glide_lipo>  (212) 
-0.306962

>  <r_i_glide_hbond>  (212) 
-0.0525524

>  <r_i_glide_metal>  (212) 
-0

>  <r_i_glide_rewards>  (212) 
-1.67706

>  <r_i_glide_evdw>  (212) 
-22.3208

>  <r_i_glide_ecoul>  (212) 
-3.22481

>  <r_i_glide_erotb>  (212) 
0.753511

>  <r_i_glide_esite>  (212) 
-0.0121614

>  <r_i_glide_emodel>  (212) 
-29.2094

>  <r_i_glide_energy>  (212) 
-25.5456

>  <r_i_glide_einternal>  (212) 
3.57647

>  <r_i_glide_intrahb_reward>  (212) 
-0

>  <i_i_glide_confnum>  (212) 
1

>  <i_i_glide_posenum>  (212) 
16

>  <r_i_glide_eff_state_penalty>  (212) 
0

>  <ligand_id>  (212) 
65

>  <original_smiles>  (212) 
Cc1nonc1CN1CCC(N2CCOCC2)C1=O

>  <smiles>  (212) 
[H]C([H])([H])c1nonc1C([H])([H])N1C(=O)C([H])(N2C([H])([H])C([H])([H])OC([H])([H])C2([H])[H])C([H])([H])C1([H])[H]

$$$$
65:0:2
     RDKit          3D

 37 39  0  0  1  0  0  0  0  0999 V2000
   -1.2265   -9.2502    2.8381 C   0  0  0  0  0  0  0  0  0  0  0  0
   -0.2168   -8.2674    2.3404 C   0  0  0  0  0  0  0  0  0  0  0  0
   -0.5921   -7.0358    2.0325 N   0  0  0  0  0  0  0  0  0  0  0  0
    0.5695   -6.4160    1.5776 O   0  0  0  0  0  0  0  0  0  0  0  0
    1.6596   -7.2884    1.6200 N   0  0  0  0  0  0  0  0  0  0  0  0
    1.1712   -8.4129    2.1022 C   0  0  0  0  0  0  0  0  0  0  0  0
    2.0640   -9.6140    2.2878 C   0  0  0  0  0  0  0  0  0  0  0  0
    2.5785   -9.7223    3.6443 N   0  0  0  0  0  0  0  0  0  0  0  0
    3.9434   -9.3349    3.9755 C   0  0  0  0  0  0  0  0  0  0  0  0
    4.1199   -9.7259    5.4505 C   0  0  0  0  0  0  0  0  0  0  0  0
    2.6960  -10.0513    5.9766 C   0  0  1  0  0  0  0  0  0  0  0  0
    2.1245   -9.0454    6.8936 N   0  0  0  0  0  0  0  0  0  0  0  0
    2.9104   -8.8936    8.1249 C   0  0  0  0  0  0  0  0  0  0  0  0
    2.3453   -7.7846    9.0466 C   0  0  0  0  0  0  0  0  0  0  0  0
    0.9767   -8.0359    9.3714 O   0  0  0  0  0  0  0  0  0  0  0  0
    0.1753   -8.1844    8.1998 C   0  0  0  0  0  0  0  0  0  0  0  0
    0.7226   -9.2900    7.2669 C   0  0  0  0  0  0  0  0  0  0  0  0
    1.9053  -10.2206    4.6824 C   0  0  0  0  0  0  0  0  0  0  0  0
    0.8060  -10.7743    4.6334 O   0  0  0  0  0  0  0  0  0  0  0  0
   -0.7964  -10.2319    3.0318 H   0  0  0  0  0  0  0  0  0  0  0  0
   -2.0505   -9.3640    2.1346 H   0  0  0  0  0  0  0  0  0  0  0  0
   -1.6786   -8.9235    3.7706 H   0  0  0  0  0  0  0  0  0  0  0  0
    1.5178  -10.5318    2.0751 H   0  0  0  0  0  0  0  0  0  0  0  0
    2.8941   -9.6007    1.5824 H   0  0  0  0  0  0  0  0  0  0  0  0
    4.6752   -9.8313    3.3328 H   0  0  0  0  0  0  0  0  0  0  0  0
    4.0670   -8.2591    3.8505 H   0  0  0  0  0  0  0  0  0  0  0  0
    4.7283  -10.6329    5.5221 H   0  0  0  0  0  0  0  0  0  0  0  0
    4.6484   -8.9298    5.9882 H   0  0  0  0  0  0  0  0  0  0  0  0
    2.6984  -11.0152    6.4839 H   0  0  0  0  0  0  0  0  0  0  0  0
    2.9280   -9.8409    8.6758 H   0  0  0  0  0  0  0  0  0  0  0  0
    3.9503   -8.6298    7.9121 H   0  0  0  0  0  0  0  0  0  0  0  0
    2.9298   -7.7152    9.9704 H   0  0  0  0  0  0  0  0  0  0  0  0
    2.4271   -6.8196    8.5406 H   0  0  0  0  0  0  0  0  0  0  0  0
   -0.8484   -8.4107    8.5033 H   0  0  0  0  0  0  0  0  0  0  0  0
    0.1420   -7.2276    7.6618 H   0  0  0  0  0  0  0  0  0  0  0  0
    0.0829   -9.2884    6.3840 H   0  0  0  0  0  0  0  0  0  0  0  0
    0.6128  -10.2728    7.7483 H   0  0  0  0  0  0  0  0  0  0  0  0
  1  2  1  0
  1 20  1  0
  1 21  1  0
  1 22  1  0
  2  6  1  0
  2  3  2  0
  3  4  1  0
  4  5  1  0
  5  6  2  0
  6  7  1  0
  7  8  1  0
  7 23  1  0
  7 24  1  0
  8 18  1  0
  8  9  1  0
  9 10  1  0
  9 25  1  0
  9 26  1  0
 10 11  1  0
 10 27  1  0
 10 28  1  0
 11 12  1  0
 11 18  1  0
 11 29  1  1
 12 17  1  0
 12 13  1  0
 13 14  1  0
 13 30  1  0
 13 31  1  0
 14 15  1  0
 14 32  1  0
 14 33  1  0
 15 16  1  0
 16 17  1  0
 16 34  1  0
 16 35  1  0
 17 36  1  0
 17 37  1  0
 18 19  2  0
M  END
>  <i_m_ct_stereo_status>  (213) 
1

>  <s_m_source_file>  (213) 
/var/tmp/pbs.5076255.sched01/tmpinim70aj/80j3ziidn5.sdf

>  <i_m_source_file_index>  (213) 
6

>  <i_lp_mmshare_version>  (213) 
48012

>  <i_f3d_flags>  (213) 
0

>  <s_epik_input>  (213) 
W0NIM11jMW5vbmMxW0NIMl1OMltDSDJdW0NIMl1bQ0BIXShDMj1PKU4zW0NIMl1bQ0gyXU9bQ0gyXVtDSDJdMw==

>  <s_epik_cmdline>  (213) 
J2VwaWtfcHl0aG9uJywgJy1waHQnLCAnMi4wJywgJy1waCcsICc3LjAnLCAnLXRuJywgJzgnLCAnLW1hJywgJzIwMCcsICctaW1hZScsICc8aW5maWxlLm1hZT4nLCAnLW9tYWUnLCAnPG91dGZpbGUubWFlPic=

>  <r_lp_tautomer_probability>  (213) 
1

>  <r_epik_Ionization_Penalty>  (213) 
8.28275e-05

>  <r_epik_Ionization_Penalty_Charging>  (213) 
0

>  <r_epik_Ionization_Penalty_Neutral>  (213) 
8.28275e-05

>  <r_epik_State_Penalty>  (213) 
-0

>  <r_epik_Charging_Adjusted_Penalty>  (213) 
0

>  <i_epik_Tot_Q>  (213) 
0

>  <i_epik_Tot_abs_Q>  (213) 
0

>  <s_lp_Force_Field>  (213) 
OPLS3e

>  <r_lp_Energy>  (213) 
6.74385

>  <b_lp_Chiralities_Consistent>  (213) 
1

>  <s_lp_Variant>  (213) 
65:0-1

>  <s_i_glide_gridfile>  (213) 
pfpi4k_grid

>  <i_i_glide_lignum>  (213) 
6

>  <i_i_glide_rotatable_bonds>  (213) 
3

>  <r_i_docking_score>  (213) 
-2.61825

>  <r_i_glide_ligand_efficiency>  (213) 
-0.137803

>  <r_i_glide_ligand_efficiency_sa>  (213) 
-0.367713

>  <r_i_glide_ligand_efficiency_ln>  (213) 
-0.663783

>  <r_i_glide_gscore>  (213) 
-2.61825

>  <r_i_glide_lipo>  (213) 
-0.077249

>  <r_i_glide_hbond>  (213) 
0

>  <r_i_glide_metal>  (213) 
-0

>  <r_i_glide_rewards>  (213) 
-1.59343

>  <r_i_glide_evdw>  (213) 
-19.3166

>  <r_i_glide_ecoul>  (213) 
-3.08771

>  <r_i_glide_erotb>  (213) 
0.753511

>  <r_i_glide_esite>  (213) 
-0.272097

>  <r_i_glide_emodel>  (213) 
-25.8878

>  <r_i_glide_energy>  (213) 
-22.4043

>  <r_i_glide_einternal>  (213) 
2.52797

>  <r_i_glide_intrahb_reward>  (213) 
-0

>  <i_i_glide_confnum>  (213) 
4

>  <i_i_glide_posenum>  (213) 
32

>  <r_i_glide_eff_state_penalty>  (213) 
0

>  <ligand_id>  (213) 
65

>  <original_smiles>  (213) 
Cc1nonc1CN1CCC(N2CCOCC2)C1=O

>  <smiles>  (213) 
[H]C([H])([H])c1nonc1C([H])([H])N1C(=O)C([H])(N2C([H])([H])C([H])([H])OC([H])([H])C2([H])[H])C([H])([H])C1([H])[H]

$$$$
67:0:0
     RDKit          3D

 74 79  0  0  1  0  0  0  0  0999 V2000
    2.1481   -7.4518    5.8247 C   0  0  0  0  0  0  0  0  0  0  0  0
    2.0880   -7.2577    4.2959 C   0  0  0  0  0  0  0  0  0  0  0  0
    0.5958   -7.2166    3.8973 C   0  0  0  0  0  0  0  0  0  0  0  0
    2.8342   -5.9632    3.8772 C   0  0  0  0  0  0  0  0  0  0  0  0
    4.2953   -6.4168    3.7336 C   0  0  2  0  0  0  0  0  0  0  0  0
    5.5334   -5.4945    3.4665 C   0  0  2  0  0  0  0  0  0  0  0  0
    5.9049   -4.4024    2.4025 C   0  0  2  0  0  0  0  0  0  0  0  0
    5.0053   -3.4315    1.5675 C   0  0  2  0  0  0  0  0  0  0  0  0
    4.9457   -2.0852    2.3500 C   0  0  0  0  0  0  0  0  0  0  0  0
    3.5826   -3.9488    1.3813 C   0  0  0  0  0  0  0  0  0  0  0  0
    2.7406   -3.1848    0.3496 C   0  0  0  0  0  0  0  0  0  0  0  0
    3.4400   -3.0283   -1.0127 C   0  0  1  0  0  0  0  0  0  0  0  0
    2.6091   -2.2789   -1.9015 O   0  0  0  0  0  0  0  0  0  0  0  0
    4.8683   -2.4119   -0.9040 C   0  0  0  0  0  0  0  0  0  0  0  0
    5.5582   -2.5101   -2.2933 C   0  0  0  0  0  0  0  0  0  0  0  0
    4.8397   -0.9100   -0.5496 C   0  0  0  0  0  0  0  0  0  0  0  0
    5.6628   -3.2396    0.1718 C   0  0  2  0  0  0  0  0  0  0  0  0
    6.1596   -4.5671   -0.4320 C   0  0  0  0  0  0  0  0  0  0  0  0
    6.4766   -5.7667    0.5047 C   0  0  0  0  0  0  0  0  0  0  0  0
    6.9815   -5.3205    1.8431 C   0  0  1  0  0  0  0  0  0  0  0  0
    8.4183   -4.7868    1.6110 C   0  0  0  0  0  0  0  0  0  0  0  0
    6.8387   -6.2576    3.1010 C   0  0  1  0  0  0  0  0  0  0  0  0
    7.9144   -6.1337    4.2131 C   0  0  0  0  0  0  0  0  0  0  0  0
    6.7649   -7.7841    2.8109 C   0  0  0  0  0  0  0  0  0  0  0  0
    5.5522   -8.5161    3.4037 C   0  0  0  0  0  0  0  0  0  0  0  0
    4.2400   -7.7918    3.0795 C   0  0  2  0  0  0  0  0  0  0  0  0
    3.7186   -7.9674    1.6203 C   0  0  0  0  0  0  0  0  0  0  0  0
    2.5390   -8.7602    2.1891 C   0  0  0  0  0  0  0  0  0  0  0  0
    1.6423   -9.4507    1.7170 O   0  0  0  0  0  0  0  0  0  0  0  0
    2.9206   -8.3819    3.6190 C   0  0  2  0  0  0  0  0  0  0  0  0
    1.7054   -6.6053    6.3523 H   0  0  0  0  0  0  0  0  0  0  0  0
    3.1692   -7.5704    6.1879 H   0  0  0  0  0  0  0  0  0  0  0  0
    1.6104   -8.3537    6.1192 H   0  0  0  0  0  0  0  0  0  0  0  0
    0.4470   -7.0132    2.8356 H   0  0  0  0  0  0  0  0  0  0  0  0
    0.0714   -6.4347    4.4472 H   0  0  0  0  0  0  0  0  0  0  0  0
    0.1006   -8.1620    4.1222 H   0  0  0  0  0  0  0  0  0  0  0  0
    2.4090   -5.6726    2.9193 H   0  0  0  0  0  0  0  0  0  0  0  0
    2.7060   -5.1375    4.5848 H   0  0  0  0  0  0  0  0  0  0  0  0
    4.5005   -6.6649    4.7795 H   0  0  0  0  0  0  0  0  0  0  0  0
    5.6900   -4.9690    4.4011 H   0  0  0  0  0  0  0  0  0  0  0  0
    6.5900   -3.6938    2.8362 H   0  0  0  0  0  0  0  0  0  0  0  0
    4.1167   -1.4509    2.0534 H   0  0  0  0  0  0  0  0  0  0  0  0
    5.8584   -1.4985    2.2165 H   0  0  0  0  0  0  0  0  0  0  0  0
    4.8289   -2.2382    3.4270 H   0  0  0  0  0  0  0  0  0  0  0  0
    3.6364   -4.9965    1.1062 H   0  0  0  0  0  0  0  0  0  0  0  0
    3.0969   -3.8470    2.3469 H   0  0  0  0  0  0  0  0  0  0  0  0
    1.8173   -3.7404    0.2094 H   0  0  0  0  0  0  0  0  0  0  0  0
    2.4703   -2.2115    0.7567 H   0  0  0  0  0  0  0  0  0  0  0  0
    3.5198   -4.0221   -1.4492 H   0  0  0  0  0  0  0  0  0  0  0  0
    2.0146   -1.7332   -1.4103 H   0  0  0  0  0  0  0  0  0  0  0  0
    6.6195   -2.2487   -2.2496 H   0  0  0  0  0  0  0  0  0  0  0  0
    5.0822   -1.8457   -3.0148 H   0  0  0  0  0  0  0  0  0  0  0  0
    5.4919   -3.5030   -2.7358 H   0  0  0  0  0  0  0  0  0  0  0  0
    5.7691   -0.5862   -0.0719 H   0  0  0  0  0  0  0  0  0  0  0  0
    4.0151   -0.6571    0.1064 H   0  0  0  0  0  0  0  0  0  0  0  0
    4.7038   -0.2923   -1.4405 H   0  0  0  0  0  0  0  0  0  0  0  0
    6.5891   -2.6942    0.3760 H   0  0  0  0  0  0  0  0  0  0  0  0
    5.4383   -4.9660   -1.1537 H   0  0  0  0  0  0  0  0  0  0  0  0
    7.0444   -4.2447   -0.9750 H   0  0  0  0  0  0  0  0  0  0  0  0
    5.5658   -6.3262    0.6684 H   0  0  0  0  0  0  0  0  0  0  0  0
    7.1918   -6.4499    0.0592 H   0  0  0  0  0  0  0  0  0  0  0  0
    9.0831   -5.6098    1.3513 H   0  0  0  0  0  0  0  0  0  0  0  0
    8.8781   -4.3170    2.4833 H   0  0  0  0  0  0  0  0  0  0  0  0
    8.4722   -4.0727    0.7901 H   0  0  0  0  0  0  0  0  0  0  0  0
    8.8877   -6.4851    3.8690 H   0  0  0  0  0  0  0  0  0  0  0  0
    7.6628   -6.7230    5.0967 H   0  0  0  0  0  0  0  0  0  0  0  0
    8.0583   -5.1168    4.5676 H   0  0  0  0  0  0  0  0  0  0  0  0
    6.7485   -7.9669    1.7413 H   0  0  0  0  0  0  0  0  0  0  0  0
    7.6717   -8.3012    3.1408 H   0  0  0  0  0  0  0  0  0  0  0  0
    5.5229   -9.5244    2.9952 H   0  0  0  0  0  0  0  0  0  0  0  0
    5.6639   -8.6322    4.4816 H   0  0  0  0  0  0  0  0  0  0  0  0
    3.4368   -7.0484    1.1077 H   0  0  0  0  0  0  0  0  0  0  0  0
    4.3742   -8.5588    0.9840 H   0  0  0  0  0  0  0  0  0  0  0  0
    3.0641   -9.2704    4.2367 H   0  0  0  0  0  0  0  0  0  0  0  0
  1  2  1  0
  1 31  1  0
  1 32  1  0
  1 33  1  0
  2 30  1  0
  2  3  1  0
  2  4  1  0
  3 34  1  0
  3 35  1  0
  3 36  1  0
  4  5  1  0
  4 37  1  0
  4 38  1  0
  5 26  1  0
  5  6  1  0
  5 39  1  1
  6 22  1  0
  6  7  1  0
  6 40  1  1
  7 20  1  0
  7  8  1  0
  7 41  1  1
  8 17  1  0
  8  9  1  1
  8 10  1  0
  9 42  1  0
  9 43  1  0
  9 44  1  0
 10 11  1  0
 10 45  1  0
 10 46  1  0
 11 12  1  0
 11 47  1  0
 11 48  1  0
 12 13  1  0
 12 14  1  0
 12 49  1  6
 13 50  1  0
 14 15  1  0
 14 16  1  0
 14 17  1  0
 15 51  1  0
 15 52  1  0
 15 53  1  0
 16 54  1  0
 16 55  1  0
 16 56  1  0
 17 18  1  0
 17 57  1  1
 18 19  1  0
 18 58  1  0
 18 59  1  0
 19 20  1  0
 19 60  1  0
 19 61  1  0
 20 21  1  6
 20 22  1  0
 21 62  1  0
 21 63  1  0
 21 64  1  0
 22 23  1  1
 22 24  1  0
 23 65  1  0
 23 66  1  0
 23 67  1  0
 24 25  1  0
 24 68  1  0
 24 69  1  0
 26 25  1  6
 25 70  1  0
 25 71  1  0
 26 30  1  0
 26 27  1  0
 27 28  1  0
 27 72  1  0
 27 73  1  0
 28 29  2  0
 28 30  1  0
 30 74  1  1
M  END
>  <i_m_ct_stereo_status>  (214) 
1

>  <s_m_source_file>  (214) 
/var/tmp/pbs.5076255.sched01/tmpinim70aj/80j3ziidn5.sdf

>  <i_m_source_file_index>  (214) 
8

>  <i_lp_mmshare_version>  (214) 
48012

>  <i_f3d_flags>  (214) 
0

>  <s_epik_input>  (214) 
W0NIMl0xQyg9TylbQ0BASF0yQyhbQ0gzXSkoW0NIM10pW0NIMl1bQ0BASF0oW0NAXTEyMylbQ0BASF00W0NAQEhdNVtDQEBdNihbQ0gzXSlbQ0BIXShDKFtDSDNdKShbQ0gzXSlbQ0BIXShbT0hdKVtDSDJdW0NIMl02KVtDSDJdW0NIMl1bQ0BdNShbQ0gzXSlbQ0BdNChbQ0gzXSlbQ0gyXVtDSDJdMw==

>  <s_epik_cmdline>  (214) 
J2VwaWtfcHl0aG9uJywgJy1waHQnLCAnMi4wJywgJy1waCcsICc3LjAnLCAnLXRuJywgJzgnLCAnLW1hJywgJzIwMCcsICctaW1hZScsICc8aW5maWxlLm1hZT4nLCAnLW9tYWUnLCAnPG91dGZpbGUubWFlPic=

>  <r_lp_tautomer_probability>  (214) 
1

>  <r_epik_Ionization_Penalty>  (214) 
3.17809e-06

>  <r_epik_Ionization_Penalty_Charging>  (214) 
0

>  <r_epik_Ionization_Penalty_Neutral>  (214) 
3.17809e-06

>  <r_epik_State_Penalty>  (214) 
-0

>  <r_epik_Charging_Adjusted_Penalty>  (214) 
0

>  <i_epik_Tot_Q>  (214) 
0

>  <i_epik_Tot_abs_Q>  (214) 
0

>  <s_lp_Force_Field>  (214) 
OPLS3e

>  <r_lp_Energy>  (214) 
111.695

>  <b_lp_Chiralities_Consistent>  (214) 
1

>  <s_lp_Variant>  (214) 
67:0-1

>  <s_i_glide_gridfile>  (214) 
pfpi4k_grid

>  <i_i_glide_lignum>  (214) 
8

>  <i_i_glide_rotatable_bonds>  (214) 
1

>  <r_i_docking_score>  (214) 
-2.14469

>  <r_i_glide_ligand_efficiency>  (214) 
-0.0714897

>  <r_i_glide_ligand_efficiency_sa>  (214) 
-0.222135

>  <r_i_glide_ligand_efficiency_ln>  (214) 
-0.487297

>  <r_i_glide_gscore>  (214) 
-2.14469

>  <r_i_glide_lipo>  (214) 
-0.464215

>  <r_i_glide_hbond>  (214) 
-0.16

>  <r_i_glide_metal>  (214) 
-0

>  <r_i_glide_rewards>  (214) 
-0.595583

>  <r_i_glide_evdw>  (214) 
-9.47348

>  <r_i_glide_ecoul>  (214) 
-2.95665

>  <r_i_glide_erotb>  (214) 
0

>  <r_i_glide_esite>  (214) 
-0.0077204

>  <r_i_glide_emodel>  (214) 
-12.669

>  <r_i_glide_energy>  (214) 
-12.4301

>  <r_i_glide_einternal>  (214) 
1.00219

>  <r_i_glide_intrahb_reward>  (214) 
-0

>  <i_i_glide_confnum>  (214) 
1

>  <i_i_glide_posenum>  (214) 
6

>  <r_i_glide_eff_state_penalty>  (214) 
0

>  <ligand_id>  (214) 
67

>  <original_smiles>  (214) 
CC1(C)CC2C3C4C5(C)CCC(O)C(C)(C)C5CCC4(C)C3(C)CCC23CC(=O)C13

>  <smiles>  (214) 
[H]OC1([H])C([H])([H])C([H])([H])C2(C([H])([H])[H])C([H])(C([H])([H])C([H])([H])C3(C([H])([H])[H])C2([H])C2([H])C4([H])C([H])([H])C(C([H])([H])[H])(C([H])([H])[H])C5([H])C(=O)C([H])([H])C54C([H])([H])C([H])([H])C23C([H])([H])[H])C1(C([H])([H])[H])C([H])([H])[H]

$$$$
67:0:1
     RDKit          3D

 74 79  0  0  1  0  0  0  0  0999 V2000
    5.7946   -3.3456   -3.2055 C   0  0  0  0  0  0  0  0  0  0  0  0
    4.7305   -3.2589   -2.0808 C   0  0  0  0  0  0  0  0  0  0  0  0
    3.4250   -2.7959   -2.7688 C   0  0  0  0  0  0  0  0  0  0  0  0
    4.5726   -4.6514   -1.4370 C   0  0  0  0  0  0  0  0  0  0  0  0
    5.6025   -4.6824   -0.3124 C   0  0  2  0  0  0  0  0  0  0  0  0
    6.0689   -5.9121    0.5388 C   0  0  2  0  0  0  0  0  0  0  0  0
    5.3704   -6.9696    1.4670 C   0  0  2  0  0  0  0  0  0  0  0  0
    3.8687   -7.4389    1.4868 C   0  0  2  0  0  0  0  0  0  0  0  0
    3.8297   -8.8126    0.7295 C   0  0  0  0  0  0  0  0  0  0  0  0
    2.9040   -6.4716    0.7617 C   0  0  0  0  0  0  0  0  0  0  0  0
    1.3789   -6.7585    0.9229 C   0  0  0  0  0  0  0  0  0  0  0  0
    0.9620   -6.9339    2.4016 C   0  0  1  0  0  0  0  0  0  0  0  0
   -0.4188   -7.2472    2.4250 O   0  0  0  0  0  0  0  0  0  0  0  0
    1.8279   -7.9675    3.1741 C   0  0  0  0  0  0  0  0  0  0  0  0
    1.4529   -7.8957    4.6767 C   0  0  0  0  0  0  0  0  0  0  0  0
    1.5222   -9.4271    2.7184 C   0  0  0  0  0  0  0  0  0  0  0  0
    3.3564   -7.5877    2.9701 C   0  0  2  0  0  0  0  0  0  0  0  0
    3.7392   -6.3443    3.8523 C   0  0  0  0  0  0  0  0  0  0  0  0
    4.9438   -5.5087    3.4165 C   0  0  0  0  0  0  0  0  0  0  0  0
    6.0125   -6.3133    2.6927 C   0  0  1  0  0  0  0  0  0  0  0  0
    6.6923   -7.2537    3.7021 C   0  0  0  0  0  0  0  0  0  0  0  0
    7.0026   -5.5825    1.7070 C   0  0  1  0  0  0  0  0  0  0  0  0
    8.4043   -6.2207    1.5373 C   0  0  0  0  0  0  0  0  0  0  0  0
    7.2004   -4.0932    1.9280 C   0  0  0  0  0  0  0  0  0  0  0  0
    6.9903   -3.0724    0.8442 C   0  0  0  0  0  0  0  0  0  0  0  0
    5.6476   -3.2763    0.2442 C   0  0  2  0  0  0  0  0  0  0  0  0
    4.4399   -2.7662    1.0812 C   0  0  0  0  0  0  0  0  0  0  0  0
    4.1869   -1.6744    0.0040 C   0  0  0  0  0  0  0  0  0  0  0  0
    3.4690   -0.7181   -0.1102 O   0  0  0  0  0  0  0  0  0  0  0  0
    5.2405   -2.3470   -0.9404 C   0  0  2  0  0  0  0  0  0  0  0  0
    5.5241   -4.0814   -3.9696 H   0  0  0  0  0  0  0  0  0  0  0  0
    6.7935   -3.5959   -2.8269 H   0  0  0  0  0  0  0  0  0  0  0  0
    5.8003   -2.3561   -3.6533 H   0  0  0  0  0  0  0  0  0  0  0  0
    2.5809   -2.7943   -2.0761 H   0  0  0  0  0  0  0  0  0  0  0  0
    3.1547   -3.4560   -3.5994 H   0  0  0  0  0  0  0  0  0  0  0  0
    3.5282   -1.7877   -3.1691 H   0  0  0  0  0  0  0  0  0  0  0  0
    3.5526   -4.6587   -1.0155 H   0  0  0  0  0  0  0  0  0  0  0  0
    4.8000   -5.4576   -2.1275 H   0  0  0  0  0  0  0  0  0  0  0  0
    6.4973   -4.5891   -0.8976 H   0  0  0  0  0  0  0  0  0  0  0  0
    6.7144   -6.4597   -0.1305 H   0  0  0  0  0  0  0  0  0  0  0  0
    5.9496   -7.8755    1.2922 H   0  0  0  0  0  0  0  0  0  0  0  0
    2.8125   -9.0986    0.4583 H   0  0  0  0  0  0  0  0  0  0  0  0
    4.2343   -9.6258    1.3428 H   0  0  0  0  0  0  0  0  0  0  0  0
    4.4144   -8.7531   -0.1878 H   0  0  0  0  0  0  0  0  0  0  0  0
    3.0939   -5.4578    1.1108 H   0  0  0  0  0  0  0  0  0  0  0  0
    3.1538   -6.4877   -0.2899 H   0  0  0  0  0  0  0  0  0  0  0  0
    0.8372   -5.9165    0.4675 H   0  0  0  0  0  0  0  0  0  0  0  0
    1.0612   -7.6397    0.3609 H   0  0  0  0  0  0  0  0  0  0  0  0
    1.0386   -5.9432    2.8607 H   0  0  0  0  0  0  0  0  0  0  0  0
   -0.5047   -8.1910    2.3304 H   0  0  0  0  0  0  0  0  0  0  0  0
    2.1329   -8.4815    5.2763 H   0  0  0  0  0  0  0  0  0  0  0  0
    0.4429   -8.2726    4.8440 H   0  0  0  0  0  0  0  0  0  0  0  0
    1.4528   -6.8667    5.0564 H   0  0  0  0  0  0  0  0  0  0  0  0
    2.3660  -10.0881    2.9013 H   0  0  0  0  0  0  0  0  0  0  0  0
    1.2520   -9.4929    1.6674 H   0  0  0  0  0  0  0  0  0  0  0  0
    0.6679   -9.8369    3.2424 H   0  0  0  0  0  0  0  0  0  0  0  0
    3.9311   -8.4021    3.3782 H   0  0  0  0  0  0  0  0  0  0  0  0
    2.9273   -5.6411    3.9085 H   0  0  0  0  0  0  0  0  0  0  0  0
    3.9215   -6.6883    4.8788 H   0  0  0  0  0  0  0  0  0  0  0  0
    4.5666   -4.7434    2.7217 H   0  0  0  0  0  0  0  0  0  0  0  0
    5.3846   -4.9831    4.2508 H   0  0  0  0  0  0  0  0  0  0  0  0
    7.2952   -6.6737    4.3857 H   0  0  0  0  0  0  0  0  0  0  0  0
    7.3636   -7.9834    3.2218 H   0  0  0  0  0  0  0  0  0  0  0  0
    5.9845   -7.8326    4.2863 H   0  0  0  0  0  0  0  0  0  0  0  0
    8.9860   -6.1348    2.4493 H   0  0  0  0  0  0  0  0  0  0  0  0
    8.9842   -5.7120    0.7642 H   0  0  0  0  0  0  0  0  0  0  0  0
    8.3887   -7.2911    1.2677 H   0  0  0  0  0  0  0  0  0  0  0  0
    6.5937   -3.8081    2.7370 H   0  0  0  0  0  0  0  0  0  0  0  0
    8.2172   -3.8318    2.0685 H   0  0  0  0  0  0  0  0  0  0  0  0
    7.0916   -2.0806    1.2998 H   0  0  0  0  0  0  0  0  0  0  0  0
    7.8039   -3.1373    0.1096 H   0  0  0  0  0  0  0  0  0  0  0  0
    3.6009   -3.4489    1.1602 H   0  0  0  0  0  0  0  0  0  0  0  0
    4.6886   -2.2969    2.0236 H   0  0  0  0  0  0  0  0  0  0  0  0
    6.0227   -1.6460   -1.2468 H   0  0  0  0  0  0  0  0  0  0  0  0
  1  2  1  0
  1 31  1  0
  1 32  1  0
  1 33  1  0
  2 30  1  0
  2  3  1  0
  2  4  1  0
  3 34  1  0
  3 35  1  0
  3 36  1  0
  4  5  1  0
  4 37  1  0
  4 38  1  0
  5 26  1  0
  5  6  1  0
  5 39  1  6
  6 22  1  0
  6  7  1  0
  6 40  1  6
  7 20  1  0
  7  8  1  0
  7 41  1  6
  8 17  1  0
  8  9  1  6
  8 10  1  0
  9 42  1  0
  9 43  1  0
  9 44  1  0
 10 11  1  0
 10 45  1  0
 10 46  1  0
 11 12  1  0
 11 47  1  0
 11 48  1  0
 12 13  1  0
 12 14  1  0
 12 49  1  1
 13 50  1  0
 14 15  1  0
 14 16  1  0
 14 17  1  0
 15 51  1  0
 15 52  1  0
 15 53  1  0
 16 54  1  0
 16 55  1  0
 16 56  1  0
 17 18  1  0
 17 57  1  1
 18 19  1  0
 18 58  1  0
 18 59  1  0
 19 20  1  0
 19 60  1  0
 19 61  1  0
 20 21  1  1
 20 22  1  0
 21 62  1  0
 21 63  1  0
 21 64  1  0
 22 23  1  6
 22 24  1  0
 23 65  1  0
 23 66  1  0
 23 67  1  0
 24 25  1  0
 24 68  1  0
 24 69  1  0
 26 25  1  1
 25 70  1  0
 25 71  1  0
 26 30  1  0
 26 27  1  0
 27 28  1  0
 27 72  1  0
 27 73  1  0
 28 29  2  0
 28 30  1  0
 30 74  1  6
M  END
>  <i_m_ct_stereo_status>  (215) 
1

>  <s_m_source_file>  (215) 
/var/tmp/pbs.5076255.sched01/tmpinim70aj/80j3ziidn5.sdf

>  <i_m_source_file_index>  (215) 
8

>  <i_lp_mmshare_version>  (215) 
48012

>  <i_f3d_flags>  (215) 
0

>  <s_epik_input>  (215) 
W0NIMl0xQyg9TylbQ0BASF0yQyhbQ0gzXSkoW0NIM10pW0NIMl1bQ0BASF0oW0NAXTEyMylbQ0BASF00W0NAQEhdNVtDQEBdNihbQ0gzXSlbQ0BIXShDKFtDSDNdKShbQ0gzXSlbQ0BIXShbT0hdKVtDSDJdW0NIMl02KVtDSDJdW0NIMl1bQ0BdNShbQ0gzXSlbQ0BdNChbQ0gzXSlbQ0gyXVtDSDJdMw==

>  <s_epik_cmdline>  (215) 
J2VwaWtfcHl0aG9uJywgJy1waHQnLCAnMi4wJywgJy1waCcsICc3LjAnLCAnLXRuJywgJzgnLCAnLW1hJywgJzIwMCcsICctaW1hZScsICc8aW5maWxlLm1hZT4nLCAnLW9tYWUnLCAnPG91dGZpbGUubWFlPic=

>  <r_lp_tautomer_probability>  (215) 
1

>  <r_epik_Ionization_Penalty>  (215) 
3.17809e-06

>  <r_epik_Ionization_Penalty_Charging>  (215) 
0

>  <r_epik_Ionization_Penalty_Neutral>  (215) 
3.17809e-06

>  <r_epik_State_Penalty>  (215) 
-0

>  <r_epik_Charging_Adjusted_Penalty>  (215) 
0

>  <i_epik_Tot_Q>  (215) 
0

>  <i_epik_Tot_abs_Q>  (215) 
0

>  <s_lp_Force_Field>  (215) 
OPLS3e

>  <r_lp_Energy>  (215) 
111.695

>  <b_lp_Chiralities_Consistent>  (215) 
1

>  <s_lp_Variant>  (215) 
67:0-1

>  <s_i_glide_gridfile>  (215) 
pfpi4k_grid

>  <i_i_glide_lignum>  (215) 
8

>  <i_i_glide_rotatable_bonds>  (215) 
1

>  <r_i_docking_score>  (215) 
-1.75564

>  <r_i_glide_ligand_efficiency>  (215) 
-0.0585213

>  <r_i_glide_ligand_efficiency_sa>  (215) 
-0.181839

>  <r_i_glide_ligand_efficiency_ln>  (215) 
-0.3989

>  <r_i_glide_gscore>  (215) 
-1.75564

>  <r_i_glide_lipo>  (215) 
-0.775101

>  <r_i_glide_hbond>  (215) 
-0.0482256

>  <r_i_glide_metal>  (215) 
-0

>  <r_i_glide_rewards>  (215) 
-0.595583

>  <r_i_glide_evdw>  (215) 
-1.62063

>  <r_i_glide_ecoul>  (215) 
-1.53691

>  <r_i_glide_erotb>  (215) 
0

>  <r_i_glide_esite>  (215) 
-0.0251608

>  <r_i_glide_emodel>  (215) 
-2.04932

>  <r_i_glide_energy>  (215) 
-3.15754

>  <r_i_glide_einternal>  (215) 
0.521497

>  <r_i_glide_intrahb_reward>  (215) 
-0

>  <i_i_glide_confnum>  (215) 
2

>  <i_i_glide_posenum>  (215) 
16

>  <r_i_glide_eff_state_penalty>  (215) 
0

>  <ligand_id>  (215) 
67

>  <original_smiles>  (215) 
CC1(C)CC2C3C4C5(C)CCC(O)C(C)(C)C5CCC4(C)C3(C)CCC23CC(=O)C13

>  <smiles>  (215) 
[H]OC1([H])C([H])([H])C([H])([H])C2(C([H])([H])[H])C([H])(C([H])([H])C([H])([H])C3(C([H])([H])[H])C2([H])C2([H])C4([H])C([H])([H])C(C([H])([H])[H])(C([H])([H])[H])C5([H])C(=O)C([H])([H])C54C([H])([H])C([H])([H])C23C([H])([H])[H])C1(C([H])([H])[H])C([H])([H])[H]

$$$$
69:0:0
     RDKit          3D

 54 59  0  0  1  0  0  0  0  0999 V2000
    5.1183   -5.9389    3.1093 C   0  0  0  0  0  0  0  0  0  0  0  0
    5.8052   -4.6417    2.8158 N   0  0  2  0  0  0  0  0  0  0  0  0
    5.3162   -3.5120    3.5948 C   0  0  0  0  0  0  0  0  0  0  0  0
    4.1184   -2.8995    2.9441 C   0  0  0  0  0  0  0  0  0  0  0  0
    3.9768   -2.8160    1.3801 C   0  0  2  0  0  0  0  0  0  0  0  0
    2.8313   -1.7252    1.4503 C   0  0  0  0  0  0  0  0  0  0  0  0
    3.4813   -4.2349    0.7199 C   0  0  1  0  0  0  0  0  0  0  0  0
    2.6374   -3.7912   -0.5162 C   0  0  0  0  0  0  0  0  0  0  0  0
    3.2652   -2.6781   -1.3812 C   0  0  0  0  0  0  0  0  0  0  0  0
    2.6605   -2.4010   -2.6240 C   0  0  0  0  0  0  0  0  0  0  0  0
    3.1798   -1.3552   -3.4077 C   0  0  0  0  0  0  0  0  0  0  0  0
    2.7320   -1.0226   -4.6329 O   0  0  0  0  0  0  0  0  0  0  0  0
    4.2363   -0.5773   -2.9556 C   0  0  0  0  0  0  0  0  0  0  0  0
    4.8772   -0.8657   -1.7456 C   0  0  0  0  0  0  0  0  0  0  0  0
    4.4039   -1.9073   -0.9319 C   0  0  0  0  0  0  0  0  0  0  0  0
    5.1213   -2.2955    0.3914 C   0  0  1  0  0  0  0  0  0  0  0  0
    6.5731   -1.6161    0.7326 C   0  0  1  0  0  0  0  0  0  0  0  0
    6.5523   -1.0501    2.0235 O   0  0  0  0  0  0  0  0  0  0  0  0
    8.0358   -2.4018    0.4316 C   0  0  0  0  0  0  0  0  0  0  0  0
    8.2327   -4.0693    0.2514 C   0  0  0  0  0  0  0  0  0  0  0  0
    7.1950   -5.2409    0.8423 C   0  0  2  0  0  0  0  0  0  0  0  0
    5.8100   -5.8632    0.6128 O   0  0  0  0  0  0  0  0  0  0  0  0
    4.6309   -5.2251   -0.0157 C   0  0  2  0  0  0  0  0  0  0  0  0
    5.2073   -4.3996   -0.8349 O   0  0  0  0  0  0  0  0  0  0  0  0
    5.7625   -3.5408    0.1202 C   0  0  2  0  0  0  0  0  0  0  0  0
    6.4186   -4.2371    1.4858 C   0  0  1  0  0  0  0  0  0  0  0  0
    4.1484   -6.0228    2.6366 H   0  0  0  0  0  0  0  0  0  0  0  0
    4.9610   -6.0350    4.1785 H   0  0  0  0  0  0  0  0  0  0  0  0
    5.7285   -6.7979    2.8290 H   0  0  0  0  0  0  0  0  0  0  0  0
    5.0755   -3.8262    4.6015 H   0  0  0  0  0  0  0  0  0  0  0  0
    6.0670   -2.7453    3.7266 H   0  0  0  0  0  0  0  0  0  0  0  0
    3.2456   -3.4408    3.3242 H   0  0  0  0  0  0  0  0  0  0  0  0
    4.0576   -1.9141    3.4192 H   0  0  0  0  0  0  0  0  0  0  0  0
    2.4155   -1.3908    0.5134 H   0  0  0  0  0  0  0  0  0  0  0  0
    3.1920   -0.7918    1.8835 H   0  0  0  0  0  0  0  0  0  0  0  0
    1.9716   -2.0553    2.0386 H   0  0  0  0  0  0  0  0  0  0  0  0
    2.8573   -4.8208    1.3933 H   0  0  0  0  0  0  0  0  0  0  0  0
    2.3637   -4.6513   -1.1230 H   0  0  0  0  0  0  0  0  0  0  0  0
    1.6992   -3.3720   -0.1875 H   0  0  0  0  0  0  0  0  0  0  0  0
    1.7895   -2.9607   -2.9407 H   0  0  0  0  0  0  0  0  0  0  0  0
    2.0701   -1.6031   -4.9830 H   0  0  0  0  0  0  0  0  0  0  0  0
    4.5546    0.2344   -3.5856 H   0  0  0  0  0  0  0  0  0  0  0  0
    5.7193   -0.2534   -1.4991 H   0  0  0  0  0  0  0  0  0  0  0  0
    6.6526   -0.6847    0.1902 H   0  0  0  0  0  0  0  0  0  0  0  0
    7.2065   -0.3795    2.0593 H   0  0  0  0  0  0  0  0  0  0  0  0
    8.4477   -1.9454   -0.4712 H   0  0  0  0  0  0  0  0  0  0  0  0
    8.7988   -2.0662    1.1260 H   0  0  0  0  0  0  0  0  0  0  0  0
    8.4186   -4.2249   -0.8120 H   0  0  0  0  0  0  0  0  0  0  0  0
    9.2104   -4.2867    0.6832 H   0  0  0  0  0  0  0  0  0  0  0  0
    7.1948   -5.6090   -0.1743 H   0  0  0  0  0  0  0  0  0  0  0  0
    4.1301   -6.0032   -0.5846 H   0  0  0  0  0  0  0  0  0  0  0  0
    6.3533   -3.3072   -0.7689 H   0  0  0  0  0  0  0  0  0  0  0  0
    7.0912   -3.6286    2.0769 H   0  0  0  0  0  0  0  0  0  0  0  0
    6.6611   -4.8433    3.3054 H   0  0  0  0  0  0  0  0  0  0  0  0
  1  2  1  0
  1 27  1  0
  1 28  1  0
  1 29  1  0
  2 26  1  0
  2  3  1  0
  2 54  1  1
  3  4  1  0
  3 30  1  0
  3 31  1  0
  4  5  1  0
  4 32  1  0
  4 33  1  0
  5 16  1  0
  5  6  1  1
  5  7  1  0
  6 34  1  0
  6 35  1  0
  6 36  1  0
  7 23  1  0
  7  8  1  0
  7 37  1  1
  8  9  1  0
  8 38  1  0
  8 39  1  0
  9 15  2  0
  9 10  1  0
 10 11  2  0
 10 40  1  0
 11 12  1  0
 11 13  1  0
 12 41  1  0
 13 14  2  0
 13 42  1  0
 14 15  1  0
 14 43  1  0
 16 15  1  6
 16 25  1  0
 16 17  1  0
 17 18  1  0
 17 19  1  0
 17 44  1  6
 18 45  1  0
 19 20  1  0
 19 46  1  0
 19 47  1  0
 20 21  1  0
 20 48  1  0
 20 49  1  0
 21 26  1  0
 21 22  1  0
 21 50  1  1
 22 23  1  0
 23 24  1  0
 23 51  1  6
 24 25  1  0
 25 26  1  0
 25 52  1  6
 26 53  1  1
M  CHG  1   2   1
M  END
>  <i_m_ct_stereo_status>  (216) 
1

>  <s_m_source_file>  (216) 
/var/tmp/pbs.5076255.sched01/tmpinim70aj/80j3ziidn5.sdf

>  <i_m_source_file_index>  (216) 
10

>  <i_lp_mmshare_version>  (216) 
48012

>  <i_f3d_flags>  (216) 
0

>  <s_epik_input>  (216) 
W0NIMl0xW0NIMl1OKFtDSDNdKVtDQEhdKFtDQEhdMk8zKVtDQEBIXShbQ0gyXVtDSDJdW0NAQEhdNFtPSF0pT1tDQEhdM1tDQEBIXShDMShDMjQ1KVtDSDNdKVtDSDJdYzZjNVtjSF1bY0hdYyhbY0hdNilbT0hd

>  <s_epik_cmdline>  (216) 
J2VwaWtfcHl0aG9uJywgJy1waHQnLCAnMi4wJywgJy1waCcsICc3LjAnLCAnLXRuJywgJzgnLCAnLW1hJywgJzIwMCcsICctaW1hZScsICc8aW5maWxlLm1hZT4nLCAnLW9tYWUnLCAnPG91dGZpbGUubWFlPic=

>  <r_lp_tautomer_probability>  (216) 
1

>  <r_epik_Ionization_Penalty>  (216) 
0.0726949

>  <r_epik_Ionization_Penalty_Charging>  (216) 
0.072551

>  <r_epik_Ionization_Penalty_Neutral>  (216) 
0.000143896

>  <r_epik_State_Penalty>  (216) 
0.0637602

>  <r_epik_Charging_Adjusted_Penalty>  (216) 
0.136311

>  <i_epik_Tot_Q>  (216) 
1

>  <i_epik_Tot_abs_Q>  (216) 
1

>  <s_epik_Chemistry_Notes>  (216) 
This compound contains an acetal/aminal-like group ( X-CH(R)-Y where X, Y are N, S, or O) that may be acid/base labile, releasing an aldehyde.

>  <s_lp_Force_Field>  (216) 
OPLS3e

>  <r_lp_Energy>  (216) 
386.622

>  <b_lp_Chiralities_Consistent>  (216) 
1

>  <s_lp_Variant>  (216) 
69:0-1

>  <s_i_glide_gridfile>  (216) 
pfpi4k_grid

>  <i_i_glide_lignum>  (216) 
10

>  <i_i_glide_rotatable_bonds>  (216) 
2

>  <r_i_docking_score>  (216) 
-4.16574

>  <r_i_glide_ligand_efficiency>  (216) 
-0.160221

>  <r_i_glide_ligand_efficiency_sa>  (216) 
-0.474653

>  <r_i_glide_ligand_efficiency_ln>  (216) 
-0.97831

>  <r_i_glide_gscore>  (216) 
-4.16574

>  <r_i_glide_lipo>  (216) 
-1.01682

>  <r_i_glide_hbond>  (216) 
-0.505732

>  <r_i_glide_metal>  (216) 
-0

>  <r_i_glide_rewards>  (216) 
-0.965105

>  <r_i_glide_evdw>  (216) 
-11.9844

>  <r_i_glide_ecoul>  (216) 
-7.16724

>  <r_i_glide_erotb>  (216) 
0

>  <r_i_glide_esite>  (216) 
-0.00377537

>  <r_i_glide_emodel>  (216) 
-23.1022

>  <r_i_glide_energy>  (216) 
-19.1517

>  <r_i_glide_einternal>  (216) 
0.762502

>  <r_i_glide_intrahb_reward>  (216) 
-0

>  <i_i_glide_confnum>  (216) 
2

>  <i_i_glide_posenum>  (216) 
3

>  <r_i_glide_eff_state_penalty>  (216) 
0

>  <ligand_id>  (216) 
69

>  <original_smiles>  (216) 
CN1CCC2(C)C3Cc4cc(O)ccc4C24C(O)CCC2OC3OC4C21

>  <smiles>  (216) 
[H]Oc1c([H])c([H])c2c(c1[H])C([H])([H])C1([H])C3([H])OC4([H])C([H])([H])C([H])([H])C([H])(O[H])C25C([H])(O3)C4([H])[N+]([H])(C([H])([H])[H])C([H])([H])C([H])([H])C15C([H])([H])[H]

$$$$
69:0:1
     RDKit          3D

 54 59  0  0  1  0  0  0  0  0999 V2000
    3.2373   -3.2257    4.3622 C   0  0  0  0  0  0  0  0  0  0  0  0
    3.9998   -4.1369    3.4808 N   0  0  2  0  0  0  0  0  0  0  0  0
    5.4164   -3.8955    3.5098 C   0  0  0  0  0  0  0  0  0  0  0  0
    5.7954   -2.7784    2.5536 C   0  0  0  0  0  0  0  0  0  0  0  0
    5.1035   -2.5406    1.1893 C   0  0  2  0  0  0  0  0  0  0  0  0
    6.2729   -1.6116    0.6163 C   0  0  0  0  0  0  0  0  0  0  0  0
    3.6943   -1.7564    1.3665 C   0  0  1  0  0  0  0  0  0  0  0  0
    3.5989   -0.9156    0.0565 C   0  0  0  0  0  0  0  0  0  0  0  0
    3.9603   -1.6853   -1.2468 C   0  0  0  0  0  0  0  0  0  0  0  0
    3.6723   -1.0715   -2.4748 C   0  0  0  0  0  0  0  0  0  0  0  0
    4.0063   -1.6944   -3.6805 C   0  0  0  0  0  0  0  0  0  0  0  0
    3.7615   -1.0447   -4.8529 O   0  0  0  0  0  0  0  0  0  0  0  0
    4.6128   -2.9603   -3.6717 C   0  0  0  0  0  0  0  0  0  0  0  0
    4.9183   -3.5953   -2.4557 C   0  0  0  0  0  0  0  0  0  0  0  0
    4.6007   -2.9895   -1.2272 C   0  0  0  0  0  0  0  0  0  0  0  0
    4.8107   -3.7016    0.1399 C   0  0  1  0  0  0  0  0  0  0  0  0
    5.2887   -5.2638    0.1608 C   0  0  1  0  0  0  0  0  0  0  0  0
    6.4435   -5.4521    0.9419 O   0  0  0  0  0  0  0  0  0  0  0  0
    4.2237   -6.5400    0.3913 C   0  0  0  0  0  0  0  0  0  0  0  0
    2.6881   -6.4244    1.0919 C   0  0  0  0  0  0  0  0  0  0  0  0
    2.2187   -5.2261    2.1656 C   0  0  2  0  0  0  0  0  0  0  0  0
    1.8665   -3.7405    2.2498 O   0  0  0  0  0  0  0  0  0  0  0  0
    2.2768   -2.6521    1.3235 C   0  0  2  0  0  0  0  0  0  0  0  0
    2.4174   -3.3083    0.2196 O   0  0  0  0  0  0  0  0  0  0  0  0
    3.5177   -4.0888    0.5958 C   0  0  2  0  0  0  0  0  0  0  0  0
    3.5382   -4.6937    2.1629 C   0  0  1  0  0  0  0  0  0  0  0  0
    3.1033   -2.2208    3.9664 H   0  0  0  0  0  0  0  0  0  0  0  0
    3.7410   -3.0978    5.3247 H   0  0  0  0  0  0  0  0  0  0  0  0
    2.2521   -3.6215    4.6204 H   0  0  0  0  0  0  0  0  0  0  0  0
    5.7616   -3.6375    4.5071 H   0  0  0  0  0  0  0  0  0  0  0  0
    5.9845   -4.7985    3.2887 H   0  0  0  0  0  0  0  0  0  0  0  0
    5.7663   -1.8395    3.1338 H   0  0  0  0  0  0  0  0  0  0  0  0
    6.8258   -2.9786    2.3445 H   0  0  0  0  0  0  0  0  0  0  0  0
    6.1539   -1.1749   -0.3677 H   0  0  0  0  0  0  0  0  0  0  0  0
    7.2115   -2.1647    0.4988 H   0  0  0  0  0  0  0  0  0  0  0  0
    6.4856   -0.7565    1.2664 H   0  0  0  0  0  0  0  0  0  0  0  0
    3.6849   -1.0741    2.2185 H   0  0  0  0  0  0  0  0  0  0  0  0
    2.6183   -0.4791   -0.0091 H   0  0  0  0  0  0  0  0  0  0  0  0
    4.2575   -0.0455    0.1172 H   0  0  0  0  0  0  0  0  0  0  0  0
    3.1799   -0.1119   -2.5240 H   0  0  0  0  0  0  0  0  0  0  0  0
    3.1166   -0.3599   -4.7658 H   0  0  0  0  0  0  0  0  0  0  0  0
    4.8487   -3.4658   -4.5981 H   0  0  0  0  0  0  0  0  0  0  0  0
    5.3798   -4.5704   -2.5296 H   0  0  0  0  0  0  0  0  0  0  0  0
    5.7417   -5.4798   -0.7874 H   0  0  0  0  0  0  0  0  0  0  0  0
    6.2033   -5.3919    1.8539 H   0  0  0  0  0  0  0  0  0  0  0  0
    4.1090   -6.9967   -0.5917 H   0  0  0  0  0  0  0  0  0  0  0  0
    4.7553   -7.3240    0.9370 H   0  0  0  0  0  0  0  0  0  0  0  0
    1.9637   -6.5061    0.2721 H   0  0  0  0  0  0  0  0  0  0  0  0
    2.5322   -7.3755    1.6023 H   0  0  0  0  0  0  0  0  0  0  0  0
    1.3979   -5.1000    1.4624 H   0  0  0  0  0  0  0  0  0  0  0  0
    1.4360   -1.9578    1.2609 H   0  0  0  0  0  0  0  0  0  0  0  0
    3.1395   -4.6597   -0.2591 H   0  0  0  0  0  0  0  0  0  0  0  0
    4.2007   -5.5306    2.3831 H   0  0  0  0  0  0  0  0  0  0  0  0
    3.9419   -4.9632    4.0494 H   0  0  0  0  0  0  0  0  0  0  0  0
  1  2  1  0
  1 27  1  0
  1 28  1  0
  1 29  1  0
  2 26  1  0
  2  3  1  0
  2 54  1  1
  3  4  1  0
  3 30  1  0
  3 31  1  0
  4  5  1  0
  4 32  1  0
  4 33  1  0
  5 16  1  0
  5  6  1  6
  5  7  1  0
  6 34  1  0
  6 35  1  0
  6 36  1  0
  7 23  1  0
  7  8  1  0
  7 37  1  1
  8  9  1  0
  8 38  1  0
  8 39  1  0
  9 15  2  0
  9 10  1  0
 10 11  2  0
 10 40  1  0
 11 12  1  0
 11 13  1  0
 12 41  1  0
 13 14  2  0
 13 42  1  0
 14 15  1  0
 14 43  1  0
 16 15  1  6
 16 25  1  0
 16 17  1  0
 17 18  1  0
 17 19  1  0
 17 44  1  6
 18 45  1  0
 19 20  1  0
 19 46  1  0
 19 47  1  0
 20 21  1  0
 20 48  1  0
 20 49  1  0
 21 26  1  0
 21 22  1  0
 21 50  1  1
 22 23  1  0
 23 24  1  0
 23 51  1  6
 24 25  1  0
 25 26  1  0
 25 52  1  6
 26 53  1  6
M  CHG  1   2   1
M  END
>  <i_m_ct_stereo_status>  (217) 
1

>  <s_m_source_file>  (217) 
/var/tmp/pbs.5076255.sched01/tmpinim70aj/80j3ziidn5.sdf

>  <i_m_source_file_index>  (217) 
10

>  <i_lp_mmshare_version>  (217) 
48012

>  <i_f3d_flags>  (217) 
0

>  <s_epik_input>  (217) 
W0NIMl0xW0NIMl1OKFtDSDNdKVtDQEhdKFtDQEhdMk8zKVtDQEBIXShbQ0gyXVtDSDJdW0NAQEhdNFtPSF0pT1tDQEhdM1tDQEBIXShDMShDMjQ1KVtDSDNdKVtDSDJdYzZjNVtjSF1bY0hdYyhbY0hdNilbT0hd

>  <s_epik_cmdline>  (217) 
J2VwaWtfcHl0aG9uJywgJy1waHQnLCAnMi4wJywgJy1waCcsICc3LjAnLCAnLXRuJywgJzgnLCAnLW1hJywgJzIwMCcsICctaW1hZScsICc8aW5maWxlLm1hZT4nLCAnLW9tYWUnLCAnPG91dGZpbGUubWFlPic=

>  <r_lp_tautomer_probability>  (217) 
1

>  <r_epik_Ionization_Penalty>  (217) 
0.0726949

>  <r_epik_Ionization_Penalty_Charging>  (217) 
0.072551

>  <r_epik_Ionization_Penalty_Neutral>  (217) 
0.000143896

>  <r_epik_State_Penalty>  (217) 
0.0637602

>  <r_epik_Charging_Adjusted_Penalty>  (217) 
0.136311

>  <i_epik_Tot_Q>  (217) 
1

>  <i_epik_Tot_abs_Q>  (217) 
1

>  <s_epik_Chemistry_Notes>  (217) 
This compound contains an acetal/aminal-like group ( X-CH(R)-Y where X, Y are N, S, or O) that may be acid/base labile, releasing an aldehyde.

>  <s_lp_Force_Field>  (217) 
OPLS3e

>  <r_lp_Energy>  (217) 
386.622

>  <b_lp_Chiralities_Consistent>  (217) 
1

>  <s_lp_Variant>  (217) 
69:0-1

>  <s_i_glide_gridfile>  (217) 
pfpi4k_grid

>  <i_i_glide_lignum>  (217) 
10

>  <i_i_glide_rotatable_bonds>  (217) 
2

>  <r_i_docking_score>  (217) 
-3.719

>  <r_i_glide_ligand_efficiency>  (217) 
-0.143038

>  <r_i_glide_ligand_efficiency_sa>  (217) 
-0.42375

>  <r_i_glide_ligand_efficiency_ln>  (217) 
-0.873394

>  <r_i_glide_gscore>  (217) 
-3.719

>  <r_i_glide_lipo>  (217) 
-0.839191

>  <r_i_glide_hbond>  (217) 
-0.320402

>  <r_i_glide_metal>  (217) 
-0

>  <r_i_glide_rewards>  (217) 
-0.965105

>  <r_i_glide_evdw>  (217) 
-18.4916

>  <r_i_glide_ecoul>  (217) 
-4.20194

>  <r_i_glide_erotb>  (217) 
0

>  <r_i_glide_esite>  (217) 
-0.0394259

>  <r_i_glide_emodel>  (217) 
-26.6507

>  <r_i_glide_energy>  (217) 
-22.6936

>  <r_i_glide_einternal>  (217) 
0.162817

>  <r_i_glide_intrahb_reward>  (217) 
-0

>  <i_i_glide_confnum>  (217) 
2

>  <i_i_glide_posenum>  (217) 
28

>  <r_i_glide_eff_state_penalty>  (217) 
0

>  <ligand_id>  (217) 
69

>  <original_smiles>  (217) 
CN1CCC2(C)C3Cc4cc(O)ccc4C24C(O)CCC2OC3OC4C21

>  <smiles>  (217) 
[H]Oc1c([H])c([H])c2c(c1[H])C([H])([H])C1([H])C3([H])OC4([H])C([H])([H])C([H])([H])C([H])(O[H])C25C([H])(O3)C4([H])[N+]([H])(C([H])([H])[H])C([H])([H])C([H])([H])C15C([H])([H])[H]

$$$$
69:0:2
     RDKit          3D

 54 59  0  0  1  0  0  0  0  0999 V2000
    3.3259   -3.1580    4.4628 C   0  0  0  0  0  0  0  0  0  0  0  0
    4.0735   -4.0935    3.5648 N   0  0  2  0  0  0  0  0  0  0  0  0
    5.4991   -3.8556    3.5452 C   0  0  0  0  0  0  0  0  0  0  0  0
    5.8339   -2.7432    2.5870 C   0  0  0  0  0  0  0  0  0  0  0  0
    5.1335   -2.5206    1.2267 C   0  0  2  0  0  0  0  0  0  0  0  0
    6.2918   -1.6050    0.6170 C   0  0  0  0  0  0  0  0  0  0  0  0
    3.7221   -1.7289    1.4283 C   0  0  1  0  0  0  0  0  0  0  0  0
    3.6008   -0.9041    0.1103 C   0  0  0  0  0  0  0  0  0  0  0  0
    3.9328   -1.7029   -1.1866 C   0  0  0  0  0  0  0  0  0  0  0  0
    3.6125   -1.1022   -2.4166 C   0  0  0  0  0  0  0  0  0  0  0  0
    3.9224   -1.7296   -3.6207 C   0  0  0  0  0  0  0  0  0  0  0  0
    3.6439   -1.0835   -4.7857 O   0  0  0  0  0  0  0  0  0  0  0  0
    4.5291   -2.9919   -3.6182 C   0  0  0  0  0  0  0  0  0  0  0  0
    4.8587   -3.6223   -2.4062 C   0  0  0  0  0  0  0  0  0  0  0  0
    4.5653   -3.0010   -1.1720 C   0  0  0  0  0  0  0  0  0  0  0  0
    4.8165   -3.7030    0.1985 C   0  0  1  0  0  0  0  0  0  0  0  0
    5.2853   -5.2751    0.2301 C   0  0  1  0  0  0  0  0  0  0  0  0
    6.4370   -5.4562    1.0245 O   0  0  0  0  0  0  0  0  0  0  0  0
    4.2148   -6.5441    0.4949 C   0  0  0  0  0  0  0  0  0  0  0  0
    2.6956   -6.4158    1.2257 C   0  0  0  0  0  0  0  0  0  0  0  0
    2.2319   -5.2001    2.2907 C   0  0  2  0  0  0  0  0  0  0  0  0
    1.8933   -3.6981    2.3764 O   0  0  0  0  0  0  0  0  0  0  0  0
    2.2985   -2.6225    1.4269 C   0  0  2  0  0  0  0  0  0  0  0  0
    2.4162   -3.3013    0.3286 O   0  0  0  0  0  0  0  0  0  0  0  0
    3.5239   -4.0795    0.6922 C   0  0  2  0  0  0  0  0  0  0  0  0
    3.5602   -4.6780    2.2576 C   0  0  1  0  0  0  0  0  0  0  0  0
    3.1969   -2.1637    4.0423 H   0  0  0  0  0  0  0  0  0  0  0  0
    3.8643   -3.0335    5.4046 H   0  0  0  0  0  0  0  0  0  0  0  0
    2.3477   -3.5607    4.7343 H   0  0  0  0  0  0  0  0  0  0  0  0
    5.8404   -3.5995    4.5466 H   0  0  0  0  0  0  0  0  0  0  0  0
    6.0479   -4.7696    3.3130 H   0  0  0  0  0  0  0  0  0  0  0  0
    5.8096   -1.8070    3.1539 H   0  0  0  0  0  0  0  0  0  0  0  0
    6.8632   -2.9460    2.3507 H   0  0  0  0  0  0  0  0  0  0  0  0
    6.1503   -1.1829   -0.3716 H   0  0  0  0  0  0  0  0  0  0  0  0
    7.2235   -2.1622    0.4880 H   0  0  0  0  0  0  0  0  0  0  0  0
    6.5173   -0.7455    1.2525 H   0  0  0  0  0  0  0  0  0  0  0  0
    3.7349   -1.0404    2.2757 H   0  0  0  0  0  0  0  0  0  0  0  0
    2.6135   -0.4625    0.0596 H   0  0  0  0  0  0  0  0  0  0  0  0
    4.2668   -0.0385    0.1498 H   0  0  0  0  0  0  0  0  0  0  0  0
    3.1223   -0.1502   -2.4551 H   0  0  0  0  0  0  0  0  0  0  0  0
    3.0194   -0.3792   -4.6846 H   0  0  0  0  0  0  0  0  0  0  0  0
    4.7454   -3.4962   -4.5466 H   0  0  0  0  0  0  0  0  0  0  0  0
    5.3096   -4.5947   -2.4746 H   0  0  0  0  0  0  0  0  0  0  0  0
    5.7226   -5.5020   -0.7282 H   0  0  0  0  0  0  0  0  0  0  0  0
    6.7708   -6.3306    0.8704 H   0  0  0  0  0  0  0  0  0  0  0  0
    4.0630   -7.0091   -0.4799 H   0  0  0  0  0  0  0  0  0  0  0  0
    4.7556   -7.3200    1.0409 H   0  0  0  0  0  0  0  0  0  0  0  0
    1.9572   -6.5139    0.4251 H   0  0  0  0  0  0  0  0  0  0  0  0
    2.5566   -7.3537    1.7635 H   0  0  0  0  0  0  0  0  0  0  0  0
    1.4000   -5.0702    1.6072 H   0  0  0  0  0  0  0  0  0  0  0  0
    1.4479   -1.9439    1.3412 H   0  0  0  0  0  0  0  0  0  0  0  0
    3.1227   -4.6571   -0.1454 H   0  0  0  0  0  0  0  0  0  0  0  0
    4.2442   -5.4979    2.4764 H   0  0  0  0  0  0  0  0  0  0  0  0
    4.0330   -4.9217    4.1434 H   0  0  0  0  0  0  0  0  0  0  0  0
  1  2  1  0
  1 27  1  0
  1 28  1  0
  1 29  1  0
  2 26  1  0
  2  3  1  0
  2 54  1  1
  3  4  1  0
  3 30  1  0
  3 31  1  0
  4  5  1  0
  4 32  1  0
  4 33  1  0
  5 16  1  0
  5  6  1  6
  5  7  1  0
  6 34  1  0
  6 35  1  0
  6 36  1  0
  7 23  1  0
  7  8  1  0
  7 37  1  1
  8  9  1  0
  8 38  1  0
  8 39  1  0
  9 15  2  0
  9 10  1  0
 10 11  2  0
 10 40  1  0
 11 12  1  0
 11 13  1  0
 12 41  1  0
 13 14  2  0
 13 42  1  0
 14 15  1  0
 14 43  1  0
 16 15  1  6
 16 25  1  0
 16 17  1  0
 17 18  1  0
 17 19  1  0
 17 44  1  6
 18 45  1  0
 19 20  1  0
 19 46  1  0
 19 47  1  0
 20 21  1  0
 20 48  1  0
 20 49  1  0
 21 26  1  0
 21 22  1  0
 21 50  1  1
 22 23  1  0
 23 24  1  0
 23 51  1  6
 24 25  1  0
 25 26  1  0
 25 52  1  6
 26 53  1  6
M  CHG  1   2   1
M  END
>  <i_m_ct_stereo_status>  (218) 
1

>  <s_m_source_file>  (218) 
/var/tmp/pbs.5076255.sched01/tmpinim70aj/80j3ziidn5.sdf

>  <i_m_source_file_index>  (218) 
10

>  <i_lp_mmshare_version>  (218) 
48012

>  <i_f3d_flags>  (218) 
0

>  <s_epik_input>  (218) 
W0NIMl0xW0NIMl1OKFtDSDNdKVtDQEhdKFtDQEhdMk8zKVtDQEBIXShbQ0gyXVtDSDJdW0NAQEhdNFtPSF0pT1tDQEhdM1tDQEBIXShDMShDMjQ1KVtDSDNdKVtDSDJdYzZjNVtjSF1bY0hdYyhbY0hdNilbT0hd

>  <s_epik_cmdline>  (218) 
J2VwaWtfcHl0aG9uJywgJy1waHQnLCAnMi4wJywgJy1waCcsICc3LjAnLCAnLXRuJywgJzgnLCAnLW1hJywgJzIwMCcsICctaW1hZScsICc8aW5maWxlLm1hZT4nLCAnLW9tYWUnLCAnPG91dGZpbGUubWFlPic=

>  <r_lp_tautomer_probability>  (218) 
1

>  <r_epik_Ionization_Penalty>  (218) 
0.0726949

>  <r_epik_Ionization_Penalty_Charging>  (218) 
0.072551

>  <r_epik_Ionization_Penalty_Neutral>  (218) 
0.000143896

>  <r_epik_State_Penalty>  (218) 
0.0637602

>  <r_epik_Charging_Adjusted_Penalty>  (218) 
0.136311

>  <i_epik_Tot_Q>  (218) 
1

>  <i_epik_Tot_abs_Q>  (218) 
1

>  <s_epik_Chemistry_Notes>  (218) 
This compound contains an acetal/aminal-like group ( X-CH(R)-Y where X, Y are N, S, or O) that may be acid/base labile, releasing an aldehyde.

>  <s_lp_Force_Field>  (218) 
OPLS3e

>  <r_lp_Energy>  (218) 
386.622

>  <b_lp_Chiralities_Consistent>  (218) 
1

>  <s_lp_Variant>  (218) 
69:0-1

>  <s_i_glide_gridfile>  (218) 
pfpi4k_grid

>  <i_i_glide_lignum>  (218) 
10

>  <i_i_glide_rotatable_bonds>  (218) 
2

>  <r_i_docking_score>  (218) 
-3.65054

>  <r_i_glide_ligand_efficiency>  (218) 
-0.140405

>  <r_i_glide_ligand_efficiency_sa>  (218) 
-0.41595

>  <r_i_glide_ligand_efficiency_ln>  (218) 
-0.857317

>  <r_i_glide_gscore>  (218) 
-3.65054

>  <r_i_glide_lipo>  (218) 
-0.874166

>  <r_i_glide_hbond>  (218) 
-0.320141

>  <r_i_glide_metal>  (218) 
-0

>  <r_i_glide_rewards>  (218) 
-0.965105

>  <r_i_glide_evdw>  (218) 
-18.6933

>  <r_i_glide_ecoul>  (218) 
-3.47341

>  <r_i_glide_erotb>  (218) 
0

>  <r_i_glide_esite>  (218) 
-0.0354515

>  <r_i_glide_emodel>  (218) 
-25.8112

>  <r_i_glide_energy>  (218) 
-22.1667

>  <r_i_glide_einternal>  (218) 
0.459518

>  <r_i_glide_intrahb_reward>  (218) 
-0

>  <i_i_glide_confnum>  (218) 
1

>  <i_i_glide_posenum>  (218) 
2

>  <r_i_glide_eff_state_penalty>  (218) 
0

>  <ligand_id>  (218) 
69

>  <original_smiles>  (218) 
CN1CCC2(C)C3Cc4cc(O)ccc4C24C(O)CCC2OC3OC4C21

>  <smiles>  (218) 
[H]Oc1c([H])c([H])c2c(c1[H])C([H])([H])C1([H])C3([H])OC4([H])C([H])([H])C([H])([H])C([H])(O[H])C25C([H])(O3)C4([H])[N+]([H])(C([H])([H])[H])C([H])([H])C([H])([H])C15C([H])([H])[H]

$$$$
69:1:0
     RDKit          3D

 53 58  0  0  1  0  0  0  0  0999 V2000
    3.6570   -4.5683    4.6011 C   0  0  0  0  0  0  0  0  0  0  0  0
    4.0494   -3.8407    3.3653 N   0  0  0  0  0  0  0  0  0  0  0  0
    5.4596   -3.7232    3.3898 C   0  0  0  0  0  0  0  0  0  0  0  0
    5.9519   -2.7651    2.3449 C   0  0  0  0  0  0  0  0  0  0  0  0
    5.1512   -2.5104    1.0518 C   0  0  2  0  0  0  0  0  0  0  0  0
    6.2971   -1.5909    0.4196 C   0  0  0  0  0  0  0  0  0  0  0  0
    3.7634   -1.7121    1.3172 C   0  0  1  0  0  0  0  0  0  0  0  0
    3.5994   -0.8797    0.0150 C   0  0  0  0  0  0  0  0  0  0  0  0
    3.8883   -1.6486   -1.3089 C   0  0  0  0  0  0  0  0  0  0  0  0
    3.5391   -1.0384   -2.5371 C   0  0  0  0  0  0  0  0  0  0  0  0
    3.7778   -1.6724   -3.7653 C   0  0  0  0  0  0  0  0  0  0  0  0
    3.4348   -1.0182   -4.8987 O   0  0  0  0  0  0  0  0  0  0  0  0
    4.3637   -2.9599   -3.7854 C   0  0  0  0  0  0  0  0  0  0  0  0
    4.7469   -3.5812   -2.5733 C   0  0  0  0  0  0  0  0  0  0  0  0
    4.5014   -2.9639   -1.3163 C   0  0  0  0  0  0  0  0  0  0  0  0
    4.7865   -3.6694    0.0346 C   0  0  1  0  0  0  0  0  0  0  0  0
    5.2811   -5.2270    0.0552 C   0  0  1  0  0  0  0  0  0  0  0  0
    6.4444   -5.3866    0.8368 O   0  0  0  0  0  0  0  0  0  0  0  0
    4.2409   -6.4874    0.3717 C   0  0  0  0  0  0  0  0  0  0  0  0
    2.7634   -6.3666    1.1661 C   0  0  0  0  0  0  0  0  0  0  0  0
    2.3273   -5.1494    2.2075 C   0  0  2  0  0  0  0  0  0  0  0  0
    1.9633   -3.6581    2.3096 O   0  0  0  0  0  0  0  0  0  0  0  0
    2.3388   -2.6073    1.3576 C   0  0  2  0  0  0  0  0  0  0  0  0
    2.4323   -3.2632    0.2544 O   0  0  0  0  0  0  0  0  0  0  0  0
    3.5307   -4.0616    0.5819 C   0  0  2  0  0  0  0  0  0  0  0  0
    3.6787   -4.6502    2.1477 C   0  0  1  0  0  0  0  0  0  0  0  0
    4.0054   -4.0193    5.4799 H   0  0  0  0  0  0  0  0  0  0  0  0
    4.0570   -5.5806    4.6658 H   0  0  0  0  0  0  0  0  0  0  0  0
    2.5739   -4.6198    4.6965 H   0  0  0  0  0  0  0  0  0  0  0  0
    5.8171   -3.4038    4.3758 H   0  0  0  0  0  0  0  0  0  0  0  0
    5.9589   -4.6943    3.2433 H   0  0  0  0  0  0  0  0  0  0  0  0
    6.0133   -1.8105    2.8760 H   0  0  0  0  0  0  0  0  0  0  0  0
    6.9676   -3.0606    2.0822 H   0  0  0  0  0  0  0  0  0  0  0  0
    7.2267   -2.1432    0.2591 H   0  0  0  0  0  0  0  0  0  0  0  0
    6.5445   -0.7318    1.0486 H   0  0  0  0  0  0  0  0  0  0  0  0
    6.1305   -1.1653   -0.5647 H   0  0  0  0  0  0  0  0  0  0  0  0
    3.8087   -1.0543    2.1806 H   0  0  0  0  0  0  0  0  0  0  0  0
    2.6181   -0.4284    0.0069 H   0  0  0  0  0  0  0  0  0  0  0  0
    4.2615   -0.0132    0.0355 H   0  0  0  0  0  0  0  0  0  0  0  0
    3.0659   -0.0752   -2.6004 H   0  0  0  0  0  0  0  0  0  0  0  0
    2.6907   -1.4084   -5.3539 H   0  0  0  0  0  0  0  0  0  0  0  0
    4.5508   -3.4611   -4.7139 H   0  0  0  0  0  0  0  0  0  0  0  0
    5.1753   -4.5660   -2.6582 H   0  0  0  0  0  0  0  0  0  0  0  0
    5.6688   -5.4514   -0.9268 H   0  0  0  0  0  0  0  0  0  0  0  0
    6.7642   -6.2587    0.7304 H   0  0  0  0  0  0  0  0  0  0  0  0
    4.0631   -6.9618   -0.5922 H   0  0  0  0  0  0  0  0  0  0  0  0
    4.8116   -7.2660    0.8824 H   0  0  0  0  0  0  0  0  0  0  0  0
    1.9792   -6.5389    0.4244 H   0  0  0  0  0  0  0  0  0  0  0  0
    2.6860   -7.2891    1.7516 H   0  0  0  0  0  0  0  0  0  0  0  0
    1.4964   -5.0433    1.5224 H   0  0  0  0  0  0  0  0  0  0  0  0
    1.5157   -1.8890    1.3229 H   0  0  0  0  0  0  0  0  0  0  0  0
    3.1087   -4.6388   -0.2472 H   0  0  0  0  0  0  0  0  0  0  0  0
    4.3523   -5.4911    2.2979 H   0  0  0  0  0  0  0  0  0  0  0  0
  1  2  1  0
  1 27  1  0
  1 28  1  0
  1 29  1  0
  2 26  1  0
  2  3  1  0
  3  4  1  0
  3 30  1  0
  3 31  1  0
  4  5  1  0
  4 32  1  0
  4 33  1  0
  5 16  1  0
  5  6  1  6
  5  7  1  0
  6 34  1  0
  6 35  1  0
  6 36  1  0
  7 23  1  0
  7  8  1  0
  7 37  1  1
  8  9  1  0
  8 38  1  0
  8 39  1  0
  9 15  2  0
  9 10  1  0
 10 11  2  0
 10 40  1  0
 11 12  1  0
 11 13  1  0
 12 41  1  0
 13 14  2  0
 13 42  1  0
 14 15  1  0
 14 43  1  0
 16 15  1  6
 16 25  1  0
 16 17  1  0
 17 18  1  0
 17 19  1  0
 17 44  1  6
 18 45  1  0
 19 20  1  0
 19 46  1  0
 19 47  1  0
 20 21  1  0
 20 48  1  0
 20 49  1  0
 21 26  1  0
 21 22  1  0
 21 50  1  1
 22 23  1  0
 23 24  1  0
 23 51  1  6
 24 25  1  0
 25 26  1  0
 25 52  1  6
 26 53  1  6
M  END
>  <i_m_ct_stereo_status>  (219) 
1

>  <s_m_source_file>  (219) 
/var/tmp/pbs.5076255.sched01/tmpinim70aj/80j3ziidn5.sdf

>  <i_m_source_file_index>  (219) 
11

>  <i_lp_mmshare_version>  (219) 
48012

>  <i_f3d_flags>  (219) 
0

>  <s_epik_input>  (219) 
W0NIMl0xW0NIMl1OKFtDSDNdKVtDQEhdKFtDQEhdMk8zKVtDQEBIXShbQ0gyXVtDSDJdW0NAQEhdNFtPSF0pT1tDQEhdM1tDQEBIXShDMShDMjQ1KVtDSDNdKVtDSDJdYzZjNVtjSF1bY0hdYyhbY0hdNilbT0hd

>  <s_epik_cmdline>  (219) 
J2VwaWtfcHl0aG9uJywgJy1waHQnLCAnMi4wJywgJy1waCcsICc3LjAnLCAnLXRuJywgJzgnLCAnLW1hJywgJzIwMCcsICctaW1hZScsICc8aW5maWxlLm1hZT4nLCAnLW9tYWUnLCAnPG91dGZpbGUubWFlPic=

>  <r_lp_tautomer_probability>  (219) 
1

>  <r_epik_Ionization_Penalty>  (219) 
1.28027

>  <r_epik_Ionization_Penalty_Charging>  (219) 
0

>  <r_epik_Ionization_Penalty_Neutral>  (219) 
1.28027

>  <r_epik_State_Penalty>  (219) 
1.35236

>  <r_epik_Charging_Adjusted_Penalty>  (219) 
1.35236

>  <i_epik_Tot_Q>  (219) 
0

>  <i_epik_Tot_abs_Q>  (219) 
0

>  <s_epik_Chemistry_Notes>  (219) 
This compound contains an acetal/aminal-like group ( X-CH(R)-Y where X, Y are N, S, or O) that may be acid/base labile, releasing an aldehyde.

>  <s_lp_Force_Field>  (219) 
OPLS3e

>  <r_lp_Energy>  (219) 
358.133

>  <b_lp_Chiralities_Consistent>  (219) 
1

>  <s_lp_Variant>  (219) 
69:0-2

>  <s_i_glide_gridfile>  (219) 
pfpi4k_grid

>  <i_i_glide_lignum>  (219) 
11

>  <i_i_glide_rotatable_bonds>  (219) 
2

>  <r_i_docking_score>  (219) 
-3.83183

>  <r_i_glide_ligand_efficiency>  (219) 
-0.147378

>  <r_i_glide_ligand_efficiency_sa>  (219) 
-0.436607

>  <r_i_glide_ligand_efficiency_ln>  (219) 
-0.899893

>  <r_i_glide_gscore>  (219) 
-3.83183

>  <r_i_glide_lipo>  (219) 
-0.682233

>  <r_i_glide_hbond>  (219) 
-0.608

>  <r_i_glide_metal>  (219) 
-0

>  <r_i_glide_rewards>  (219) 
-0.971977

>  <r_i_glide_evdw>  (219) 
-20.0519

>  <r_i_glide_ecoul>  (219) 
-3.53296

>  <r_i_glide_erotb>  (219) 
0

>  <r_i_glide_esite>  (219) 
-0.0370783

>  <r_i_glide_emodel>  (219) 
-27.886

>  <r_i_glide_energy>  (219) 
-23.5849

>  <r_i_glide_einternal>  (219) 
3.45288

>  <r_i_glide_intrahb_reward>  (219) 
-0

>  <i_i_glide_confnum>  (219) 
2

>  <i_i_glide_posenum>  (219) 
31

>  <r_i_glide_eff_state_penalty>  (219) 
0

>  <ligand_id>  (219) 
69

>  <original_smiles>  (219) 
CN1CCC2(C)C3Cc4cc(O)ccc4C24C(O)CCC2OC3OC4C21

>  <smiles>  (219) 
[H]Oc1c([H])c([H])c2c(c1[H])C([H])([H])C1([H])C3([H])OC4([H])C([H])([H])C([H])([H])C([H])(O[H])C25C([H])(O3)C4([H])N(C([H])([H])[H])C([H])([H])C([H])([H])C15C([H])([H])[H]

$$$$
69:1:1
     RDKit          3D

 53 58  0  0  1  0  0  0  0  0999 V2000
    3.6315   -4.6204    4.6344 C   0  0  0  0  0  0  0  0  0  0  0  0
    4.0307   -3.9081    3.4139 N   0  0  0  0  0  0  0  0  0  0  0  0
    5.4504   -3.7574    3.4474 C   0  0  0  0  0  0  0  0  0  0  0  0
    5.9281   -2.7982    2.4030 C   0  0  0  0  0  0  0  0  0  0  0  0
    5.1476   -2.5285    1.1070 C   0  0  2  0  0  0  0  0  0  0  0  0
    6.2893   -1.6073    0.4937 C   0  0  0  0  0  0  0  0  0  0  0  0
    3.7510   -1.7472    1.3707 C   0  0  1  0  0  0  0  0  0  0  0  0
    3.5906   -0.9034    0.0689 C   0  0  0  0  0  0  0  0  0  0  0  0
    3.8932   -1.6755   -1.2590 C   0  0  0  0  0  0  0  0  0  0  0  0
    3.5554   -1.0682   -2.4708 C   0  0  0  0  0  0  0  0  0  0  0  0
    3.8284   -1.6740   -3.6990 C   0  0  0  0  0  0  0  0  0  0  0  0
    3.5449   -1.0125   -4.8391 O   0  0  0  0  0  0  0  0  0  0  0  0
    4.4201   -2.9538   -3.7159 C   0  0  0  0  0  0  0  0  0  0  0  0
    4.7786   -3.5905   -2.5280 C   0  0  0  0  0  0  0  0  0  0  0  0
    4.5201   -2.9818   -1.2691 C   0  0  0  0  0  0  0  0  0  0  0  0
    4.8013   -3.6932    0.0817 C   0  0  1  0  0  0  0  0  0  0  0  0
    5.2976   -5.2413    0.1003 C   0  0  1  0  0  0  0  0  0  0  0  0
    6.4721   -5.4026    0.8582 O   0  0  0  0  0  0  0  0  0  0  0  0
    4.2615   -6.5210    0.3954 C   0  0  0  0  0  0  0  0  0  0  0  0
    2.7725   -6.4145    1.1779 C   0  0  0  0  0  0  0  0  0  0  0  0
    2.3120   -5.1925    2.2232 C   0  0  2  0  0  0  0  0  0  0  0  0
    1.9372   -3.7012    2.3387 O   0  0  0  0  0  0  0  0  0  0  0  0
    2.3357   -2.6328    1.3871 C   0  0  2  0  0  0  0  0  0  0  0  0
    2.4270   -3.3041    0.2822 O   0  0  0  0  0  0  0  0  0  0  0  0
    3.5331   -4.0928    0.6091 C   0  0  2  0  0  0  0  0  0  0  0  0
    3.6684   -4.6878    2.1822 C   0  0  1  0  0  0  0  0  0  0  0  0
    3.9667   -4.0803    5.5181 H   0  0  0  0  0  0  0  0  0  0  0  0
    4.0364   -5.6335    4.6835 H   0  0  0  0  0  0  0  0  0  0  0  0
    2.5413   -4.6847    4.7172 H   0  0  0  0  0  0  0  0  0  0  0  0
    5.7914   -3.4383    4.4342 H   0  0  0  0  0  0  0  0  0  0  0  0
    5.9254   -4.7232    3.3110 H   0  0  0  0  0  0  0  0  0  0  0  0
    5.9834   -1.8433    2.9380 H   0  0  0  0  0  0  0  0  0  0  0  0
    6.9304   -3.0967    2.0865 H   0  0  0  0  0  0  0  0  0  0  0  0
    7.2215   -2.1551    0.3349 H   0  0  0  0  0  0  0  0  0  0  0  0
    6.5261   -0.7556    1.1353 H   0  0  0  0  0  0  0  0  0  0  0  0
    6.1300   -1.1785   -0.4882 H   0  0  0  0  0  0  0  0  0  0  0  0
    3.7831   -1.0941    2.2410 H   0  0  0  0  0  0  0  0  0  0  0  0
    2.6122   -0.4559    0.0557 H   0  0  0  0  0  0  0  0  0  0  0  0
    4.2598   -0.0403    0.0971 H   0  0  0  0  0  0  0  0  0  0  0  0
    3.0726   -0.1025   -2.5163 H   0  0  0  0  0  0  0  0  0  0  0  0
    2.9024   -0.3126   -4.7192 H   0  0  0  0  0  0  0  0  0  0  0  0
    4.6025   -3.4473   -4.6661 H   0  0  0  0  0  0  0  0  0  0  0  0
    5.2141   -4.5740   -2.6099 H   0  0  0  0  0  0  0  0  0  0  0  0
    5.7003   -5.4482   -0.8796 H   0  0  0  0  0  0  0  0  0  0  0  0
    6.2371   -5.3238    1.7787 H   0  0  0  0  0  0  0  0  0  0  0  0
    4.0954   -6.9805   -0.5747 H   0  0  0  0  0  0  0  0  0  0  0  0
    4.8373   -7.2867    0.9098 H   0  0  0  0  0  0  0  0  0  0  0  0
    1.9930   -6.5689    0.4307 H   0  0  0  0  0  0  0  0  0  0  0  0
    2.6960   -7.3309    1.7599 H   0  0  0  0  0  0  0  0  0  0  0  0
    1.4802   -5.0785    1.5420 H   0  0  0  0  0  0  0  0  0  0  0  0
    1.5042   -1.9358    1.3368 H   0  0  0  0  0  0  0  0  0  0  0  0
    3.1198   -4.6691   -0.2241 H   0  0  0  0  0  0  0  0  0  0  0  0
    4.3409   -5.5238    2.3500 H   0  0  0  0  0  0  0  0  0  0  0  0
  1  2  1  0
  1 27  1  0
  1 28  1  0
  1 29  1  0
  2 26  1  0
  2  3  1  0
  3  4  1  0
  3 30  1  0
  3 31  1  0
  4  5  1  0
  4 32  1  0
  4 33  1  0
  5 16  1  0
  5  6  1  6
  5  7  1  0
  6 34  1  0
  6 35  1  0
  6 36  1  0
  7 23  1  0
  7  8  1  0
  7 37  1  1
  8  9  1  0
  8 38  1  0
  8 39  1  0
  9 15  2  0
  9 10  1  0
 10 11  2  0
 10 40  1  0
 11 12  1  0
 11 13  1  0
 12 41  1  0
 13 14  2  0
 13 42  1  0
 14 15  1  0
 14 43  1  0
 16 15  1  6
 16 25  1  0
 16 17  1  0
 17 18  1  0
 17 19  1  0
 17 44  1  6
 18 45  1  0
 19 20  1  0
 19 46  1  0
 19 47  1  0
 20 21  1  0
 20 48  1  0
 20 49  1  0
 21 26  1  0
 21 22  1  0
 21 50  1  1
 22 23  1  0
 23 24  1  0
 23 51  1  6
 24 25  1  0
 25 26  1  0
 25 52  1  6
 26 53  1  6
M  END
>  <i_m_ct_stereo_status>  (220) 
1

>  <s_m_source_file>  (220) 
/var/tmp/pbs.5076255.sched01/tmpinim70aj/80j3ziidn5.sdf

>  <i_m_source_file_index>  (220) 
11

>  <i_lp_mmshare_version>  (220) 
48012

>  <i_f3d_flags>  (220) 
0

>  <s_epik_input>  (220) 
W0NIMl0xW0NIMl1OKFtDSDNdKVtDQEhdKFtDQEhdMk8zKVtDQEBIXShbQ0gyXVtDSDJdW0NAQEhdNFtPSF0pT1tDQEhdM1tDQEBIXShDMShDMjQ1KVtDSDNdKVtDSDJdYzZjNVtjSF1bY0hdYyhbY0hdNilbT0hd

>  <s_epik_cmdline>  (220) 
J2VwaWtfcHl0aG9uJywgJy1waHQnLCAnMi4wJywgJy1waCcsICc3LjAnLCAnLXRuJywgJzgnLCAnLW1hJywgJzIwMCcsICctaW1hZScsICc8aW5maWxlLm1hZT4nLCAnLW9tYWUnLCAnPG91dGZpbGUubWFlPic=

>  <r_lp_tautomer_probability>  (220) 
1

>  <r_epik_Ionization_Penalty>  (220) 
1.28027

>  <r_epik_Ionization_Penalty_Charging>  (220) 
0

>  <r_epik_Ionization_Penalty_Neutral>  (220) 
1.28027

>  <r_epik_State_Penalty>  (220) 
1.35236

>  <r_epik_Charging_Adjusted_Penalty>  (220) 
1.35236

>  <i_epik_Tot_Q>  (220) 
0

>  <i_epik_Tot_abs_Q>  (220) 
0

>  <s_epik_Chemistry_Notes>  (220) 
This compound contains an acetal/aminal-like group ( X-CH(R)-Y where X, Y are N, S, or O) that may be acid/base labile, releasing an aldehyde.

>  <s_lp_Force_Field>  (220) 
OPLS3e

>  <r_lp_Energy>  (220) 
358.133

>  <b_lp_Chiralities_Consistent>  (220) 
1

>  <s_lp_Variant>  (220) 
69:0-2

>  <s_i_glide_gridfile>  (220) 
pfpi4k_grid

>  <i_i_glide_lignum>  (220) 
11

>  <i_i_glide_rotatable_bonds>  (220) 
2

>  <r_i_docking_score>  (220) 
-3.39895

>  <r_i_glide_ligand_efficiency>  (220) 
-0.130729

>  <r_i_glide_ligand_efficiency_sa>  (220) 
-0.387284

>  <r_i_glide_ligand_efficiency_ln>  (220) 
-0.798233

>  <r_i_glide_gscore>  (220) 
-3.39895

>  <r_i_glide_lipo>  (220) 
-0.763927

>  <r_i_glide_hbond>  (220) 
-0.32

>  <r_i_glide_metal>  (220) 
-0

>  <r_i_glide_rewards>  (220) 
-0.971977

>  <r_i_glide_evdw>  (220) 
-20.8357

>  <r_i_glide_ecoul>  (220) 
-1.77419

>  <r_i_glide_erotb>  (220) 
0

>  <r_i_glide_esite>  (220) 
-0.035135

>  <r_i_glide_emodel>  (220) 
-28.1812

>  <r_i_glide_energy>  (220) 
-22.6099

>  <r_i_glide_einternal>  (220) 
0.173083

>  <r_i_glide_intrahb_reward>  (220) 
-0

>  <i_i_glide_confnum>  (220) 
2

>  <i_i_glide_posenum>  (220) 
17

>  <r_i_glide_eff_state_penalty>  (220) 
0

>  <ligand_id>  (220) 
69

>  <original_smiles>  (220) 
CN1CCC2(C)C3Cc4cc(O)ccc4C24C(O)CCC2OC3OC4C21

>  <smiles>  (220) 
[H]Oc1c([H])c([H])c2c(c1[H])C([H])([H])C1([H])C3([H])OC4([H])C([H])([H])C([H])([H])C([H])(O[H])C25C([H])(O3)C4([H])N(C([H])([H])[H])C([H])([H])C([H])([H])C15C([H])([H])[H]

$$$$
69:1:2
     RDKit          3D

 53 58  0  0  1  0  0  0  0  0999 V2000
    2.6542   -9.3684    5.5378 C   0  0  0  0  0  0  0  0  0  0  0  0
    3.0748   -8.1302    4.8593 N   0  0  0  0  0  0  0  0  0  0  0  0
    4.3909   -7.8070    5.3201 C   0  0  0  0  0  0  0  0  0  0  0  0
    4.7810   -6.4044    4.9605 C   0  0  0  0  0  0  0  0  0  0  0  0
    4.1584   -5.6861    3.7130 C   0  0  2  0  0  0  0  0  0  0  0  0
    5.1120   -4.4272    3.8339 C   0  0  0  0  0  0  0  0  0  0  0  0
    2.5753   -5.3197    3.9096 C   0  0  1  0  0  0  0  0  0  0  0  0
    2.4031   -4.0042    3.0749 C   0  0  0  0  0  0  0  0  0  0  0  0
    3.0873   -4.0195    1.6729 C   0  0  0  0  0  0  0  0  0  0  0  0
    2.7923   -2.9579    0.7906 C   0  0  0  0  0  0  0  0  0  0  0  0
    3.3826   -2.9153   -0.4848 C   0  0  0  0  0  0  0  0  0  0  0  0
    3.0292   -1.9279   -1.3667 O   0  0  0  0  0  0  0  0  0  0  0  0
    4.2962   -3.9020   -0.8685 C   0  0  0  0  0  0  0  0  0  0  0  0
    4.6036   -4.9736   -0.0097 C   0  0  0  0  0  0  0  0  0  0  0  0
    4.0048   -5.0602    1.2714 C   0  0  0  0  0  0  0  0  0  0  0  0
    4.2557   -6.2726    2.2264 C   0  0  1  0  0  0  0  0  0  0  0  0
    5.1066   -7.5676    1.7016 C   0  0  1  0  0  0  0  0  0  0  0  0
    6.1417   -7.8720    2.6119 O   0  0  0  0  0  0  0  0  0  0  0  0
    4.3739   -8.9828    1.1730 C   0  0  0  0  0  0  0  0  0  0  0  0
    2.8091   -9.4757    1.5436 C   0  0  0  0  0  0  0  0  0  0  0  0
    1.8966   -8.9463    2.8475 C   0  0  2  0  0  0  0  0  0  0  0  0
    1.1465   -7.7482    3.4789 O   0  0  0  0  0  0  0  0  0  0  0  0
    1.4227   -6.3194    3.2030 C   0  0  2  0  0  0  0  0  0  0  0  0
    1.8316   -6.3741    1.9734 O   0  0  0  0  0  0  0  0  0  0  0  0
    3.0443   -7.0535    2.2020 C   0  0  2  0  0  0  0  0  0  0  0  0
    3.0772   -8.2815    3.3620 C   0  0  1  0  0  0  0  0  0  0  0  0
    2.7031   -9.2467    6.6191 H   0  0  0  0  0  0  0  0  0  0  0  0
    3.2774  -10.2146    5.2644 H   0  0  0  0  0  0  0  0  0  0  0  0
    1.6142   -9.6182    5.3098 H   0  0  0  0  0  0  0  0  0  0  0  0
    4.4650   -7.9221    6.3969 H   0  0  0  0  0  0  0  0  0  0  0  0
    5.1036   -8.5149    4.9145 H   0  0  0  0  0  0  0  0  0  0  0  0
    4.4771   -5.8172    5.8300 H   0  0  0  0  0  0  0  0  0  0  0  0
    5.8723   -6.3751    4.9736 H   0  0  0  0  0  0  0  0  0  0  0  0
    6.1558   -4.7139    3.7089 H   0  0  0  0  0  0  0  0  0  0  0  0
    5.0181   -3.9333    4.8003 H   0  0  0  0  0  0  0  0  0  0  0  0
    5.0023   -3.6290    3.1072 H   0  0  0  0  0  0  0  0  0  0  0  0
    2.3031   -5.1548    4.9518 H   0  0  0  0  0  0  0  0  0  0  0  0
    1.3510   -3.7408    2.9634 H   0  0  0  0  0  0  0  0  0  0  0  0
    2.8265   -3.1690    3.6309 H   0  0  0  0  0  0  0  0  0  0  0  0
    2.0940   -2.1879    1.0859 H   0  0  0  0  0  0  0  0  0  0  0  0
    2.2347   -1.4597   -1.1188 H   0  0  0  0  0  0  0  0  0  0  0  0
    4.7332   -3.8773   -1.8568 H   0  0  0  0  0  0  0  0  0  0  0  0
    5.2687   -5.7308   -0.3835 H   0  0  0  0  0  0  0  0  0  0  0  0
    5.7254   -7.2458    0.8704 H   0  0  0  0  0  0  0  0  0  0  0  0
    5.7450   -8.1342    3.4336 H   0  0  0  0  0  0  0  0  0  0  0  0
    4.4343   -8.9735    0.0834 H   0  0  0  0  0  0  0  0  0  0  0  0
    5.0360   -9.8039    1.4489 H   0  0  0  0  0  0  0  0  0  0  0  0
    2.2220   -9.4132    0.6224 H   0  0  0  0  0  0  0  0  0  0  0  0
    2.8810  -10.5548    1.6884 H   0  0  0  0  0  0  0  0  0  0  0  0
    1.1738   -8.6590    2.0881 H   0  0  0  0  0  0  0  0  0  0  0  0
    0.4518   -5.8291    3.2489 H   0  0  0  0  0  0  0  0  0  0  0  0
    2.9136   -7.2502    1.1308 H   0  0  0  0  0  0  0  0  0  0  0  0
    3.9026   -8.9824    3.3359 H   0  0  0  0  0  0  0  0  0  0  0  0
  1  2  1  0
  1 27  1  0
  1 28  1  0
  1 29  1  0
  2 26  1  0
  2  3  1  0
  3  4  1  0
  3 30  1  0
  3 31  1  0
  4  5  1  0
  4 32  1  0
  4 33  1  0
  5 16  1  0
  5  6  1  6
  5  7  1  0
  6 34  1  0
  6 35  1  0
  6 36  1  0
  7 23  1  0
  7  8  1  0
  7 37  1  1
  8  9  1  0
  8 38  1  0
  8 39  1  0
  9 15  2  0
  9 10  1  0
 10 11  2  0
 10 40  1  0
 11 12  1  0
 11 13  1  0
 12 41  1  0
 13 14  2  0
 13 42  1  0
 14 15  1  0
 14 43  1  0
 16 15  1  6
 16 25  1  0
 16 17  1  0
 17 18  1  0
 17 19  1  0
 17 44  1  6
 18 45  1  0
 19 20  1  0
 19 46  1  0
 19 47  1  0
 20 21  1  0
 20 48  1  0
 20 49  1  0
 21 26  1  0
 21 22  1  0
 21 50  1  1
 22 23  1  0
 23 24  1  0
 23 51  1  6
 24 25  1  0
 25 26  1  0
 25 52  1  6
 26 53  1  6
M  END
>  <i_m_ct_stereo_status>  (221) 
1

>  <s_m_source_file>  (221) 
/var/tmp/pbs.5076255.sched01/tmpinim70aj/80j3ziidn5.sdf

>  <i_m_source_file_index>  (221) 
11

>  <i_lp_mmshare_version>  (221) 
48012

>  <i_f3d_flags>  (221) 
0

>  <s_epik_input>  (221) 
W0NIMl0xW0NIMl1OKFtDSDNdKVtDQEhdKFtDQEhdMk8zKVtDQEBIXShbQ0gyXVtDSDJdW0NAQEhdNFtPSF0pT1tDQEhdM1tDQEBIXShDMShDMjQ1KVtDSDNdKVtDSDJdYzZjNVtjSF1bY0hdYyhbY0hdNilbT0hd

>  <s_epik_cmdline>  (221) 
J2VwaWtfcHl0aG9uJywgJy1waHQnLCAnMi4wJywgJy1waCcsICc3LjAnLCAnLXRuJywgJzgnLCAnLW1hJywgJzIwMCcsICctaW1hZScsICc8aW5maWxlLm1hZT4nLCAnLW9tYWUnLCAnPG91dGZpbGUubWFlPic=

>  <r_lp_tautomer_probability>  (221) 
1

>  <r_epik_Ionization_Penalty>  (221) 
1.28027

>  <r_epik_Ionization_Penalty_Charging>  (221) 
0

>  <r_epik_Ionization_Penalty_Neutral>  (221) 
1.28027

>  <r_epik_State_Penalty>  (221) 
1.35236

>  <r_epik_Charging_Adjusted_Penalty>  (221) 
1.35236

>  <i_epik_Tot_Q>  (221) 
0

>  <i_epik_Tot_abs_Q>  (221) 
0

>  <s_epik_Chemistry_Notes>  (221) 
This compound contains an acetal/aminal-like group ( X-CH(R)-Y where X, Y are N, S, or O) that may be acid/base labile, releasing an aldehyde.

>  <s_lp_Force_Field>  (221) 
OPLS3e

>  <r_lp_Energy>  (221) 
358.133

>  <b_lp_Chiralities_Consistent>  (221) 
1

>  <s_lp_Variant>  (221) 
69:0-2

>  <s_i_glide_gridfile>  (221) 
pfpi4k_grid

>  <i_i_glide_lignum>  (221) 
11

>  <i_i_glide_rotatable_bonds>  (221) 
2

>  <r_i_docking_score>  (221) 
-2.97635

>  <r_i_glide_ligand_efficiency>  (221) 
-0.114475

>  <r_i_glide_ligand_efficiency_sa>  (221) 
-0.339131

>  <r_i_glide_ligand_efficiency_ln>  (221) 
-0.698985

>  <r_i_glide_gscore>  (221) 
-2.97635

>  <r_i_glide_lipo>  (221) 
-0.106719

>  <r_i_glide_hbond>  (221) 
-0.16

>  <r_i_glide_metal>  (221) 
-0

>  <r_i_glide_rewards>  (221) 
-0.971977

>  <r_i_glide_evdw>  (221) 
-16.3968

>  <r_i_glide_ecoul>  (221) 
-5.98875

>  <r_i_glide_erotb>  (221) 
0

>  <r_i_glide_esite>  (221) 
-0.0194971

>  <r_i_glide_emodel>  (221) 
-27.1548

>  <r_i_glide_energy>  (221) 
-22.3856

>  <r_i_glide_einternal>  (221) 
0.410227

>  <r_i_glide_intrahb_reward>  (221) 
-0

>  <i_i_glide_confnum>  (221) 
1

>  <i_i_glide_posenum>  (221) 
32

>  <r_i_glide_eff_state_penalty>  (221) 
0

>  <ligand_id>  (221) 
69

>  <original_smiles>  (221) 
CN1CCC2(C)C3Cc4cc(O)ccc4C24C(O)CCC2OC3OC4C21

>  <smiles>  (221) 
[H]Oc1c([H])c([H])c2c(c1[H])C([H])([H])C1([H])C3([H])OC4([H])C([H])([H])C([H])([H])C([H])(O[H])C25C([H])(O3)C4([H])N(C([H])([H])[H])C([H])([H])C([H])([H])C15C([H])([H])[H]

$$$$
70:0:0
     RDKit          3D

 48 53  0  0  1  0  0  0  0  0999 V2000
   -0.1459    0.6897    2.0767 C   0  0  0  0  0  0  0  0  0  0  0  0
    0.5457    0.5321    3.4290 C   0  0  0  0  0  0  0  0  0  0  0  0
    0.0290   -0.2041    4.2776 O   0  0  0  0  0  0  0  0  0  0  0  0
    1.8701    1.3768    3.6797 C   0  0  2  0  0  0  0  0  0  0  0  0
    2.8763    0.4482    3.0268 C   0  0  0  0  0  0  0  0  0  0  0  0
    3.3453    0.3948    1.7055 C   0  0  0  0  0  0  0  0  0  0  0  0
    4.1262   -0.7228    1.3319 C   0  0  0  0  0  0  0  0  0  0  0  0
    4.3805   -1.7772    2.2478 C   0  0  0  0  0  0  0  0  0  0  0  0
    3.9192   -1.7060    3.5828 C   0  0  0  0  0  0  0  0  0  0  0  0
    3.1955   -0.5668    3.9639 C   0  0  0  0  0  0  0  0  0  0  0  0
    2.7233   -0.1227    5.3214 C   0  0  0  0  0  0  0  0  0  0  0  0
    2.5943   -0.7441    6.3754 O   0  0  0  0  0  0  0  0  0  0  0  0
    2.5673    1.3926    5.1130 C   0  0  1  0  0  0  0  0  0  0  0  0
    4.1295    1.7593    5.1809 C   0  0  0  0  0  0  0  0  0  0  0  0
    1.8385    2.5010    6.0032 C   0  0  2  0  0  0  0  0  0  0  0  0
    0.3818    2.7644    5.6065 C   0  0  0  0  0  0  0  0  0  0  0  0
   -0.7021    2.7694    6.5022 C   0  0  0  0  0  0  0  0  0  0  0  0
   -1.9797    3.1162    6.0150 C   0  0  0  0  0  0  0  0  0  0  0  0
   -2.1597    3.4529    4.6539 C   0  0  0  0  0  0  0  0  0  0  0  0
   -1.0720    3.4601    3.7586 C   0  0  0  0  0  0  0  0  0  0  0  0
    0.1975    3.0930    4.2386 C   0  0  0  0  0  0  0  0  0  0  0  0
    1.4734    2.9010    3.3793 C   0  0  1  0  0  0  0  0  0  0  0  0
    2.3667    3.9423    4.0565 C   0  0  0  0  0  0  0  0  0  0  0  0
    2.9633    5.0206    3.3847 C   0  0  0  0  0  0  0  0  0  0  0  0
    3.6772    5.9727    4.1393 C   0  0  0  0  0  0  0  0  0  0  0  0
    3.7832    5.8419    5.5439 C   0  0  0  0  0  0  0  0  0  0  0  0
    3.1844    4.7560    6.2216 C   0  0  0  0  0  0  0  0  0  0  0  0
    2.4742    3.8052    5.4662 C   0  0  0  0  0  0  0  0  0  0  0  0
   -0.3764    1.7286    1.8393 H   0  0  0  0  0  0  0  0  0  0  0  0
   -1.0874    0.1470    2.1043 H   0  0  0  0  0  0  0  0  0  0  0  0
    0.4759    0.2908    1.2805 H   0  0  0  0  0  0  0  0  0  0  0  0
    3.1009    1.1845    1.0049 H   0  0  0  0  0  0  0  0  0  0  0  0
    4.5102   -0.7836    0.3215 H   0  0  0  0  0  0  0  0  0  0  0  0
    4.9423   -2.6364    1.9202 H   0  0  0  0  0  0  0  0  0  0  0  0
    4.1322   -2.4885    4.2985 H   0  0  0  0  0  0  0  0  0  0  0  0
    4.4344    2.5212    4.4651 H   0  0  0  0  0  0  0  0  0  0  0  0
    4.8513    0.9561    5.0169 H   0  0  0  0  0  0  0  0  0  0  0  0
    4.3875    2.1246    6.1777 H   0  0  0  0  0  0  0  0  0  0  0  0
    1.9771    2.3738    7.0789 H   0  0  0  0  0  0  0  0  0  0  0  0
   -0.5532    2.5432    7.5490 H   0  0  0  0  0  0  0  0  0  0  0  0
   -2.8210    3.1404    6.6916 H   0  0  0  0  0  0  0  0  0  0  0  0
   -3.1414    3.7060    4.2848 H   0  0  0  0  0  0  0  0  0  0  0  0
   -1.2194    3.7107    2.7178 H   0  0  0  0  0  0  0  0  0  0  0  0
    1.3236    3.1114    2.3239 H   0  0  0  0  0  0  0  0  0  0  0  0
    2.8516    5.1338    2.3158 H   0  0  0  0  0  0  0  0  0  0  0  0
    4.1398    6.8116    3.6387 H   0  0  0  0  0  0  0  0  0  0  0  0
    4.3316    6.5833    6.1043 H   0  0  0  0  0  0  0  0  0  0  0  0
    3.2755    4.6510    7.2931 H   0  0  0  0  0  0  0  0  0  0  0  0
  1  2  1  0
  1 29  1  0
  1 30  1  0
  1 31  1  0
  2  3  2  0
  4  2  1  1
  4 13  1  0
  4 22  1  0
  4  5  1  0
  5 10  2  0
  5  6  1  0
  6  7  2  0
  6 32  1  0
  7  8  1  0
  7 33  1  0
  8  9  2  0
  8 34  1  0
  9 10  1  0
  9 35  1  0
 10 11  1  0
 11 12  2  0
 11 13  1  0
 13 14  1  6
 13 15  1  0
 14 36  1  0
 14 37  1  0
 14 38  1  0
 15 28  1  0
 15 16  1  0
 15 39  1  1
 16 21  2  0
 16 17  1  0
 17 18  2  0
 17 40  1  0
 18 19  1  0
 18 41  1  0
 19 20  2  0
 19 42  1  0
 20 21  1  0
 20 43  1  0
 21 22  1  0
 22 23  1  0
 22 44  1  6
 23 28  2  0
 23 24  1  0
 24 25  2  0
 24 45  1  0
 25 26  1  0
 25 46  1  0
 26 27  2  0
 26 47  1  0
 27 28  1  0
 27 48  1  0
M  END
>  <i_m_ct_stereo_status>  (222) 
1

>  <s_m_source_file>  (222) 
/var/tmp/pbs.5076255.sched01/tmpinim70aj/80j3ziidn5.sdf

>  <i_m_source_file_index>  (222) 
12

>  <i_lp_mmshare_version>  (222) 
48012

>  <i_f3d_flags>  (222) 
0

>  <s_epik_input>  (222) 
W0NIM11DKD1PKVtDQF0xMmMzYyhbY0hdW2NIXVtjSF1bY0hdMylDKD1PKVtDQF0xKFtDSDNdKVtDQEBIXTRjNWMoW2NIXVtjSF1bY0hdW2NIXTUpW0NASF0yYzZjNFtjSF1bY0hdW2NIXVtjSF02

>  <s_epik_cmdline>  (222) 
J2VwaWtfcHl0aG9uJywgJy1waHQnLCAnMi4wJywgJy1waCcsICc3LjAnLCAnLXRuJywgJzgnLCAnLW1hJywgJzIwMCcsICctaW1hZScsICc8aW5maWxlLm1hZT4nLCAnLW9tYWUnLCAnPG91dGZpbGUubWFlPic=

>  <r_lp_tautomer_probability>  (222) 
1

>  <r_epik_Ionization_Penalty>  (222) 
9.62112e-12

>  <r_epik_Ionization_Penalty_Charging>  (222) 
0

>  <r_epik_Ionization_Penalty_Neutral>  (222) 
9.62112e-12

>  <r_epik_State_Penalty>  (222) 
-0

>  <r_epik_Charging_Adjusted_Penalty>  (222) 
0

>  <i_epik_Tot_Q>  (222) 
0

>  <i_epik_Tot_abs_Q>  (222) 
0

>  <s_lp_Force_Field>  (222) 
OPLS3e

>  <r_lp_Energy>  (222) 
139.799

>  <b_lp_Chiralities_Consistent>  (222) 
1

>  <s_lp_Variant>  (222) 
70:0-1

>  <s_i_glide_gridfile>  (222) 
pfpi4k_grid

>  <i_i_glide_lignum>  (222) 
12

>  <i_i_glide_rotatable_bonds>  (222) 
1

>  <r_i_docking_score>  (222) 
-2.64393

>  <r_i_glide_ligand_efficiency>  (222) 
-0.0944262

>  <r_i_glide_ligand_efficiency_sa>  (222) 
-0.286734

>  <r_i_glide_ligand_efficiency_ln>  (222) 
-0.610297

>  <r_i_glide_gscore>  (222) 
-2.64393

>  <r_i_glide_lipo>  (222) 
-0.3216

>  <r_i_glide_hbond>  (222) 
0

>  <r_i_glide_metal>  (222) 
-0

>  <r_i_glide_rewards>  (222) 
-0.924301

>  <r_i_glide_evdw>  (222) 
-23.8042

>  <r_i_glide_ecoul>  (222) 
-1.2643

>  <r_i_glide_erotb>  (222) 
0

>  <r_i_glide_esite>  (222) 
-0.0181769

>  <r_i_glide_emodel>  (222) 
-28.7242

>  <r_i_glide_energy>  (222) 
-25.0685

>  <r_i_glide_einternal>  (222) 
0.967613

>  <r_i_glide_intrahb_reward>  (222) 
-0

>  <i_i_glide_confnum>  (222) 
1

>  <i_i_glide_posenum>  (222) 
3

>  <r_i_glide_eff_state_penalty>  (222) 
0

>  <ligand_id>  (222) 
70

>  <original_smiles>  (222) 
CC(=O)C12c3ccccc3C(=O)C1(C)C1c3ccccc3C2c2ccccc21

>  <smiles>  (222) 
[H]c1c([H])c([H])c2c(c1[H])C(=O)C1(C([H])([H])[H])C3([H])c4c([H])c([H])c([H])c([H])c4C([H])(c4c([H])c([H])c([H])c([H])c43)C21C(=O)C([H])([H])[H]

$$$$
70:0:1
     RDKit          3D

 48 53  0  0  1  0  0  0  0  0999 V2000
   -0.3420   -0.1979    4.7788 C   0  0  0  0  0  0  0  0  0  0  0  0
    0.5536    0.2738    3.6076 C   0  0  0  0  0  0  0  0  0  0  0  0
    0.2963   -0.1309    2.4794 O   0  0  0  0  0  0  0  0  0  0  0  0
    1.7769    1.2864    3.7863 C   0  0  2  0  0  0  0  0  0  0  0  0
    2.8963    0.4068    3.2562 C   0  0  0  0  0  0  0  0  0  0  0  0
    3.4026    0.2159    1.9573 C   0  0  0  0  0  0  0  0  0  0  0  0
    4.2779   -0.8737    1.7344 C   0  0  0  0  0  0  0  0  0  0  0  0
    4.5905   -1.7872    2.7790 C   0  0  0  0  0  0  0  0  0  0  0  0
    4.0874   -1.5852    4.0848 C   0  0  0  0  0  0  0  0  0  0  0  0
    3.2728   -0.4727    4.3156 C   0  0  0  0  0  0  0  0  0  0  0  0
    2.7204    0.0897    5.5945 C   0  0  0  0  0  0  0  0  0  0  0  0
    2.6034   -0.4202    6.7041 O   0  0  0  0  0  0  0  0  0  0  0  0
    2.4353    1.5491    5.2040 C   0  0  1  0  0  0  0  0  0  0  0  0
    3.9554    2.0597    5.2464 C   0  0  0  0  0  0  0  0  0  0  0  0
    1.5830    2.6950    5.9264 C   0  0  2  0  0  0  0  0  0  0  0  0
    0.1229    2.8139    5.4673 C   0  0  0  0  0  0  0  0  0  0  0  0
   -0.9840    2.8569    6.3268 C   0  0  0  0  0  0  0  0  0  0  0  0
   -2.2757    3.0051    5.7758 C   0  0  0  0  0  0  0  0  0  0  0  0
   -2.4457    3.1373    4.3738 C   0  0  0  0  0  0  0  0  0  0  0  0
   -1.3290    3.1012    3.5086 C   0  0  0  0  0  0  0  0  0  0  0  0
   -0.0482    2.9150    4.0585 C   0  0  0  0  0  0  0  0  0  0  0  0
    1.2596    2.7117    3.2671 C   0  0  1  0  0  0  0  0  0  0  0  0
    2.0471    3.9103    3.8155 C   0  0  0  0  0  0  0  0  0  0  0  0
    2.5739    4.9429    3.0280 C   0  0  0  0  0  0  0  0  0  0  0  0
    3.1820    6.0391    3.6745 C   0  0  0  0  0  0  0  0  0  0  0  0
    3.2513    6.1002    5.0901 C   0  0  0  0  0  0  0  0  0  0  0  0
    2.7234    5.0557    5.8815 C   0  0  0  0  0  0  0  0  0  0  0  0
    2.1240    3.9622    5.2391 C   0  0  0  0  0  0  0  0  0  0  0  0
    0.2053   -0.5394    5.6578 H   0  0  0  0  0  0  0  0  0  0  0  0
   -0.9821   -1.0210    4.4562 H   0  0  0  0  0  0  0  0  0  0  0  0
   -1.0236    0.5853    5.0953 H   0  0  0  0  0  0  0  0  0  0  0  0
    3.1086    0.8784    1.1471 H   0  0  0  0  0  0  0  0  0  0  0  0
    4.6978   -1.0323    0.7448 H   0  0  0  0  0  0  0  0  0  0  0  0
    5.2337   -2.6315    2.5710 H   0  0  0  0  0  0  0  0  0  0  0  0
    4.3387   -2.2667    4.8930 H   0  0  0  0  0  0  0  0  0  0  0  0
    4.2184    2.7451    4.4414 H   0  0  0  0  0  0  0  0  0  0  0  0
    4.7513    1.3088    5.1940 H   0  0  0  0  0  0  0  0  0  0  0  0
    4.1491    2.5605    6.1967 H   0  0  0  0  0  0  0  0  0  0  0  0
    1.6969    2.7237    7.0092 H   0  0  0  0  0  0  0  0  0  0  0  0
   -0.8580    2.7653    7.3971 H   0  0  0  0  0  0  0  0  0  0  0  0
   -3.1441    2.9869    6.4196 H   0  0  0  0  0  0  0  0  0  0  0  0
   -3.4427    3.2162    3.9665 H   0  0  0  0  0  0  0  0  0  0  0  0
   -1.4696    3.1654    2.4386 H   0  0  0  0  0  0  0  0  0  0  0  0
    1.0912    2.7494    2.1901 H   0  0  0  0  0  0  0  0  0  0  0  0
    2.4710    4.9180    1.9500 H   0  0  0  0  0  0  0  0  0  0  0  0
    3.5825    6.8513    3.0859 H   0  0  0  0  0  0  0  0  0  0  0  0
    3.7067    6.9572    5.5654 H   0  0  0  0  0  0  0  0  0  0  0  0
    2.7792    5.0938    6.9607 H   0  0  0  0  0  0  0  0  0  0  0  0
  1  2  1  0
  1 29  1  0
  1 30  1  0
  1 31  1  0
  2  3  2  0
  4  2  1  1
  4 13  1  0
  4 22  1  0
  4  5  1  0
  5 10  2  0
  5  6  1  0
  6  7  2  0
  6 32  1  0
  7  8  1  0
  7 33  1  0
  8  9  2  0
  8 34  1  0
  9 10  1  0
  9 35  1  0
 10 11  1  0
 11 12  2  0
 11 13  1  0
 13 14  1  6
 13 15  1  0
 14 36  1  0
 14 37  1  0
 14 38  1  0
 15 28  1  0
 15 16  1  0
 15 39  1  1
 16 21  2  0
 16 17  1  0
 17 18  2  0
 17 40  1  0
 18 19  1  0
 18 41  1  0
 19 20  2  0
 19 42  1  0
 20 21  1  0
 20 43  1  0
 21 22  1  0
 22 23  1  0
 22 44  1  6
 23 28  2  0
 23 24  1  0
 24 25  2  0
 24 45  1  0
 25 26  1  0
 25 46  1  0
 26 27  2  0
 26 47  1  0
 27 28  1  0
 27 48  1  0
M  END
>  <i_m_ct_stereo_status>  (223) 
1

>  <s_m_source_file>  (223) 
/var/tmp/pbs.5076255.sched01/tmpinim70aj/80j3ziidn5.sdf

>  <i_m_source_file_index>  (223) 
12

>  <i_lp_mmshare_version>  (223) 
48012

>  <i_f3d_flags>  (223) 
0

>  <s_epik_input>  (223) 
W0NIM11DKD1PKVtDQF0xMmMzYyhbY0hdW2NIXVtjSF1bY0hdMylDKD1PKVtDQF0xKFtDSDNdKVtDQEBIXTRjNWMoW2NIXVtjSF1bY0hdW2NIXTUpW0NASF0yYzZjNFtjSF1bY0hdW2NIXVtjSF02

>  <s_epik_cmdline>  (223) 
J2VwaWtfcHl0aG9uJywgJy1waHQnLCAnMi4wJywgJy1waCcsICc3LjAnLCAnLXRuJywgJzgnLCAnLW1hJywgJzIwMCcsICctaW1hZScsICc8aW5maWxlLm1hZT4nLCAnLW9tYWUnLCAnPG91dGZpbGUubWFlPic=

>  <r_lp_tautomer_probability>  (223) 
1

>  <r_epik_Ionization_Penalty>  (223) 
9.62112e-12

>  <r_epik_Ionization_Penalty_Charging>  (223) 
0

>  <r_epik_Ionization_Penalty_Neutral>  (223) 
9.62112e-12

>  <r_epik_State_Penalty>  (223) 
-0

>  <r_epik_Charging_Adjusted_Penalty>  (223) 
0

>  <i_epik_Tot_Q>  (223) 
0

>  <i_epik_Tot_abs_Q>  (223) 
0

>  <s_lp_Force_Field>  (223) 
OPLS3e

>  <r_lp_Energy>  (223) 
139.799

>  <b_lp_Chiralities_Consistent>  (223) 
1

>  <s_lp_Variant>  (223) 
70:0-1

>  <s_i_glide_gridfile>  (223) 
pfpi4k_grid

>  <i_i_glide_lignum>  (223) 
12

>  <i_i_glide_rotatable_bonds>  (223) 
1

>  <r_i_docking_score>  (223) 
-2.35546

>  <r_i_glide_ligand_efficiency>  (223) 
-0.0841235

>  <r_i_glide_ligand_efficiency_sa>  (223) 
-0.255449

>  <r_i_glide_ligand_efficiency_ln>  (223) 
-0.543709

>  <r_i_glide_gscore>  (223) 
-2.35546

>  <r_i_glide_lipo>  (223) 
-0.253078

>  <r_i_glide_hbond>  (223) 
0

>  <r_i_glide_metal>  (223) 
-0

>  <r_i_glide_rewards>  (223) 
-0.924301

>  <r_i_glide_evdw>  (223) 
-25.445

>  <r_i_glide_ecoul>  (223) 
0.731384

>  <r_i_glide_erotb>  (223) 
0

>  <r_i_glide_esite>  (223) 
-0.015537

>  <r_i_glide_emodel>  (223) 
-26.4483

>  <r_i_glide_energy>  (223) 
-24.7136

>  <r_i_glide_einternal>  (223) 
4.00268

>  <r_i_glide_intrahb_reward>  (223) 
-0

>  <i_i_glide_confnum>  (223) 
1

>  <i_i_glide_posenum>  (223) 
1

>  <r_i_glide_eff_state_penalty>  (223) 
0

>  <ligand_id>  (223) 
70

>  <original_smiles>  (223) 
CC(=O)C12c3ccccc3C(=O)C1(C)C1c3ccccc3C2c2ccccc21

>  <smiles>  (223) 
[H]c1c([H])c([H])c2c(c1[H])C(=O)C1(C([H])([H])[H])C3([H])c4c([H])c([H])c([H])c([H])c4C([H])(c4c([H])c([H])c([H])c([H])c43)C21C(=O)C([H])([H])[H]

$$$$
70:0:2
     RDKit          3D

 48 53  0  0  1  0  0  0  0  0999 V2000
    2.3108    2.9718    3.5570 C   0  0  0  0  0  0  0  0  0  0  0  0
    1.1622    2.1103    4.0877 C   0  0  0  0  0  0  0  0  0  0  0  0
    0.5154    1.4132    3.3055 O   0  0  0  0  0  0  0  0  0  0  0  0
    0.8427    2.1827    5.6383 C   0  0  2  0  0  0  0  0  0  0  0  0
    2.0204    1.3689    6.1572 C   0  0  0  0  0  0  0  0  0  0  0  0
    3.3004    1.7796    6.5755 C   0  0  0  0  0  0  0  0  0  0  0  0
    4.2674    0.7658    6.7842 C   0  0  0  0  0  0  0  0  0  0  0  0
    3.9619   -0.6008    6.5486 C   0  0  0  0  0  0  0  0  0  0  0  0
    2.6631   -1.0050    6.1546 C   0  0  0  0  0  0  0  0  0  0  0  0
    1.6921   -0.0017    5.9972 C   0  0  0  0  0  0  0  0  0  0  0  0
    0.2066   -0.1126    5.7624 C   0  0  0  0  0  0  0  0  0  0  0  0
   -0.4943   -1.0611    5.4093 O   0  0  0  0  0  0  0  0  0  0  0  0
   -0.2848    1.2501    6.2790 C   0  0  1  0  0  0  0  0  0  0  0  0
   -0.1783    0.9182    7.8483 C   0  0  0  0  0  0  0  0  0  0  0  0
   -1.6879    1.9887    6.0866 C   0  0  2  0  0  0  0  0  0  0  0  0
   -1.7474    2.9441    4.8826 C   0  0  0  0  0  0  0  0  0  0  0  0
   -2.7516    2.9332    3.8947 C   0  0  0  0  0  0  0  0  0  0  0  0
   -2.7446    3.9181    2.8932 C   0  0  0  0  0  0  0  0  0  0  0  0
   -1.7422    4.9167    2.8859 C   0  0  0  0  0  0  0  0  0  0  0  0
   -0.7070    4.9097    3.8525 C   0  0  0  0  0  0  0  0  0  0  0  0
   -0.7169    3.9226    4.8562 C   0  0  0  0  0  0  0  0  0  0  0  0
    0.3767    3.6878    5.9256 C   0  0  1  0  0  0  0  0  0  0  0  0
   -0.4853    3.8565    7.1853 C   0  0  0  0  0  0  0  0  0  0  0  0
   -0.2389    4.8060    8.1930 C   0  0  0  0  0  0  0  0  0  0  0  0
   -1.1679    4.9295    9.2461 C   0  0  0  0  0  0  0  0  0  0  0  0
   -2.3270    4.1193    9.2841 C   0  0  0  0  0  0  0  0  0  0  0  0
   -2.5800    3.1635    8.2756 C   0  0  0  0  0  0  0  0  0  0  0  0
   -1.6496    3.0352    7.2251 C   0  0  0  0  0  0  0  0  0  0  0  0
    2.1907    4.0180    3.8419 H   0  0  0  0  0  0  0  0  0  0  0  0
    2.3361    2.9289    2.4674 H   0  0  0  0  0  0  0  0  0  0  0  0
    3.2729    2.6213    3.9361 H   0  0  0  0  0  0  0  0  0  0  0  0
    3.5352    2.8335    6.7093 H   0  0  0  0  0  0  0  0  0  0  0  0
    5.2601    1.0389    7.1037 H   0  0  0  0  0  0  0  0  0  0  0  0
    4.7324   -1.3421    6.6841 H   0  0  0  0  0  0  0  0  0  0  0  0
    2.4141   -2.0490    6.0092 H   0  0  0  0  0  0  0  0  0  0  0  0
    0.1896    1.7431    8.4571 H   0  0  0  0  0  0  0  0  0  0  0  0
    0.4517    0.0802    8.1384 H   0  0  0  0  0  0  0  0  0  0  0  0
   -1.1573    0.6428    8.2415 H   0  0  0  0  0  0  0  0  0  0  0  0
   -2.5567    1.3296    6.1655 H   0  0  0  0  0  0  0  0  0  0  0  0
   -3.5287    2.1931    3.9005 H   0  0  0  0  0  0  0  0  0  0  0  0
   -3.5206    3.9103    2.1379 H   0  0  0  0  0  0  0  0  0  0  0  0
   -1.7302    5.6449    2.0799 H   0  0  0  0  0  0  0  0  0  0  0  0
    0.0808    5.6522    3.8037 H   0  0  0  0  0  0  0  0  0  0  0  0
    1.1800    4.4182    5.8598 H   0  0  0  0  0  0  0  0  0  0  0  0
    0.6372    5.4403    8.1513 H   0  0  0  0  0  0  0  0  0  0  0  0
   -0.9869    5.6489   10.0334 H   0  0  0  0  0  0  0  0  0  0  0  0
   -3.0180    4.2312   10.1057 H   0  0  0  0  0  0  0  0  0  0  0  0
   -3.4627    2.5397    8.3224 H   0  0  0  0  0  0  0  0  0  0  0  0
  1  2  1  0
  1 29  1  0
  1 30  1  0
  1 31  1  0
  2  3  2  0
  4  2  1  6
  4 13  1  0
  4 22  1  0
  4  5  1  0
  5 10  2  0
  5  6  1  0
  6  7  2  0
  6 32  1  0
  7  8  1  0
  7 33  1  0
  8  9  2  0
  8 34  1  0
  9 10  1  0
  9 35  1  0
 10 11  1  0
 11 12  2  0
 11 13  1  0
 13 14  1  1
 13 15  1  0
 14 36  1  0
 14 37  1  0
 14 38  1  0
 15 28  1  0
 15 16  1  0
 15 39  1  1
 16 21  2  0
 16 17  1  0
 17 18  2  0
 17 40  1  0
 18 19  1  0
 18 41  1  0
 19 20  2  0
 19 42  1  0
 20 21  1  0
 20 43  1  0
 21 22  1  0
 22 23  1  0
 22 44  1  1
 23 28  2  0
 23 24  1  0
 24 25  2  0
 24 45  1  0
 25 26  1  0
 25 46  1  0
 26 27  2  0
 26 47  1  0
 27 28  1  0
 27 48  1  0
M  END
>  <i_m_ct_stereo_status>  (224) 
1

>  <s_m_source_file>  (224) 
/var/tmp/pbs.5076255.sched01/tmpinim70aj/80j3ziidn5.sdf

>  <i_m_source_file_index>  (224) 
12

>  <i_lp_mmshare_version>  (224) 
48012

>  <i_f3d_flags>  (224) 
0

>  <s_epik_input>  (224) 
W0NIM11DKD1PKVtDQF0xMmMzYyhbY0hdW2NIXVtjSF1bY0hdMylDKD1PKVtDQF0xKFtDSDNdKVtDQEBIXTRjNWMoW2NIXVtjSF1bY0hdW2NIXTUpW0NASF0yYzZjNFtjSF1bY0hdW2NIXVtjSF02

>  <s_epik_cmdline>  (224) 
J2VwaWtfcHl0aG9uJywgJy1waHQnLCAnMi4wJywgJy1waCcsICc3LjAnLCAnLXRuJywgJzgnLCAnLW1hJywgJzIwMCcsICctaW1hZScsICc8aW5maWxlLm1hZT4nLCAnLW9tYWUnLCAnPG91dGZpbGUubWFlPic=

>  <r_lp_tautomer_probability>  (224) 
1

>  <r_epik_Ionization_Penalty>  (224) 
9.62112e-12

>  <r_epik_Ionization_Penalty_Charging>  (224) 
0

>  <r_epik_Ionization_Penalty_Neutral>  (224) 
9.62112e-12

>  <r_epik_State_Penalty>  (224) 
-0

>  <r_epik_Charging_Adjusted_Penalty>  (224) 
0

>  <i_epik_Tot_Q>  (224) 
0

>  <i_epik_Tot_abs_Q>  (224) 
0

>  <s_lp_Force_Field>  (224) 
OPLS3e

>  <r_lp_Energy>  (224) 
139.799

>  <b_lp_Chiralities_Consistent>  (224) 
1

>  <s_lp_Variant>  (224) 
70:0-1

>  <s_i_glide_gridfile>  (224) 
pfpi4k_grid

>  <i_i_glide_lignum>  (224) 
12

>  <i_i_glide_rotatable_bonds>  (224) 
1

>  <r_i_docking_score>  (224) 
-2.14529

>  <r_i_glide_ligand_efficiency>  (224) 
-0.0766176

>  <r_i_glide_ligand_efficiency_sa>  (224) 
-0.232656

>  <r_i_glide_ligand_efficiency_ln>  (224) 
-0.495197

>  <r_i_glide_gscore>  (224) 
-2.14529

>  <r_i_glide_lipo>  (224) 
-0.11218

>  <r_i_glide_hbond>  (224) 
0

>  <r_i_glide_metal>  (224) 
-0

>  <r_i_glide_rewards>  (224) 
-0.924301

>  <r_i_glide_evdw>  (224) 
-20.6774

>  <r_i_glide_ecoul>  (224) 
-0.293454

>  <r_i_glide_erotb>  (224) 
0

>  <r_i_glide_esite>  (224) 
-0.0309234

>  <r_i_glide_emodel>  (224) 
-24.4848

>  <r_i_glide_energy>  (224) 
-20.9709

>  <r_i_glide_einternal>  (224) 
0.0570243

>  <r_i_glide_intrahb_reward>  (224) 
-0

>  <i_i_glide_confnum>  (224) 
2

>  <i_i_glide_posenum>  (224) 
30

>  <r_i_glide_eff_state_penalty>  (224) 
0

>  <ligand_id>  (224) 
70

>  <original_smiles>  (224) 
CC(=O)C12c3ccccc3C(=O)C1(C)C1c3ccccc3C2c2ccccc21

>  <smiles>  (224) 
[H]c1c([H])c([H])c2c(c1[H])C(=O)C1(C([H])([H])[H])C3([H])c4c([H])c([H])c([H])c([H])c4C([H])(c4c([H])c([H])c([H])c([H])c43)C21C(=O)C([H])([H])[H]

$$$$
71:1:0
     RDKit          3D

 45 48  0  0  1  0  0  0  0  0999 V2000
    3.2286   -4.9483    0.2622 C   0  0  0  0  0  0  0  0  0  0  0  0
    2.6778   -4.2260    1.3575 O   0  0  0  0  0  0  0  0  0  0  0  0
    2.8807   -2.8602    1.4273 C   0  0  0  0  0  0  0  0  0  0  0  0
    3.6495   -2.2777    0.4716 N   0  0  0  0  0  0  0  0  0  0  0  0
    3.8102   -0.9387    0.5521 C   0  0  0  0  0  0  0  0  0  0  0  0
    3.2161   -0.1796    1.5793 C   0  0  0  0  0  0  0  0  0  0  0  0
    2.4577   -0.7572    2.5393 N   0  0  0  0  0  0  0  0  0  0  0  0
    2.2834   -2.1050    2.4734 C   0  0  0  0  0  0  0  0  0  0  0  0
    1.4855   -2.8230    3.5051 C   0  0  0  0  0  0  0  0  0  0  0  0
    0.6473   -2.3410    4.3631 N   0  0  0  0  0  0  0  0  0  0  0  0
    0.3663   -1.0235    4.3901 N   0  0  0  0  0  0  0  0  0  0  0  0
   -0.4990   -0.4476    5.2318 C   0  0  0  0  0  0  0  0  0  0  0  0
   -1.1580   -1.0831    6.0635 O   0  0  0  0  0  0  0  0  0  0  0  0
   -0.6438    1.0842    5.1002 C   0  0  2  0  0  0  0  0  0  0  0  0
   -1.2131    1.4386    3.6970 C   0  0  0  0  0  0  0  0  0  0  0  0
   -1.3710    2.9638    3.5513 C   0  0  1  0  0  0  0  0  0  0  0  0
   -2.3459    3.4732    4.6312 C   0  0  0  0  0  0  0  0  0  0  0  0
   -1.7741    3.1677    6.0301 C   0  0  2  0  0  0  0  0  0  0  0  0
   -0.4010    3.8475    6.1969 C   0  0  0  0  0  0  0  0  0  0  0  0
    0.5663    3.3155    5.1191 C   0  0  2  0  0  0  0  0  0  0  0  0
    0.0122    3.6309    3.7141 C   0  0  0  0  0  0  0  0  0  0  0  0
    0.7316    1.7874    5.2752 C   0  0  0  0  0  0  0  0  0  0  0  0
   -1.6119    1.6420    6.1848 C   0  0  0  0  0  0  0  0  0  0  0  0
    2.9901   -6.0029    0.3757 H   0  0  0  0  0  0  0  0  0  0  0  0
    4.3145   -4.8673    0.2194 H   0  0  0  0  0  0  0  0  0  0  0  0
    2.8050   -4.6165   -0.6873 H   0  0  0  0  0  0  0  0  0  0  0  0
    4.4140   -0.4711   -0.2137 H   0  0  0  0  0  0  0  0  0  0  0  0
    3.3614    0.8904    1.6341 H   0  0  0  0  0  0  0  0  0  0  0  0
    1.6085   -3.9061    3.5397 H   0  0  0  0  0  0  0  0  0  0  0  0
    0.8902   -0.4548    3.7339 H   0  0  0  0  0  0  0  0  0  0  0  0
   -0.5679    1.0769    2.8954 H   0  0  0  0  0  0  0  0  0  0  0  0
   -2.1739    0.9590    3.5647 H   0  0  0  0  0  0  0  0  0  0  0  0
   -1.7672    3.1975    2.5626 H   0  0  0  0  0  0  0  0  0  0  0  0
   -2.5018    4.5434    4.5173 H   0  0  0  0  0  0  0  0  0  0  0  0
   -3.3183    2.9982    4.5106 H   0  0  0  0  0  0  0  0  0  0  0  0
   -2.4589    3.5390    6.7936 H   0  0  0  0  0  0  0  0  0  0  0  0
   -0.4987    4.9291    6.1167 H   0  0  0  0  0  0  0  0  0  0  0  0
   -0.0017    3.6451    7.1915 H   0  0  0  0  0  0  0  0  0  0  0  0
    1.5391    3.7905    5.2371 H   0  0  0  0  0  0  0  0  0  0  0  0
    0.6920    3.2551    2.9476 H   0  0  0  0  0  0  0  0  0  0  0  0
   -0.0601    4.7061    3.5576 H   0  0  0  0  0  0  0  0  0  0  0  0
    1.1573    1.5552    6.2525 H   0  0  0  0  0  0  0  0  0  0  0  0
    1.4503    1.4412    4.5324 H   0  0  0  0  0  0  0  0  0  0  0  0
   -2.5848    1.1651    6.1044 H   0  0  0  0  0  0  0  0  0  0  0  0
   -1.2407    1.4177    7.1841 H   0  0  0  0  0  0  0  0  0  0  0  0
  1  2  1  0
  1 24  1  0
  1 25  1  0
  1 26  1  0
  2  3  1  0
  3  8  2  0
  3  4  1  0
  4  5  2  0
  5  6  1  0
  5 27  1  0
  6  7  2  0
  6 28  1  0
  7  8  1  0
  8  9  1  0
  9 10  2  3
  9 29  1  0
 10 11  1  0
 11 12  1  0
 11 30  1  0
 12 13  2  0
 14 12  1  6
 14 22  1  0
 14 23  1  0
 14 15  1  0
 15 16  1  0
 15 31  1  0
 15 32  1  0
 16 21  1  0
 16 17  1  0
 16 33  1  6
 17 18  1  0
 17 34  1  0
 17 35  1  0
 18 19  1  0
 18 23  1  0
 18 36  1  1
 19 20  1  0
 19 37  1  0
 19 38  1  0
 20 21  1  0
 20 22  1  0
 20 39  1  1
 21 40  1  0
 21 41  1  0
 22 42  1  0
 22 43  1  0
 23 44  1  0
 23 45  1  0
M  END
>  <i_m_ct_stereo_status>  (225) 
1

>  <s_m_source_file>  (225) 
/var/tmp/pbs.5076255.sched01/tmpinim70aj/80j3ziidn5.sdf

>  <i_m_source_file_index>  (225) 
14

>  <i_lp_mmshare_version>  (225) 
48012

>  <i_f3d_flags>  (225) 
0

>  <s_epik_input>  (225) 
W0NIM11PYzFuW2NIXVtjSF1uYzEvW0NIXT1OL1tOSF1DKD1PKUMyM1tDSDJdW0NASF00W0NIMl1bQ0BASF0oW0NIMl0zKVtDSDJdW0NASF0oW0NIMl00KVtDSDJdMg==

>  <s_epik_cmdline>  (225) 
J2VwaWtfcHl0aG9uJywgJy1waHQnLCAnMi4wJywgJy1waCcsICc3LjAnLCAnLXRuJywgJzgnLCAnLW1hJywgJzIwMCcsICctaW1hZScsICc8aW5maWxlLm1hZT4nLCAnLW9tYWUnLCAnPG91dGZpbGUubWFlPic=

>  <r_lp_tautomer_probability>  (225) 
1

>  <r_epik_Ionization_Penalty>  (225) 
1.01846e-05

>  <r_epik_Ionization_Penalty_Charging>  (225) 
0

>  <r_epik_Ionization_Penalty_Neutral>  (225) 
1.01846e-05

>  <r_epik_State_Penalty>  (225) 
-0

>  <r_epik_Charging_Adjusted_Penalty>  (225) 
0

>  <i_epik_Tot_Q>  (225) 
0

>  <i_epik_Tot_abs_Q>  (225) 
0

>  <s_epik_Chemistry_Notes>  (225) 
This compound has an imine and may undergo hydrolysis.

>  <s_lp_Force_Field>  (225) 
OPLS3e

>  <r_lp_Energy>  (225) 
40.1005

>  <b_lp_Chiralities_Consistent>  (225) 
1

>  <s_lp_Variant>  (225) 
71:0-2

>  <s_i_glide_gridfile>  (225) 
pfpi4k_grid

>  <i_i_glide_lignum>  (225) 
14

>  <i_i_glide_rotatable_bonds>  (225) 
5

>  <r_i_docking_score>  (225) 
-2.93312

>  <r_i_glide_ligand_efficiency>  (225) 
-0.127527

>  <r_i_glide_ligand_efficiency_sa>  (225) 
-0.36267

>  <r_i_glide_ligand_efficiency_ln>  (225) 
-0.709255

>  <r_i_glide_gscore>  (225) 
-2.93312

>  <r_i_glide_lipo>  (225) 
-0.0362596

>  <r_i_glide_hbond>  (225) 
-0.0228646

>  <r_i_glide_metal>  (225) 
-0

>  <r_i_glide_rewards>  (225) 
-1.81734

>  <r_i_glide_evdw>  (225) 
-21.2078

>  <r_i_glide_ecoul>  (225) 
-3.51772

>  <r_i_glide_erotb>  (225) 
0.564194

>  <r_i_glide_esite>  (225) 
-0.0328014

>  <r_i_glide_emodel>  (225) 
-34.6581

>  <r_i_glide_energy>  (225) 
-24.7255

>  <r_i_glide_einternal>  (225) 
0.290108

>  <r_i_glide_intrahb_reward>  (225) 
-0.5

>  <i_i_glide_confnum>  (225) 
5

>  <i_i_glide_posenum>  (225) 
6

>  <r_i_glide_eff_state_penalty>  (225) 
0

>  <ligand_id>  (225) 
71

>  <original_smiles>  (225) 
COc1nccnc1C=NNC(=O)C12CC3CC(CC(C3)C1)C2

>  <smiles>  (225) 
[H]C(=NN([H])C(=O)C12C([H])([H])C3([H])C([H])([H])C([H])(C([H])([H])C([H])(C3([H])[H])C1([H])[H])C2([H])[H])c1nc([H])c([H])nc1OC([H])([H])[H]

$$$$
71:1:1
     RDKit          3D

 45 48  0  0  1  0  0  0  0  0999 V2000
   -2.1441    2.7161    3.7614 C   0  0  0  0  0  0  0  0  0  0  0  0
   -0.8880    2.1926    3.3556 O   0  0  0  0  0  0  0  0  0  0  0  0
   -0.5435    0.9079    3.7248 C   0  0  0  0  0  0  0  0  0  0  0  0
   -1.3878    0.2180    4.5362 N   0  0  0  0  0  0  0  0  0  0  0  0
   -1.0277   -1.0314    4.8876 C   0  0  0  0  0  0  0  0  0  0  0  0
    0.1804   -1.6050    4.4393 C   0  0  0  0  0  0  0  0  0  0  0  0
    1.0211   -0.9259    3.6315 N   0  0  0  0  0  0  0  0  0  0  0  0
    0.6765    0.3393    3.2659 C   0  0  0  0  0  0  0  0  0  0  0  0
    1.5863    1.1650    2.4248 C   0  0  0  0  0  0  0  0  0  0  0  0
    2.6293    0.7949    1.7566 N   0  0  0  0  0  0  0  0  0  0  0  0
    2.9579   -0.5092    1.6561 N   0  0  0  0  0  0  0  0  0  0  0  0
    4.1107   -0.9655    1.1553 C   0  0  0  0  0  0  0  0  0  0  0  0
    5.0171   -0.2251    0.7743 O   0  0  0  0  0  0  0  0  0  0  0  0
    4.2754   -2.4953    1.0993 C   0  0  2  0  0  0  0  0  0  0  0  0
    3.1124   -3.1285    0.2856 C   0  0  0  0  0  0  0  0  0  0  0  0
    3.2755   -4.6599    0.2374 C   0  0  1  0  0  0  0  0  0  0  0  0
    4.6104   -5.0094   -0.4537 C   0  0  0  0  0  0  0  0  0  0  0  0
    5.7751   -4.4099    0.3589 C   0  0  2  0  0  0  0  0  0  0  0  0
    5.7643   -4.9840    1.7904 C   0  0  0  0  0  0  0  0  0  0  0  0
    4.4299   -4.6195    2.4747 C   0  0  2  0  0  0  0  0  0  0  0  0
    3.2525   -5.2184    1.6766 C   0  0  0  0  0  0  0  0  0  0  0  0
    4.2773   -3.0853    2.5364 C   0  0  0  0  0  0  0  0  0  0  0  0
    5.6205   -2.8771    0.4172 C   0  0  0  0  0  0  0  0  0  0  0  0
   -2.2365    3.7310    3.3776 H   0  0  0  0  0  0  0  0  0  0  0  0
   -2.2332    2.7615    4.8474 H   0  0  0  0  0  0  0  0  0  0  0  0
   -2.9706    2.1416    3.3533 H   0  0  0  0  0  0  0  0  0  0  0  0
   -1.7132   -1.5806    5.5190 H   0  0  0  0  0  0  0  0  0  0  0  0
    0.4587   -2.6103    4.7301 H   0  0  0  0  0  0  0  0  0  0  0  0
    1.3482    2.2278    2.3658 H   0  0  0  0  0  0  0  0  0  0  0  0
    2.2691   -1.1558    2.0189 H   0  0  0  0  0  0  0  0  0  0  0  0
    2.1469   -2.8917    0.7326 H   0  0  0  0  0  0  0  0  0  0  0  0
    3.0843   -2.7225   -0.7274 H   0  0  0  0  0  0  0  0  0  0  0  0
    2.4507   -5.0921   -0.3290 H   0  0  0  0  0  0  0  0  0  0  0  0
    4.7235   -6.0876   -0.5482 H   0  0  0  0  0  0  0  0  0  0  0  0
    4.6160   -4.6067   -1.4671 H   0  0  0  0  0  0  0  0  0  0  0  0
    6.7206   -4.6587   -0.1239 H   0  0  0  0  0  0  0  0  0  0  0  0
    5.8957   -6.0646    1.7635 H   0  0  0  0  0  0  0  0  0  0  0  0
    6.6009   -4.5823    2.3615 H   0  0  0  0  0  0  0  0  0  0  0  0
    4.4225   -5.0228    3.4882 H   0  0  0  0  0  0  0  0  0  0  0  0
    2.3097   -4.9640    2.1612 H   0  0  0  0  0  0  0  0  0  0  0  0
    3.3134   -6.3055    1.6630 H   0  0  0  0  0  0  0  0  0  0  0  0
    5.0873   -2.6540    3.1280 H   0  0  0  0  0  0  0  0  0  0  0  0
    3.3539   -2.8404    3.0638 H   0  0  0  0  0  0  0  0  0  0  0  0
    5.6684   -2.4678   -0.5940 H   0  0  0  0  0  0  0  0  0  0  0  0
    6.4653   -2.4514    0.9628 H   0  0  0  0  0  0  0  0  0  0  0  0
  1  2  1  0
  1 24  1  0
  1 25  1  0
  1 26  1  0
  2  3  1  0
  3  8  2  0
  3  4  1  0
  4  5  2  0
  5  6  1  0
  5 27  1  0
  6  7  2  0
  6 28  1  0
  7  8  1  0
  8  9  1  0
  9 10  2  3
  9 29  1  0
 10 11  1  0
 11 12  1  0
 11 30  1  0
 12 13  2  0
 14 12  1  1
 14 22  1  0
 14 23  1  0
 14 15  1  0
 15 16  1  0
 15 31  1  0
 15 32  1  0
 16 21  1  0
 16 17  1  0
 16 33  1  6
 17 18  1  0
 17 34  1  0
 17 35  1  0
 18 19  1  0
 18 23  1  0
 18 36  1  6
 19 20  1  0
 19 37  1  0
 19 38  1  0
 20 21  1  0
 20 22  1  0
 20 39  1  1
 21 40  1  0
 21 41  1  0
 22 42  1  0
 22 43  1  0
 23 44  1  0
 23 45  1  0
M  END
>  <i_m_ct_stereo_status>  (226) 
1

>  <s_m_source_file>  (226) 
/var/tmp/pbs.5076255.sched01/tmpinim70aj/80j3ziidn5.sdf

>  <i_m_source_file_index>  (226) 
14

>  <i_lp_mmshare_version>  (226) 
48012

>  <i_f3d_flags>  (226) 
0

>  <s_epik_input>  (226) 
W0NIM11PYzFuW2NIXVtjSF1uYzEvW0NIXT1OL1tOSF1DKD1PKUMyM1tDSDJdW0NASF00W0NIMl1bQ0BASF0oW0NIMl0zKVtDSDJdW0NASF0oW0NIMl00KVtDSDJdMg==

>  <s_epik_cmdline>  (226) 
J2VwaWtfcHl0aG9uJywgJy1waHQnLCAnMi4wJywgJy1waCcsICc3LjAnLCAnLXRuJywgJzgnLCAnLW1hJywgJzIwMCcsICctaW1hZScsICc8aW5maWxlLm1hZT4nLCAnLW9tYWUnLCAnPG91dGZpbGUubWFlPic=

>  <r_lp_tautomer_probability>  (226) 
1

>  <r_epik_Ionization_Penalty>  (226) 
1.01846e-05

>  <r_epik_Ionization_Penalty_Charging>  (226) 
0

>  <r_epik_Ionization_Penalty_Neutral>  (226) 
1.01846e-05

>  <r_epik_State_Penalty>  (226) 
-0

>  <r_epik_Charging_Adjusted_Penalty>  (226) 
0

>  <i_epik_Tot_Q>  (226) 
0

>  <i_epik_Tot_abs_Q>  (226) 
0

>  <s_epik_Chemistry_Notes>  (226) 
This compound has an imine and may undergo hydrolysis.

>  <s_lp_Force_Field>  (226) 
OPLS3e

>  <r_lp_Energy>  (226) 
40.1005

>  <b_lp_Chiralities_Consistent>  (226) 
1

>  <s_lp_Variant>  (226) 
71:0-2

>  <s_i_glide_gridfile>  (226) 
pfpi4k_grid

>  <i_i_glide_lignum>  (226) 
14

>  <i_i_glide_rotatable_bonds>  (226) 
5

>  <r_i_docking_score>  (226) 
-2.78325

>  <r_i_glide_ligand_efficiency>  (226) 
-0.121011

>  <r_i_glide_ligand_efficiency_sa>  (226) 
-0.344138

>  <r_i_glide_ligand_efficiency_ln>  (226) 
-0.673014

>  <r_i_glide_gscore>  (226) 
-2.78325

>  <r_i_glide_lipo>  (226) 
-0.202778

>  <r_i_glide_hbond>  (226) 
0

>  <r_i_glide_metal>  (226) 
-0

>  <r_i_glide_rewards>  (226) 
-1.79669

>  <r_i_glide_evdw>  (226) 
-25.4962

>  <r_i_glide_ecoul>  (226) 
-0.122287

>  <r_i_glide_erotb>  (226) 
0.564194

>  <r_i_glide_esite>  (226) 
-0.0548135

>  <r_i_glide_emodel>  (226) 
-35.0322

>  <r_i_glide_energy>  (226) 
-25.6185

>  <r_i_glide_einternal>  (226) 
0.751827

>  <r_i_glide_intrahb_reward>  (226) 
-0.5

>  <i_i_glide_confnum>  (226) 
1

>  <i_i_glide_posenum>  (226) 
10

>  <r_i_glide_eff_state_penalty>  (226) 
0

>  <ligand_id>  (226) 
71

>  <original_smiles>  (226) 
COc1nccnc1C=NNC(=O)C12CC3CC(CC(C3)C1)C2

>  <smiles>  (226) 
[H]C(=NN([H])C(=O)C12C([H])([H])C3([H])C([H])([H])C([H])(C([H])([H])C([H])(C3([H])[H])C1([H])[H])C2([H])[H])c1nc([H])c([H])nc1OC([H])([H])[H]

$$$$
71:1:2
     RDKit          3D

 45 48  0  0  1  0  0  0  0  0999 V2000
   -2.1426    2.7195    3.7714 C   0  0  0  0  0  0  0  0  0  0  0  0
   -0.8954    2.1909    3.3462 O   0  0  0  0  0  0  0  0  0  0  0  0
   -0.5448    0.9089    3.7171 C   0  0  0  0  0  0  0  0  0  0  0  0
   -1.3866    0.2178    4.5310 N   0  0  0  0  0  0  0  0  0  0  0  0
   -1.0223   -1.0308    4.8834 C   0  0  0  0  0  0  0  0  0  0  0  0
    0.1854   -1.5998    4.4322 C   0  0  0  0  0  0  0  0  0  0  0  0
    1.0250   -0.9166    3.6203 N   0  0  0  0  0  0  0  0  0  0  0  0
    0.6776    0.3485    3.2530 C   0  0  0  0  0  0  0  0  0  0  0  0
    1.5825    1.1803    2.4032 C   0  0  0  0  0  0  0  0  0  0  0  0
    2.6372    0.8275    1.7430 N   0  0  0  0  0  0  0  0  0  0  0  0
    2.9983   -0.4690    1.6822 N   0  0  0  0  0  0  0  0  0  0  0  0
    4.0931   -0.9582    1.0804 C   0  0  0  0  0  0  0  0  0  0  0  0
    4.9618   -0.2533    0.5714 O   0  0  0  0  0  0  0  0  0  0  0  0
    4.2464   -2.4943    1.0613 C   0  0  2  0  0  0  0  0  0  0  0  0
    2.9869   -3.2097    1.6351 C   0  0  0  0  0  0  0  0  0  0  0  0
    3.1672   -4.7319    1.6013 C   0  0  1  0  0  0  0  0  0  0  0  0
    3.3681   -5.1808    0.1413 C   0  0  0  0  0  0  0  0  0  0  0  0
    4.6378   -4.5139   -0.4265 C   0  0  2  0  0  0  0  0  0  0  0  0
    5.8615   -4.9160    0.4231 C   0  0  0  0  0  0  0  0  0  0  0  0
    5.6515   -4.4411    1.8764 C   0  0  2  0  0  0  0  0  0  0  0  0
    4.3888   -5.1061    2.4639 C   0  0  0  0  0  0  0  0  0  0  0  0
    5.4861   -2.9056    1.9021 C   0  0  0  0  0  0  0  0  0  0  0  0
    4.4707   -2.9782   -0.3990 C   0  0  0  0  0  0  0  0  0  0  0  0
   -2.2433    3.7292    3.3804 H   0  0  0  0  0  0  0  0  0  0  0  0
   -2.2117    2.7715    4.8576 H   0  0  0  0  0  0  0  0  0  0  0  0
   -2.9798    2.1440    3.3826 H   0  0  0  0  0  0  0  0  0  0  0  0
   -1.7069   -1.5794    5.5177 H   0  0  0  0  0  0  0  0  0  0  0  0
    0.4646   -2.6055    4.7239 H   0  0  0  0  0  0  0  0  0  0  0  0
    1.3145    2.2366    2.3319 H   0  0  0  0  0  0  0  0  0  0  0  0
    2.3490   -1.1022    2.1282 H   0  0  0  0  0  0  0  0  0  0  0  0
    2.8042   -2.9168    2.6690 H   0  0  0  0  0  0  0  0  0  0  0  0
    2.1014   -2.9413    1.0584 H   0  0  0  0  0  0  0  0  0  0  0  0
    2.2737   -5.2025    2.0106 H   0  0  0  0  0  0  0  0  0  0  0  0
    3.4483   -6.2637    0.0820 H   0  0  0  0  0  0  0  0  0  0  0  0
    2.5032   -4.8947   -0.4574 H   0  0  0  0  0  0  0  0  0  0  0  0
    4.7873   -4.8431   -1.4556 H   0  0  0  0  0  0  0  0  0  0  0  0
    6.0004   -5.9962    0.3937 H   0  0  0  0  0  0  0  0  0  0  0  0
    6.7682   -4.4737    0.0108 H   0  0  0  0  0  0  0  0  0  0  0  0
    6.5191   -4.7200    2.4750 H   0  0  0  0  0  0  0  0  0  0  0  0
    4.2387   -4.7660    3.4889 H   0  0  0  0  0  0  0  0  0  0  0  0
    4.5062   -6.1867    2.5060 H   0  0  0  0  0  0  0  0  0  0  0  0
    6.3927   -2.4323    1.5180 H   0  0  0  0  0  0  0  0  0  0  0  0
    5.3804   -2.5613    2.9319 H   0  0  0  0  0  0  0  0  0  0  0  0
    3.6314   -2.6832   -1.0320 H   0  0  0  0  0  0  0  0  0  0  0  0
    5.3572   -2.5108   -0.8339 H   0  0  0  0  0  0  0  0  0  0  0  0
  1  2  1  0
  1 24  1  0
  1 25  1  0
  1 26  1  0
  2  3  1  0
  3  8  2  0
  3  4  1  0
  4  5  2  0
  5  6  1  0
  5 27  1  0
  6  7  2  0
  6 28  1  0
  7  8  1  0
  8  9  1  0
  9 10  2  3
  9 29  1  0
 10 11  1  0
 11 12  1  0
 11 30  1  0
 12 13  2  0
 14 12  1  6
 14 22  1  0
 14 23  1  0
 14 15  1  0
 15 16  1  0
 15 31  1  0
 15 32  1  0
 16 21  1  0
 16 17  1  0
 16 33  1  1
 17 18  1  0
 17 34  1  0
 17 35  1  0
 18 19  1  0
 18 23  1  0
 18 36  1  6
 19 20  1  0
 19 37  1  0
 19 38  1  0
 20 21  1  0
 20 22  1  0
 20 39  1  1
 21 40  1  0
 21 41  1  0
 22 42  1  0
 22 43  1  0
 23 44  1  0
 23 45  1  0
M  END
>  <i_m_ct_stereo_status>  (227) 
1

>  <s_m_source_file>  (227) 
/var/tmp/pbs.5076255.sched01/tmpinim70aj/80j3ziidn5.sdf

>  <i_m_source_file_index>  (227) 
14

>  <i_lp_mmshare_version>  (227) 
48012

>  <i_f3d_flags>  (227) 
0

>  <s_epik_input>  (227) 
W0NIM11PYzFuW2NIXVtjSF1uYzEvW0NIXT1OL1tOSF1DKD1PKUMyM1tDSDJdW0NASF00W0NIMl1bQ0BASF0oW0NIMl0zKVtDSDJdW0NASF0oW0NIMl00KVtDSDJdMg==

>  <s_epik_cmdline>  (227) 
J2VwaWtfcHl0aG9uJywgJy1waHQnLCAnMi4wJywgJy1waCcsICc3LjAnLCAnLXRuJywgJzgnLCAnLW1hJywgJzIwMCcsICctaW1hZScsICc8aW5maWxlLm1hZT4nLCAnLW9tYWUnLCAnPG91dGZpbGUubWFlPic=

>  <r_lp_tautomer_probability>  (227) 
1

>  <r_epik_Ionization_Penalty>  (227) 
1.01846e-05

>  <r_epik_Ionization_Penalty_Charging>  (227) 
0

>  <r_epik_Ionization_Penalty_Neutral>  (227) 
1.01846e-05

>  <r_epik_State_Penalty>  (227) 
-0

>  <r_epik_Charging_Adjusted_Penalty>  (227) 
0

>  <i_epik_Tot_Q>  (227) 
0

>  <i_epik_Tot_abs_Q>  (227) 
0

>  <s_epik_Chemistry_Notes>  (227) 
This compound has an imine and may undergo hydrolysis.

>  <s_lp_Force_Field>  (227) 
OPLS3e

>  <r_lp_Energy>  (227) 
40.1005

>  <b_lp_Chiralities_Consistent>  (227) 
1

>  <s_lp_Variant>  (227) 
71:0-2

>  <s_i_glide_gridfile>  (227) 
pfpi4k_grid

>  <i_i_glide_lignum>  (227) 
14

>  <i_i_glide_rotatable_bonds>  (227) 
5

>  <r_i_docking_score>  (227) 
-2.75387

>  <r_i_glide_ligand_efficiency>  (227) 
-0.119734

>  <r_i_glide_ligand_efficiency_sa>  (227) 
-0.340506

>  <r_i_glide_ligand_efficiency_ln>  (227) 
-0.665911

>  <r_i_glide_gscore>  (227) 
-2.75387

>  <r_i_glide_lipo>  (227) 
-0.213619

>  <r_i_glide_hbond>  (227) 
0

>  <r_i_glide_metal>  (227) 
-0

>  <r_i_glide_rewards>  (227) 
-1.79089

>  <r_i_glide_evdw>  (227) 
-25.6111

>  <r_i_glide_ecoul>  (227) 
0.126202

>  <r_i_glide_erotb>  (227) 
0.564194

>  <r_i_glide_esite>  (227) 
-0.0519293

>  <r_i_glide_emodel>  (227) 
-34.8062

>  <r_i_glide_energy>  (227) 
-25.4849

>  <r_i_glide_einternal>  (227) 
0.722713

>  <r_i_glide_intrahb_reward>  (227) 
-0.5

>  <i_i_glide_confnum>  (227) 
1

>  <i_i_glide_posenum>  (227) 
16

>  <r_i_glide_eff_state_penalty>  (227) 
0

>  <ligand_id>  (227) 
71

>  <original_smiles>  (227) 
COc1nccnc1C=NNC(=O)C12CC3CC(CC(C3)C1)C2

>  <smiles>  (227) 
[H]C(=NN([H])C(=O)C12C([H])([H])C3([H])C([H])([H])C([H])(C([H])([H])C([H])(C3([H])[H])C1([H])[H])C2([H])[H])c1nc([H])c([H])nc1OC([H])([H])[H]

$$$$
72:0:0
     RDKit          3D

 27 29  0  0  1  0  0  0  0  0999 V2000
    4.6004   -4.2380   -3.9470 O   0  0  0  0  0  0  0  0  0  0  0  0
    4.7812   -3.0297   -3.2472 C   0  0  2  0  0  0  0  0  0  0  0  0
    5.4783   -3.2668   -1.8875 C   0  0  1  0  0  0  0  0  0  0  0  0
    5.7602   -1.8989   -1.2395 C   0  0  0  0  0  0  0  0  0  0  0  0
    4.4354   -1.1409   -1.0191 C   0  0  2  0  0  0  0  0  0  0  0  0
    3.5400   -1.9699   -0.0779 C   0  0  0  0  0  0  0  0  0  0  0  0
    3.2463   -3.3365   -0.7282 C   0  0  2  0  0  0  0  0  0  0  0  0
    4.5800   -4.0778   -0.9323 C   0  0  0  0  0  0  0  0  0  0  0  0
    2.5317   -3.1213   -2.0842 C   0  0  0  0  0  0  0  0  0  0  0  0
    3.4400   -2.2980   -3.0297 C   0  0  1  0  0  0  0  0  0  0  0  0
    3.7349   -0.9343   -2.3907 C   0  0  0  0  0  0  0  0  0  0  0  0
    4.0396   -4.8142   -3.4336 H   0  0  0  0  0  0  0  0  0  0  0  0
    5.4064   -2.3951   -3.8662 H   0  0  0  0  0  0  0  0  0  0  0  0
    6.4179   -3.7890   -2.0489 H   0  0  0  0  0  0  0  0  0  0  0  0
    6.2983   -2.0238   -0.2948 H   0  0  0  0  0  0  0  0  0  0  0  0
    6.4051   -1.3381   -1.9022 H   0  0  0  0  0  0  0  0  0  0  0  0
    4.6245   -0.1746   -0.5513 H   0  0  0  0  0  0  0  0  0  0  0  0
    4.0291   -2.1061    0.8929 H   0  0  0  0  0  0  0  0  0  0  0  0
    2.6228   -1.4205    0.1338 H   0  0  0  0  0  0  0  0  0  0  0  0
    2.5940   -3.9138   -0.0679 H   0  0  0  0  0  0  0  0  0  0  0  0
    4.4174   -5.0721   -1.3279 H   0  0  0  0  0  0  0  0  0  0  0  0
    5.0820   -4.2197    0.0242 H   0  0  0  0  0  0  0  0  0  0  0  0
    2.2583   -4.0645   -2.5532 H   0  0  0  0  0  0  0  0  0  0  0  0
    1.5650   -2.6580   -1.9247 H   0  0  0  0  0  0  0  0  0  0  0  0
    2.9347   -2.1326   -3.9852 H   0  0  0  0  0  0  0  0  0  0  0  0
    2.7878   -0.4018   -2.3040 H   0  0  0  0  0  0  0  0  0  0  0  0
    4.3680   -0.3216   -3.0385 H   0  0  0  0  0  0  0  0  0  0  0  0
  1  2  1  0
  1 12  1  0
  2 10  1  0
  2  3  1  0
  2 13  1  6
  3  8  1  0
  3  4  1  0
  3 14  1  6
  4  5  1  0
  4 15  1  0
  4 16  1  0
  5 11  1  0
  5  6  1  0
  5 17  1  1
  6  7  1  0
  6 18  1  0
  6 19  1  0
  7  8  1  0
  7  9  1  0
  7 20  1  1
  8 21  1  0
  8 22  1  0
  9 10  1  0
  9 23  1  0
  9 24  1  0
 10 11  1  0
 10 25  1  6
 11 26  1  0
 11 27  1  0
M  END
>  <i_m_ct_stereo_status>  (228) 
1

>  <s_m_source_file>  (228) 
/var/tmp/pbs.5076255.sched01/tmpinim70aj/80j3ziidn5.sdf

>  <i_m_source_file_index>  (228) 
15

>  <i_lp_mmshare_version>  (228) 
48012

>  <i_f3d_flags>  (228) 
0

>  <s_epik_input>  (228) 
W09IXVtDQEhdKFtDQEBIXTEyKVtDQEhdM1tDSDJdW0NAQEhdKFtDSDJdMilbQ0gyXVtDQEBIXShbQ0gyXTEpW0NIMl0z

>  <s_epik_cmdline>  (228) 
J2VwaWtfcHl0aG9uJywgJy1waHQnLCAnMi4wJywgJy1waCcsICc3LjAnLCAnLXRuJywgJzgnLCAnLW1hJywgJzIwMCcsICctaW1hZScsICc8aW5maWxlLm1hZT4nLCAnLW9tYWUnLCAnPG91dGZpbGUubWFlPic=

>  <r_lp_tautomer_probability>  (228) 
1

>  <r_epik_Ionization_Penalty>  (228) 
1.90373e-06

>  <r_epik_Ionization_Penalty_Charging>  (228) 
0

>  <r_epik_Ionization_Penalty_Neutral>  (228) 
1.90373e-06

>  <r_epik_State_Penalty>  (228) 
-0

>  <r_epik_Charging_Adjusted_Penalty>  (228) 
0

>  <i_epik_Tot_Q>  (228) 
0

>  <i_epik_Tot_abs_Q>  (228) 
0

>  <s_lp_Force_Field>  (228) 
OPLS3e

>  <r_lp_Energy>  (228) 
2.5605

>  <b_lp_Chiralities_Consistent>  (228) 
1

>  <s_lp_Variant>  (228) 
72:0-1

>  <s_i_glide_gridfile>  (228) 
pfpi4k_grid

>  <i_i_glide_lignum>  (228) 
15

>  <i_i_glide_rotatable_bonds>  (228) 
1

>  <r_i_docking_score>  (228) 
-4.52008

>  <r_i_glide_ligand_efficiency>  (228) 
-0.410917

>  <r_i_glide_ligand_efficiency_sa>  (228) 
-0.91387

>  <r_i_glide_ligand_efficiency_ln>  (228) 
-1.33026

>  <r_i_glide_gscore>  (228) 
-4.52008

>  <r_i_glide_lipo>  (228) 
-0.489618

>  <r_i_glide_hbond>  (228) 
-0.32

>  <r_i_glide_metal>  (228) 
-0

>  <r_i_glide_rewards>  (228) 
-2.25

>  <r_i_glide_evdw>  (228) 
-15.4451

>  <r_i_glide_ecoul>  (228) 
-4.58807

>  <r_i_glide_erotb>  (228) 
0

>  <r_i_glide_esite>  (228) 
0

>  <r_i_glide_emodel>  (228) 
-25.291

>  <r_i_glide_energy>  (228) 
-20.0331

>  <r_i_glide_einternal>  (228) 
0.00374833

>  <r_i_glide_intrahb_reward>  (228) 
-0

>  <i_i_glide_confnum>  (228) 
1

>  <i_i_glide_posenum>  (228) 
34

>  <r_i_glide_eff_state_penalty>  (228) 
0

>  <ligand_id>  (228) 
72

>  <original_smiles>  (228) 
OC1C2CC3CC(C2)CC1C3

>  <smiles>  (228) 
[H]OC1([H])C2([H])C([H])([H])C3([H])C([H])([H])C([H])(C2([H])[H])C([H])([H])C1([H])C3([H])[H]

$$$$
72:0:1
     RDKit          3D

 27 29  0  0  1  0  0  0  0  0999 V2000
    2.7789   -4.2607   -0.7008 O   0  0  0  0  0  0  0  0  0  0  0  0
    4.1460   -4.0423   -0.4163 C   0  0  2  0  0  0  0  0  0  0  0  0
    4.3068   -3.4778    1.0095 C   0  0  1  0  0  0  0  0  0  0  0  0
    5.8134   -3.3204    1.3209 C   0  0  0  0  0  0  0  0  0  0  0  0
    6.4484   -2.3443    0.3037 C   0  0  2  0  0  0  0  0  0  0  0  0
    5.7537   -0.9718    0.4112 C   0  0  0  0  0  0  0  0  0  0  0  0
    4.2538   -1.1291    0.0950 C   0  0  2  0  0  0  0  0  0  0  0  0
    3.6163   -2.0986    1.1120 C   0  0  0  0  0  0  0  0  0  0  0  0
    4.0851   -1.6823   -1.3367 C   0  0  0  0  0  0  0  0  0  0  0  0
    4.7740   -3.0656   -1.4375 C   0  0  1  0  0  0  0  0  0  0  0  0
    6.2778   -2.8977   -1.1271 C   0  0  0  0  0  0  0  0  0  0  0  0
    2.7287   -4.8167   -1.4721 H   0  0  0  0  0  0  0  0  0  0  0  0
    4.6475   -5.0082   -0.4800 H   0  0  0  0  0  0  0  0  0  0  0  0
    3.8623   -4.1637    1.7276 H   0  0  0  0  0  0  0  0  0  0  0  0
    5.9513   -2.9508    2.3391 H   0  0  0  0  0  0  0  0  0  0  0  0
    6.3149   -4.2906    1.2786 H   0  0  0  0  0  0  0  0  0  0  0  0
    7.5113   -2.2239    0.5210 H   0  0  0  0  0  0  0  0  0  0  0  0
    5.8815   -0.5621    1.4142 H   0  0  0  0  0  0  0  0  0  0  0  0
    6.2073   -0.2592   -0.2792 H   0  0  0  0  0  0  0  0  0  0  0  0
    3.7620   -0.1587    0.1659 H   0  0  0  0  0  0  0  0  0  0  0  0
    2.5439   -2.1847    0.9243 H   0  0  0  0  0  0  0  0  0  0  0  0
    3.7147   -1.7009    2.1238 H   0  0  0  0  0  0  0  0  0  0  0  0
    3.0234   -1.7567   -1.5895 H   0  0  0  0  0  0  0  0  0  0  0  0
    4.5200   -0.9885   -2.0574 H   0  0  0  0  0  0  0  0  0  0  0  0
    4.6590   -3.4646   -2.4467 H   0  0  0  0  0  0  0  0  0  0  0  0
    6.7426   -2.2377   -1.8589 H   0  0  0  0  0  0  0  0  0  0  0  0
    6.7948   -3.8559   -1.2164 H   0  0  0  0  0  0  0  0  0  0  0  0
  1  2  1  0
  1 12  1  0
  2 10  1  0
  2  3  1  0
  2 13  1  1
  3  8  1  0
  3  4  1  0
  3 14  1  1
  4  5  1  0
  4 15  1  0
  4 16  1  0
  5 11  1  0
  5  6  1  0
  5 17  1  1
  6  7  1  0
  6 18  1  0
  6 19  1  0
  7  8  1  0
  7  9  1  0
  7 20  1  6
  8 21  1  0
  8 22  1  0
  9 10  1  0
  9 23  1  0
  9 24  1  0
 10 11  1  0
 10 25  1  6
 11 26  1  0
 11 27  1  0
M  END
>  <i_m_ct_stereo_status>  (229) 
1

>  <s_m_source_file>  (229) 
/var/tmp/pbs.5076255.sched01/tmpinim70aj/80j3ziidn5.sdf

>  <i_m_source_file_index>  (229) 
15

>  <i_lp_mmshare_version>  (229) 
48012

>  <i_f3d_flags>  (229) 
0

>  <s_epik_input>  (229) 
W09IXVtDQEhdKFtDQEBIXTEyKVtDQEhdM1tDSDJdW0NAQEhdKFtDSDJdMilbQ0gyXVtDQEBIXShbQ0gyXTEpW0NIMl0z

>  <s_epik_cmdline>  (229) 
J2VwaWtfcHl0aG9uJywgJy1waHQnLCAnMi4wJywgJy1waCcsICc3LjAnLCAnLXRuJywgJzgnLCAnLW1hJywgJzIwMCcsICctaW1hZScsICc8aW5maWxlLm1hZT4nLCAnLW9tYWUnLCAnPG91dGZpbGUubWFlPic=

>  <r_lp_tautomer_probability>  (229) 
1

>  <r_epik_Ionization_Penalty>  (229) 
1.90373e-06

>  <r_epik_Ionization_Penalty_Charging>  (229) 
0

>  <r_epik_Ionization_Penalty_Neutral>  (229) 
1.90373e-06

>  <r_epik_State_Penalty>  (229) 
-0

>  <r_epik_Charging_Adjusted_Penalty>  (229) 
0

>  <i_epik_Tot_Q>  (229) 
0

>  <i_epik_Tot_abs_Q>  (229) 
0

>  <s_lp_Force_Field>  (229) 
OPLS3e

>  <r_lp_Energy>  (229) 
2.5605

>  <b_lp_Chiralities_Consistent>  (229) 
1

>  <s_lp_Variant>  (229) 
72:0-1

>  <s_i_glide_gridfile>  (229) 
pfpi4k_grid

>  <i_i_glide_lignum>  (229) 
15

>  <i_i_glide_rotatable_bonds>  (229) 
1

>  <r_i_docking_score>  (229) 
-4.1742

>  <r_i_glide_ligand_efficiency>  (229) 
-0.379473

>  <r_i_glide_ligand_efficiency_sa>  (229) 
-0.843941

>  <r_i_glide_ligand_efficiency_ln>  (229) 
-1.22847

>  <r_i_glide_gscore>  (229) 
-4.1742

>  <r_i_glide_lipo>  (229) 
-0.300068

>  <r_i_glide_hbond>  (229) 
-0.32

>  <r_i_glide_metal>  (229) 
-0

>  <r_i_glide_rewards>  (229) 
-2.25

>  <r_i_glide_evdw>  (229) 
-14.5056

>  <r_i_glide_ecoul>  (229) 
-3.85903

>  <r_i_glide_erotb>  (229) 
0

>  <r_i_glide_esite>  (229) 
0

>  <r_i_glide_emodel>  (229) 
-22.9135

>  <r_i_glide_energy>  (229) 
-18.3646

>  <r_i_glide_einternal>  (229) 
0.495146

>  <r_i_glide_intrahb_reward>  (229) 
-0

>  <i_i_glide_confnum>  (229) 
1

>  <i_i_glide_posenum>  (229) 
37

>  <r_i_glide_eff_state_penalty>  (229) 
0

>  <ligand_id>  (229) 
72

>  <original_smiles>  (229) 
OC1C2CC3CC(C2)CC1C3

>  <smiles>  (229) 
[H]OC1([H])C2([H])C([H])([H])C3([H])C([H])([H])C([H])(C2([H])[H])C([H])([H])C1([H])C3([H])[H]

$$$$
72:0:2
     RDKit          3D

 27 29  0  0  1  0  0  0  0  0999 V2000
    4.4925   -2.3774   -3.0640 O   0  0  0  0  0  0  0  0  0  0  0  0
    5.1960   -1.9511   -1.9159 C   0  0  2  0  0  0  0  0  0  0  0  0
    6.0860   -3.0895   -1.3671 C   0  0  1  0  0  0  0  0  0  0  0  0
    6.9215   -2.5632   -0.1784 C   0  0  0  0  0  0  0  0  0  0  0  0
    5.9695   -2.0620    0.9338 C   0  0  2  0  0  0  0  0  0  0  0  0
    5.0898   -3.2307    1.4201 C   0  0  0  0  0  0  0  0  0  0  0  0
    4.2538   -3.7643    0.2406 C   0  0  2  0  0  0  0  0  0  0  0  0
    5.1997   -4.2590   -0.8713 C   0  0  0  0  0  0  0  0  0  0  0  0
    3.3542   -2.6403   -0.3090 C   0  0  0  0  0  0  0  0  0  0  0  0
    4.2337   -1.4683   -0.8031 C   0  0  1  0  0  0  0  0  0  0  0  0
    5.0685   -0.9362    0.3850 C   0  0  0  0  0  0  0  0  0  0  0  0
    3.8933   -3.0599   -2.7984 H   0  0  0  0  0  0  0  0  0  0  0  0
    5.8146   -1.1105   -2.2277 H   0  0  0  0  0  0  0  0  0  0  0  0
    6.7566   -3.4441   -2.1506 H   0  0  0  0  0  0  0  0  0  0  0  0
    7.5712   -3.3509    0.2030 H   0  0  0  0  0  0  0  0  0  0  0  0
    7.5817   -1.7560   -0.4962 H   0  0  0  0  0  0  0  0  0  0  0  0
    6.5497   -1.6765    1.7721 H   0  0  0  0  0  0  0  0  0  0  0  0
    5.7143   -4.0274    1.8235 H   0  0  0  0  0  0  0  0  0  0  0  0
    4.4409   -2.8973    2.2291 H   0  0  0  0  0  0  0  0  0  0  0  0
    3.6310   -4.5939    0.5823 H   0  0  0  0  0  0  0  0  0  0  0  0
    4.6218   -4.6825   -1.6910 H   0  0  0  0  0  0  0  0  0  0  0  0
    5.8200   -5.0689   -0.4900 H   0  0  0  0  0  0  0  0  0  0  0  0
    2.7208   -3.0166   -1.1134 H   0  0  0  0  0  0  0  0  0  0  0  0
    2.6738   -2.2912    0.4689 H   0  0  0  0  0  0  0  0  0  0  0  0
    3.5991   -0.6670   -1.1856 H   0  0  0  0  0  0  0  0  0  0  0  0
    4.4050   -0.5685    1.1709 H   0  0  0  0  0  0  0  0  0  0  0  0
    5.6793   -0.0850    0.0762 H   0  0  0  0  0  0  0  0  0  0  0  0
  1  2  1  0
  1 12  1  0
  2 10  1  0
  2  3  1  0
  2 13  1  6
  3  8  1  0
  3  4  1  0
  3 14  1  6
  4  5  1  0
  4 15  1  0
  4 16  1  0
  5 11  1  0
  5  6  1  0
  5 17  1  1
  6  7  1  0
  6 18  1  0
  6 19  1  0
  7  8  1  0
  7  9  1  0
  7 20  1  1
  8 21  1  0
  8 22  1  0
  9 10  1  0
  9 23  1  0
  9 24  1  0
 10 11  1  0
 10 25  1  6
 11 26  1  0
 11 27  1  0
M  END
>  <i_m_ct_stereo_status>  (230) 
1

>  <s_m_source_file>  (230) 
/var/tmp/pbs.5076255.sched01/tmpinim70aj/80j3ziidn5.sdf

>  <i_m_source_file_index>  (230) 
15

>  <i_lp_mmshare_version>  (230) 
48012

>  <i_f3d_flags>  (230) 
0

>  <s_epik_input>  (230) 
W09IXVtDQEhdKFtDQEBIXTEyKVtDQEhdM1tDSDJdW0NAQEhdKFtDSDJdMilbQ0gyXVtDQEBIXShbQ0gyXTEpW0NIMl0z

>  <s_epik_cmdline>  (230) 
J2VwaWtfcHl0aG9uJywgJy1waHQnLCAnMi4wJywgJy1waCcsICc3LjAnLCAnLXRuJywgJzgnLCAnLW1hJywgJzIwMCcsICctaW1hZScsICc8aW5maWxlLm1hZT4nLCAnLW9tYWUnLCAnPG91dGZpbGUubWFlPic=

>  <r_lp_tautomer_probability>  (230) 
1

>  <r_epik_Ionization_Penalty>  (230) 
1.90373e-06

>  <r_epik_Ionization_Penalty_Charging>  (230) 
0

>  <r_epik_Ionization_Penalty_Neutral>  (230) 
1.90373e-06

>  <r_epik_State_Penalty>  (230) 
-0

>  <r_epik_Charging_Adjusted_Penalty>  (230) 
0

>  <i_epik_Tot_Q>  (230) 
0

>  <i_epik_Tot_abs_Q>  (230) 
0

>  <s_lp_Force_Field>  (230) 
OPLS3e

>  <r_lp_Energy>  (230) 
2.5605

>  <b_lp_Chiralities_Consistent>  (230) 
1

>  <s_lp_Variant>  (230) 
72:0-1

>  <s_i_glide_gridfile>  (230) 
pfpi4k_grid

>  <i_i_glide_lignum>  (230) 
15

>  <i_i_glide_rotatable_bonds>  (230) 
1

>  <r_i_docking_score>  (230) 
-3.69105

>  <r_i_glide_ligand_efficiency>  (230) 
-0.33555

>  <r_i_glide_ligand_efficiency_sa>  (230) 
-0.746257

>  <r_i_glide_ligand_efficiency_ln>  (230) 
-1.08628

>  <r_i_glide_gscore>  (230) 
-3.69105

>  <r_i_glide_lipo>  (230) 
-0.383713

>  <r_i_glide_hbond>  (230) 
0

>  <r_i_glide_metal>  (230) 
-0

>  <r_i_glide_rewards>  (230) 
-2.25

>  <r_i_glide_evdw>  (230) 
-16.53

>  <r_i_glide_ecoul>  (230) 
-1.53893

>  <r_i_glide_erotb>  (230) 
0

>  <r_i_glide_esite>  (230) 
0

>  <r_i_glide_emodel>  (230) 
-22.3647

>  <r_i_glide_energy>  (230) 
-18.0689

>  <r_i_glide_einternal>  (230) 
0.00574596

>  <r_i_glide_intrahb_reward>  (230) 
-0

>  <i_i_glide_confnum>  (230) 
2

>  <i_i_glide_posenum>  (230) 
3

>  <r_i_glide_eff_state_penalty>  (230) 
0

>  <ligand_id>  (230) 
72

>  <original_smiles>  (230) 
OC1C2CC3CC(C2)CC1C3

>  <smiles>  (230) 
[H]OC1([H])C2([H])C([H])([H])C3([H])C([H])([H])C([H])(C2([H])[H])C([H])([H])C1([H])C3([H])[H]

$$$$
74:0:0
     RDKit          3D

 76 81  0  0  1  0  0  0  0  0999 V2000
   -1.3885    4.2520    3.1709 C   0  0  0  0  0  0  0  0  0  0  0  0
   -0.3971    3.4894    3.8550 O   0  0  0  0  0  0  0  0  0  0  0  0
   -0.6132    2.0922    4.1027 C   0  0  1  0  0  0  0  0  0  0  0  0
   -2.0714    1.7884    4.5275 C   0  0  0  0  0  0  0  0  0  0  0  0
   -0.3300    1.3873    2.7535 C   0  0  0  0  0  0  0  0  0  0  0  0
    1.1376    0.9572    2.7883 C   0  0  1  0  0  0  0  0  0  0  0  0
    1.9791    2.1365    2.2254 C   0  0  0  0  0  0  0  0  0  0  0  0
    1.3440    0.5227    4.2921 C   0  0  1  0  0  0  0  0  0  0  0  0
    0.5916   -0.6671    4.3467 O   0  0  0  0  0  0  0  0  0  0  0  0
    2.8151    0.1257    4.7088 C   0  0  1  0  0  0  0  0  0  0  0  0
    3.7902    0.6749    3.8669 O   0  0  0  0  0  0  0  0  0  0  0  0
    3.3730    0.3712    6.1518 C   0  0  2  0  0  0  0  0  0  0  0  0
    3.0828   -0.6265    7.4061 C   0  0  1  0  0  0  0  0  0  0  0  0
    4.0989   -1.7894    7.4515 C   0  0  0  0  0  0  0  0  0  0  0  0
    3.3750    0.3607    8.5277 C   0  0  0  0  0  0  0  0  0  0  0  0
    2.8473    1.6998    7.9570 C   0  0  2  0  0  0  0  0  0  0  0  0
    3.0403    2.7593    8.8772 O   0  0  0  0  0  0  0  0  0  0  0  0
    1.5335    1.3835    7.6049 O   0  0  0  0  0  0  0  0  0  0  0  0
    0.4643    1.7134    6.6948 C   0  0  1  0  0  0  0  0  0  0  0  0
    0.5595    1.6121    5.0712 C   0  0  2  0  0  0  0  0  0  0  0  0
   -0.4436    0.5639    7.3991 C   0  0  1  0  0  0  0  0  0  0  0  0
   -1.1506   -0.2207    6.4746 O   0  0  0  0  0  0  0  0  0  0  0  0
    0.3801   -0.5100    8.2558 C   0  0  1  0  0  0  0  0  0  0  0  0
    0.3718    0.0743    9.7104 C   0  0  0  0  0  0  0  0  0  0  0  0
   -0.1453   -1.7944    8.6521 O   0  0  0  0  0  0  0  0  0  0  0  0
    1.2052   -2.3174    8.6506 C   0  0  0  0  0  0  0  0  0  0  0  0
    1.6211   -1.2625    7.5978 C   0  0  2  0  0  0  0  0  0  0  0  0
    1.4655   -1.9473    6.3830 O   0  0  0  0  0  0  0  0  0  0  0  0
    0.4111    3.2220    7.1198 C   0  0  1  0  0  0  0  0  0  0  0  0
   -0.9041    3.9944    6.8692 C   0  0  0  0  0  0  0  0  0  0  0  0
    0.3323    3.3340    8.5322 O   0  0  0  0  0  0  0  0  0  0  0  0
    1.6834    3.9791    6.5311 C   0  0  1  0  0  0  0  0  0  0  0  0
    2.0427    5.0255    7.4139 O   0  0  0  0  0  0  0  0  0  0  0  0
    3.0209    3.2214    6.0505 C   0  0  0  0  0  0  0  0  0  0  0  0
    3.5455    1.8734    6.6862 C   0  0  2  0  0  0  0  0  0  0  0  0
    4.9402    2.0704    6.8885 O   0  0  0  0  0  0  0  0  0  0  0  0
   -0.9700    5.2286    2.9160 H   0  0  0  0  0  0  0  0  0  0  0  0
   -2.2560    4.4293    3.8052 H   0  0  0  0  0  0  0  0  0  0  0  0
   -1.7354    3.7868    2.2517 H   0  0  0  0  0  0  0  0  0  0  0  0
   -2.2645    0.7190    4.5041 H   0  0  0  0  0  0  0  0  0  0  0  0
   -2.8047    2.2121    3.8387 H   0  0  0  0  0  0  0  0  0  0  0  0
   -2.3044    2.1524    5.5245 H   0  0  0  0  0  0  0  0  0  0  0  0
   -0.9587    0.5048    2.6581 H   0  0  0  0  0  0  0  0  0  0  0  0
   -0.5671    1.9954    1.8789 H   0  0  0  0  0  0  0  0  0  0  0  0
    1.2782    0.1228    2.0993 H   0  0  0  0  0  0  0  0  0  0  0  0
    2.0594    2.9802    2.9070 H   0  0  0  0  0  0  0  0  0  0  0  0
    1.5115    2.5307    1.3262 H   0  0  0  0  0  0  0  0  0  0  0  0
    2.9815    1.8428    1.9236 H   0  0  0  0  0  0  0  0  0  0  0  0
    0.8730   -1.2103    3.6217 H   0  0  0  0  0  0  0  0  0  0  0  0
    2.9378   -0.9434    4.5162 H   0  0  0  0  0  0  0  0  0  0  0  0
    3.5348    0.5173    2.9699 H   0  0  0  0  0  0  0  0  0  0  0  0
    4.4036    0.0750    5.9620 H   0  0  0  0  0  0  0  0  0  0  0  0
    3.9684   -2.3851    8.3538 H   0  0  0  0  0  0  0  0  0  0  0  0
    5.1261   -1.4399    7.4460 H   0  0  0  0  0  0  0  0  0  0  0  0
    3.9898   -2.4734    6.6088 H   0  0  0  0  0  0  0  0  0  0  0  0
    2.9044    0.0975    9.4719 H   0  0  0  0  0  0  0  0  0  0  0  0
    4.4419    0.4425    8.7220 H   0  0  0  0  0  0  0  0  0  0  0  0
    2.6935    3.5562    8.4869 H   0  0  0  0  0  0  0  0  0  0  0  0
    1.2233    2.3952    4.8148 H   0  0  0  0  0  0  0  0  0  0  0  0
   -1.1843    1.0504    8.0266 H   0  0  0  0  0  0  0  0  0  0  0  0
   -0.5283   -0.5411    5.8245 H   0  0  0  0  0  0  0  0  0  0  0  0
    0.7702    1.0915    9.7862 H   0  0  0  0  0  0  0  0  0  0  0  0
    0.9471   -0.5013   10.4345 H   0  0  0  0  0  0  0  0  0  0  0  0
   -0.6271    0.1177   10.1150 H   0  0  0  0  0  0  0  0  0  0  0  0
    1.7481   -2.2445    9.5903 H   0  0  0  0  0  0  0  0  0  0  0  0
    1.2354   -3.3497    8.2831 H   0  0  0  0  0  0  0  0  0  0  0  0
    1.2818   -1.2904    5.7011 H   0  0  0  0  0  0  0  0  0  0  0  0
   -1.1105    4.2176    5.8386 H   0  0  0  0  0  0  0  0  0  0  0  0
   -0.8775    4.9768    7.3488 H   0  0  0  0  0  0  0  0  0  0  0  0
   -1.7654    3.4613    7.2742 H   0  0  0  0  0  0  0  0  0  0  0  0
    0.4168    4.2544    8.7338 H   0  0  0  0  0  0  0  0  0  0  0  0
    1.3271    4.4926    5.6344 H   0  0  0  0  0  0  0  0  0  0  0  0
    2.5472    5.6565    6.9199 H   0  0  0  0  0  0  0  0  0  0  0  0
    3.0725    3.1514    4.9587 H   0  0  0  0  0  0  0  0  0  0  0  0
    3.8065    3.9608    6.2300 H   0  0  0  0  0  0  0  0  0  0  0  0
    5.3394    2.1687    6.0375 H   0  0  0  0  0  0  0  0  0  0  0  0
  1  2  1  0
  1 37  1  0
  1 38  1  0
  1 39  1  0
  3  2  1  6
  3 20  1  0
  3  4  1  0
  3  5  1  0
  4 40  1  0
  4 41  1  0
  4 42  1  0
  5  6  1  0
  5 43  1  0
  5 44  1  0
  6  7  1  0
  6  8  1  0
  6 45  1  6
  7 46  1  0
  7 47  1  0
  7 48  1  0
  8 20  1  0
  8  9  1  6
  8 10  1  0
  9 49  1  0
 10 11  1  0
 10 12  1  0
 10 50  1  6
 11 51  1  0
 12 35  1  0
 12 13  1  0
 12 52  1  6
 13 27  1  0
 13 14  1  6
 13 15  1  0
 14 53  1  0
 14 54  1  0
 14 55  1  0
 15 16  1  0
 15 56  1  0
 15 57  1  0
 16 35  1  0
 16 17  1  1
 16 18  1  0
 17 58  1  0
 19 18  1  1
 19 20  1  0
 19 21  1  0
 19 29  1  0
 20 59  1  6
 21 22  1  0
 21 23  1  0
 21 60  1  1
 22 61  1  0
 23 27  1  0
 23 24  1  1
 23 25  1  0
 24 62  1  0
 24 63  1  0
 24 64  1  0
 25 26  1  0
 26 27  1  0
 26 65  1  0
 26 66  1  0
 27 28  1  6
 28 67  1  0
 29 30  1  0
 29 31  1  1
 29 32  1  0
 30 68  1  0
 30 69  1  0
 30 70  1  0
 31 71  1  0
 32 33  1  0
 32 34  1  0
 32 72  1  6
 33 73  1  0
 34 35  1  0
 34 74  1  0
 34 75  1  0
 35 36  1  1
 36 76  1  0
M  END
>  <i_m_ct_stereo_status>  (231) 
1

>  <s_m_source_file>  (231) 
/var/tmp/pbs.5076255.sched01/tmpinim70aj/80j3ziidn5.sdf

>  <i_m_source_file_index>  (231) 
17

>  <i_lp_mmshare_version>  (231) 
48012

>  <i_f3d_flags>  (231) 
0

>  <s_epik_input>  (231) 
W0NIM11PW0NAQF0xKFtDSDNdKVtDSDJdW0NAQEhdKFtDSDNdKVtDQF0oW09IXSkoW0NAQEhdMVtDQF0yMzQpW0NAQEhdKFtPSF0pW0NAQEhdNVtDQF0oW0NIM10pKFtDQF02KFtPSF0pW0NAQF0oW0NIM10pKFtDQEBIXTNbT0hdKU9bQ0gyXTYpW0NIMl1bQ0BAXShPMikoW09IXSlbQ0BdNShbT0hdKVtDSDJdW0NASF0oW09IXSlbQ0BdNChbQ0gzXSlbT0hd

>  <s_epik_cmdline>  (231) 
J2VwaWtfcHl0aG9uJywgJy1waHQnLCAnMi4wJywgJy1waCcsICc3LjAnLCAnLXRuJywgJzgnLCAnLW1hJywgJzIwMCcsICctaW1hZScsICc8aW5maWxlLm1hZT4nLCAnLW9tYWUnLCAnPG91dGZpbGUubWFlPic=

>  <r_lp_tautomer_probability>  (231) 
1

>  <r_epik_Ionization_Penalty>  (231) 
2.05816e-06

>  <r_epik_Ionization_Penalty_Charging>  (231) 
0

>  <r_epik_Ionization_Penalty_Neutral>  (231) 
2.05816e-06

>  <r_epik_State_Penalty>  (231) 
-0

>  <r_epik_Charging_Adjusted_Penalty>  (231) 
0

>  <i_epik_Tot_Q>  (231) 
0

>  <i_epik_Tot_abs_Q>  (231) 
0

>  <s_lp_Force_Field>  (231) 
OPLS3e

>  <r_lp_Energy>  (231) 
229.446

>  <b_lp_Chiralities_Consistent>  (231) 
1

>  <s_lp_Variant>  (231) 
74:0-1

>  <s_i_glide_gridfile>  (231) 
pfpi4k_grid

>  <i_i_glide_lignum>  (231) 
17

>  <i_i_glide_rotatable_bonds>  (231) 
9

>  <r_i_docking_score>  (231) 
-3.01411

>  <r_i_glide_ligand_efficiency>  (231) 
-0.0837254

>  <r_i_glide_ligand_efficiency_sa>  (231) 
-0.276455

>  <r_i_glide_ligand_efficiency_ln>  (231) 
-0.657598

>  <r_i_glide_gscore>  (231) 
-3.01411

>  <r_i_glide_lipo>  (231) 
0

>  <r_i_glide_hbond>  (231) 
-0.142372

>  <r_i_glide_metal>  (231) 
-0

>  <r_i_glide_rewards>  (231) 
-1

>  <r_i_glide_evdw>  (231) 
-15.8947

>  <r_i_glide_ecoul>  (231) 
-7.18004

>  <r_i_glide_erotb>  (231) 
0

>  <r_i_glide_esite>  (231) 
0

>  <r_i_glide_emodel>  (231) 
-38.4752

>  <r_i_glide_energy>  (231) 
-23.0748

>  <r_i_glide_einternal>  (231) 
1.45233

>  <r_i_glide_intrahb_reward>  (231) 
-1

>  <i_i_glide_confnum>  (231) 
1

>  <i_i_glide_posenum>  (231) 
16

>  <r_i_glide_eff_state_penalty>  (231) 
0

>  <ligand_id>  (231) 
74

>  <original_smiles>  (231) 
COC1(C)CC(C)C2(O)C(O)C3C4(C)CC5(O)OC(C12)(C(O)C1(C)OCC41O)C(C)(O)C(O)CC35O

>  <smiles>  (231) 
[H]OC1([H])C2([H])C3(O[H])C([H])([H])C([H])(O[H])C(O[H])(C([H])([H])[H])C4(OC3(O[H])C([H])([H])C2(C([H])([H])[H])C2(O[H])C([H])([H])OC2(C([H])([H])[H])C4([H])O[H])C2([H])C(OC([H])([H])[H])(C([H])([H])[H])C([H])([H])C([H])(C([H])([H])[H])C12O[H]

$$$$
74:0:1
     RDKit          3D

 76 81  0  0  1  0  0  0  0  0999 V2000
   -2.5535    2.2604    7.0011 C   0  0  0  0  0  0  0  0  0  0  0  0
   -1.2490    1.9681    6.5038 O   0  0  0  0  0  0  0  0  0  0  0  0
   -1.0670    1.0186    5.4367 C   0  0  1  0  0  0  0  0  0  0  0  0
   -1.9196   -0.2591    5.6360 C   0  0  0  0  0  0  0  0  0  0  0  0
   -1.5173    1.7526    4.1512 C   0  0  0  0  0  0  0  0  0  0  0  0
   -0.2649    2.3901    3.5462 C   0  0  1  0  0  0  0  0  0  0  0  0
   -0.1137    3.8098    4.1714 C   0  0  0  0  0  0  0  0  0  0  0  0
    0.8422    1.2997    3.8139 C   0  0  1  0  0  0  0  0  0  0  0  0
    0.4488    0.2857    2.9210 O   0  0  0  0  0  0  0  0  0  0  0  0
    2.3204    1.6842    3.4131 C   0  0  1  0  0  0  0  0  0  0  0  0
    2.5166    3.0691    3.3220 O   0  0  0  0  0  0  0  0  0  0  0  0
    3.5607    1.1399    4.2010 C   0  0  2  0  0  0  0  0  0  0  0  0
    4.1999   -0.3376    3.9375 C   0  0  1  0  0  0  0  0  0  0  0  0
    5.2245   -0.3246    2.7828 C   0  0  0  0  0  0  0  0  0  0  0  0
    4.9566   -0.4633    5.2627 C   0  0  0  0  0  0  0  0  0  0  0  0
    4.0044    0.2224    6.2645 C   0  0  2  0  0  0  0  0  0  0  0  0
    4.5367    0.1957    7.5827 O   0  0  0  0  0  0  0  0  0  0  0  0
    2.8067   -0.4432    6.0596 O   0  0  0  0  0  0  0  0  0  0  0  0
    1.3744   -0.2837    6.1161 C   0  0  1  0  0  0  0  0  0  0  0  0
    0.5107    0.8247    5.2601 C   0  0  2  0  0  0  0  0  0  0  0  0
    1.2200   -1.8145    5.5897 C   0  0  1  0  0  0  0  0  0  0  0  0
    0.2225   -1.9646    4.6150 O   0  0  0  0  0  0  0  0  0  0  0  0
    2.5352   -2.4155    4.9098 C   0  0  1  0  0  0  0  0  0  0  0  0
    3.3021   -3.1227    6.0805 C   0  0  0  0  0  0  0  0  0  0  0  0
    2.5164   -3.5807    4.0654 O   0  0  0  0  0  0  0  0  0  0  0  0
    3.6847   -3.0482    3.3623 C   0  0  0  0  0  0  0  0  0  0  0  0
    3.2509   -1.6151    3.7289 C   0  0  2  0  0  0  0  0  0  0  0  0
    2.5011   -1.2218    2.6241 O   0  0  0  0  0  0  0  0  0  0  0  0
    1.3686    0.1107    7.6460 C   0  0  1  0  0  0  0  0  0  0  0  0
    0.0521   -0.1194    8.4267 C   0  0  0  0  0  0  0  0  0  0  0  0
    2.1345   -0.8244    8.3870 O   0  0  0  0  0  0  0  0  0  0  0  0
    1.9102    1.5987    7.8254 C   0  0  1  0  0  0  0  0  0  0  0  0
    2.4948    1.7621    9.1029 O   0  0  0  0  0  0  0  0  0  0  0  0
    2.8083    2.3333    6.7127 C   0  0  0  0  0  0  0  0  0  0  0  0
    3.7898    1.5716    5.7347 C   0  0  2  0  0  0  0  0  0  0  0  0
    4.9937    2.3182    5.7949 O   0  0  0  0  0  0  0  0  0  0  0  0
   -2.4828    3.0955    7.6960 H   0  0  0  0  0  0  0  0  0  0  0  0
   -2.9690    1.4221    7.5569 H   0  0  0  0  0  0  0  0  0  0  0  0
   -3.2652    2.5485    6.2294 H   0  0  0  0  0  0  0  0  0  0  0  0
   -1.9537   -0.8557    4.7245 H   0  0  0  0  0  0  0  0  0  0  0  0
   -2.9612   -0.0466    5.8574 H   0  0  0  0  0  0  0  0  0  0  0  0
   -1.5392   -0.8954    6.4253 H   0  0  0  0  0  0  0  0  0  0  0  0
   -1.9127    1.0350    3.4378 H   0  0  0  0  0  0  0  0  0  0  0  0
   -2.3171    2.4730    4.3025 H   0  0  0  0  0  0  0  0  0  0  0  0
   -0.4229    2.5432    2.4766 H   0  0  0  0  0  0  0  0  0  0  0  0
    0.2243    3.7923    5.2072 H   0  0  0  0  0  0  0  0  0  0  0  0
   -1.0639    4.3418    4.1675 H   0  0  0  0  0  0  0  0  0  0  0  0
    0.5611    4.4564    3.6113 H   0  0  0  0  0  0  0  0  0  0  0  0
    0.4012    0.6567    2.0431 H   0  0  0  0  0  0  0  0  0  0  0  0
    2.4795    1.3741    2.3786 H   0  0  0  0  0  0  0  0  0  0  0  0
    1.9454    3.4067    2.6267 H   0  0  0  0  0  0  0  0  0  0  0  0
    4.3176    1.7298    3.6959 H   0  0  0  0  0  0  0  0  0  0  0  0
    5.7393   -1.2765    2.6949 H   0  0  0  0  0  0  0  0  0  0  0  0
    5.9903    0.4293    2.9238 H   0  0  0  0  0  0  0  0  0  0  0  0
    4.7505   -0.1319    1.8236 H   0  0  0  0  0  0  0  0  0  0  0  0
    5.1846   -1.4869    5.5505 H   0  0  0  0  0  0  0  0  0  0  0  0
    5.9076    0.0684    5.2399 H   0  0  0  0  0  0  0  0  0  0  0  0
    5.3914    0.6013    7.5271 H   0  0  0  0  0  0  0  0  0  0  0  0
    0.7755    1.7404    5.7183 H   0  0  0  0  0  0  0  0  0  0  0  0
    0.9081   -2.4424    6.4322 H   0  0  0  0  0  0  0  0  0  0  0  0
    0.4927   -1.4777    3.8351 H   0  0  0  0  0  0  0  0  0  0  0  0
    3.5237   -2.4803    6.9288 H   0  0  0  0  0  0  0  0  0  0  0  0
    4.2662   -3.5472    5.8109 H   0  0  0  0  0  0  0  0  0  0  0  0
    2.7332   -3.9563    6.4869 H   0  0  0  0  0  0  0  0  0  0  0  0
    4.6471   -3.3370    3.7640 H   0  0  0  0  0  0  0  0  0  0  0  0
    3.6549   -3.2567    2.2949 H   0  0  0  0  0  0  0  0  0  0  0  0
    1.8607   -0.5539    2.8926 H   0  0  0  0  0  0  0  0  0  0  0  0
   -0.7531    0.5592    8.1762 H   0  0  0  0  0  0  0  0  0  0  0  0
    0.2101    0.0309    9.4941 H   0  0  0  0  0  0  0  0  0  0  0  0
   -0.2927   -1.1431    8.2849 H   0  0  0  0  0  0  0  0  0  0  0  0
    3.0357   -0.7320    8.0678 H   0  0  0  0  0  0  0  0  0  0  0  0
    1.0225    2.2256    7.8947 H   0  0  0  0  0  0  0  0  0  0  0  0
    3.2865    1.2286    9.1353 H   0  0  0  0  0  0  0  0  0  0  0  0
    2.2267    3.0572    6.1438 H   0  0  0  0  0  0  0  0  0  0  0  0
    3.4193    3.0188    7.3039 H   0  0  0  0  0  0  0  0  0  0  0  0
    4.8144    3.1831    5.4439 H   0  0  0  0  0  0  0  0  0  0  0  0
  1  2  1  0
  1 37  1  0
  1 38  1  0
  1 39  1  0
  3  2  1  1
  3 20  1  0
  3  4  1  0
  3  5  1  0
  4 40  1  0
  4 41  1  0
  4 42  1  0
  5  6  1  0
  5 43  1  0
  5 44  1  0
  6  7  1  0
  6  8  1  0
  6 45  1  6
  7 46  1  0
  7 47  1  0
  7 48  1  0
  8 20  1  0
  8  9  1  6
  8 10  1  0
  9 49  1  0
 10 11  1  0
 10 12  1  0
 10 50  1  6
 11 51  1  0
 12 35  1  0
 12 13  1  0
 12 52  1  6
 13 27  1  0
 13 14  1  6
 13 15  1  0
 14 53  1  0
 14 54  1  0
 14 55  1  0
 15 16  1  0
 15 56  1  0
 15 57  1  0
 16 35  1  0
 16 17  1  1
 16 18  1  0
 17 58  1  0
 19 18  1  6
 19 20  1  0
 19 21  1  0
 19 29  1  0
 20 59  1  1
 21 22  1  0
 21 23  1  0
 21 60  1  1
 22 61  1  0
 23 27  1  0
 23 24  1  1
 23 25  1  0
 24 62  1  0
 24 63  1  0
 24 64  1  0
 25 26  1  0
 26 27  1  0
 26 65  1  0
 26 66  1  0
 27 28  1  6
 28 67  1  0
 29 30  1  0
 29 31  1  1
 29 32  1  0
 30 68  1  0
 30 69  1  0
 30 70  1  0
 31 71  1  0
 32 33  1  0
 32 34  1  0
 32 72  1  1
 33 73  1  0
 34 35  1  0
 34 74  1  0
 34 75  1  0
 35 36  1  6
 36 76  1  0
M  END
>  <i_m_ct_stereo_status>  (232) 
1

>  <s_m_source_file>  (232) 
/var/tmp/pbs.5076255.sched01/tmpinim70aj/80j3ziidn5.sdf

>  <i_m_source_file_index>  (232) 
17

>  <i_lp_mmshare_version>  (232) 
48012

>  <i_f3d_flags>  (232) 
0

>  <s_epik_input>  (232) 
W0NIM11PW0NAQF0xKFtDSDNdKVtDSDJdW0NAQEhdKFtDSDNdKVtDQF0oW09IXSkoW0NAQEhdMVtDQF0yMzQpW0NAQEhdKFtPSF0pW0NAQEhdNVtDQF0oW0NIM10pKFtDQF02KFtPSF0pW0NAQF0oW0NIM10pKFtDQEBIXTNbT0hdKU9bQ0gyXTYpW0NIMl1bQ0BAXShPMikoW09IXSlbQ0BdNShbT0hdKVtDSDJdW0NASF0oW09IXSlbQ0BdNChbQ0gzXSlbT0hd

>  <s_epik_cmdline>  (232) 
J2VwaWtfcHl0aG9uJywgJy1waHQnLCAnMi4wJywgJy1waCcsICc3LjAnLCAnLXRuJywgJzgnLCAnLW1hJywgJzIwMCcsICctaW1hZScsICc8aW5maWxlLm1hZT4nLCAnLW9tYWUnLCAnPG91dGZpbGUubWFlPic=

>  <r_lp_tautomer_probability>  (232) 
1

>  <r_epik_Ionization_Penalty>  (232) 
2.05816e-06

>  <r_epik_Ionization_Penalty_Charging>  (232) 
0

>  <r_epik_Ionization_Penalty_Neutral>  (232) 
2.05816e-06

>  <r_epik_State_Penalty>  (232) 
-0

>  <r_epik_Charging_Adjusted_Penalty>  (232) 
0

>  <i_epik_Tot_Q>  (232) 
0

>  <i_epik_Tot_abs_Q>  (232) 
0

>  <s_lp_Force_Field>  (232) 
OPLS3e

>  <r_lp_Energy>  (232) 
229.446

>  <b_lp_Chiralities_Consistent>  (232) 
1

>  <s_lp_Variant>  (232) 
74:0-1

>  <s_i_glide_gridfile>  (232) 
pfpi4k_grid

>  <i_i_glide_lignum>  (232) 
17

>  <i_i_glide_rotatable_bonds>  (232) 
9

>  <r_i_docking_score>  (232) 
-2.52979

>  <r_i_glide_ligand_efficiency>  (232) 
-0.070272

>  <r_i_glide_ligand_efficiency_sa>  (232) 
-0.232033

>  <r_i_glide_ligand_efficiency_ln>  (232) 
-0.551932

>  <r_i_glide_gscore>  (232) 
-2.52979

>  <r_i_glide_lipo>  (232) 
-0.238106

>  <r_i_glide_hbond>  (232) 
0

>  <r_i_glide_metal>  (232) 
-0

>  <r_i_glide_rewards>  (232) 
-1.5

>  <r_i_glide_evdw>  (232) 
-19.2443

>  <r_i_glide_ecoul>  (232) 
1.13685

>  <r_i_glide_erotb>  (232) 
0

>  <r_i_glide_esite>  (232) 
0

>  <r_i_glide_emodel>  (232) 
-37.0708

>  <r_i_glide_energy>  (232) 
-18.1074

>  <r_i_glide_einternal>  (232) 
2.42585

>  <r_i_glide_intrahb_reward>  (232) 
-1.5

>  <i_i_glide_confnum>  (232) 
2

>  <i_i_glide_posenum>  (232) 
2

>  <r_i_glide_eff_state_penalty>  (232) 
0

>  <ligand_id>  (232) 
74

>  <original_smiles>  (232) 
COC1(C)CC(C)C2(O)C(O)C3C4(C)CC5(O)OC(C12)(C(O)C1(C)OCC41O)C(C)(O)C(O)CC35O

>  <smiles>  (232) 
[H]OC1([H])C2([H])C3(O[H])C([H])([H])C([H])(O[H])C(O[H])(C([H])([H])[H])C4(OC3(O[H])C([H])([H])C2(C([H])([H])[H])C2(O[H])C([H])([H])OC2(C([H])([H])[H])C4([H])O[H])C2([H])C(OC([H])([H])[H])(C([H])([H])[H])C([H])([H])C([H])(C([H])([H])[H])C12O[H]

$$$$
74:0:2
     RDKit          3D

 76 81  0  0  1  0  0  0  0  0999 V2000
   -2.0135    3.8265    3.4912 C   0  0  0  0  0  0  0  0  0  0  0  0
   -1.0094    3.6171    4.4888 O   0  0  0  0  0  0  0  0  0  0  0  0
   -0.5693    2.2879    4.7993 C   0  0  1  0  0  0  0  0  0  0  0  0
   -1.7562    1.2987    4.9392 C   0  0  0  0  0  0  0  0  0  0  0  0
    0.3194    1.8460    3.6104 C   0  0  0  0  0  0  0  0  0  0  0  0
    1.7607    2.2079    3.9934 C   0  0  1  0  0  0  0  0  0  0  0  0
    2.0192    3.6652    3.5133 C   0  0  0  0  0  0  0  0  0  0  0  0
    1.8065    1.8860    5.5318 C   0  0  1  0  0  0  0  0  0  0  0  0
    1.7271    0.4783    5.5229 O   0  0  0  0  0  0  0  0  0  0  0  0
    3.1523    2.2497    6.2843 C   0  0  1  0  0  0  0  0  0  0  0  0
    3.9138    3.2488    5.6381 O   0  0  0  0  0  0  0  0  0  0  0  0
    3.1758    2.6716    7.7918 C   0  0  2  0  0  0  0  0  0  0  0  0
    3.1271    1.5938    9.0181 C   0  0  1  0  0  0  0  0  0  0  0  0
    4.5404    1.0857    9.3768 C   0  0  0  0  0  0  0  0  0  0  0  0
    2.6644    2.5498   10.1055 C   0  0  0  0  0  0  0  0  0  0  0  0
    1.7022    3.4763    9.3467 C   0  0  2  0  0  0  0  0  0  0  0  0
    1.1748    4.4523   10.2091 O   0  0  0  0  0  0  0  0  0  0  0  0
    0.8118    2.5851    8.7383 O   0  0  0  0  0  0  0  0  0  0  0  0
   -0.0563    2.3957    7.5959 C   0  0  1  0  0  0  0  0  0  0  0  0
    0.4369    2.4196    6.0454 C   0  0  2  0  0  0  0  0  0  0  0  0
   -0.4358    0.9302    8.1840 C   0  0  1  0  0  0  0  0  0  0  0  0
   -0.4824   -0.0655    7.1856 O   0  0  0  0  0  0  0  0  0  0  0  0
    0.5842    0.3490    9.2624 C   0  0  1  0  0  0  0  0  0  0  0  0
   -0.0218    0.8102   10.6416 C   0  0  0  0  0  0  0  0  0  0  0  0
    0.6631   -1.0397    9.6076 O   0  0  0  0  0  0  0  0  0  0  0  0
    2.0527   -0.8473    9.9488 C   0  0  0  0  0  0  0  0  0  0  0  0
    2.1560    0.3242    8.9548 C   0  0  2  0  0  0  0  0  0  0  0  0
    2.6068   -0.3010    7.7800 O   0  0  0  0  0  0  0  0  0  0  0  0
   -0.9328    3.6744    7.8996 C   0  0  1  0  0  0  0  0  0  0  0  0
   -2.3609    3.6854    7.3073 C   0  0  0  0  0  0  0  0  0  0  0  0
   -1.3326    3.7101    9.2539 O   0  0  0  0  0  0  0  0  0  0  0  0
   -0.1106    4.9822    7.5363 C   0  0  1  0  0  0  0  0  0  0  0  0
   -0.6365    6.1106    8.2460 O   0  0  0  0  0  0  0  0  0  0  0  0
    1.4974    4.9939    7.4191 C   0  0  0  0  0  0  0  0  0  0  0  0
    2.4729    4.0373    8.2342 C   0  0  2  0  0  0  0  0  0  0  0  0
    3.5136    4.8950    8.7087 O   0  0  0  0  0  0  0  0  0  0  0  0
   -2.0894    4.8926    3.2930 H   0  0  0  0  0  0  0  0  0  0  0  0
   -2.9883    3.4931    3.8411 H   0  0  0  0  0  0  0  0  0  0  0  0
   -1.7983    3.3384    2.5415 H   0  0  0  0  0  0  0  0  0  0  0  0
   -1.4128    0.2659    4.9513 H   0  0  0  0  0  0  0  0  0  0  0  0
   -2.4331    1.3447    4.0814 H   0  0  0  0  0  0  0  0  0  0  0  0
   -2.3404    1.4678    5.8359 H   0  0  0  0  0  0  0  0  0  0  0  0
    0.2495    0.7684    3.4742 H   0  0  0  0  0  0  0  0  0  0  0  0
    0.0356    2.2721    2.6496 H   0  0  0  0  0  0  0  0  0  0  0  0
    2.4450    1.5742    3.4285 H   0  0  0  0  0  0  0  0  0  0  0  0
    1.5165    4.4186    4.1177 H   0  0  0  0  0  0  0  0  0  0  0  0
    1.6561    3.8082    2.4972 H   0  0  0  0  0  0  0  0  0  0  0  0
    3.0788    3.9168    3.4613 H   0  0  0  0  0  0  0  0  0  0  0  0
    2.3883    0.1603    4.9293 H   0  0  0  0  0  0  0  0  0  0  0  0
    3.8164    1.3821    6.2112 H   0  0  0  0  0  0  0  0  0  0  0  0
    3.3735    3.9810    5.4447 H   0  0  0  0  0  0  0  0  0  0  0  0
    4.2339    2.9173    7.8598 H   0  0  0  0  0  0  0  0  0  0  0  0
    4.5243    0.4766   10.2771 H   0  0  0  0  0  0  0  0  0  0  0  0
    5.2389    1.8979    9.5591 H   0  0  0  0  0  0  0  0  0  0  0  0
    4.9708    0.4731    8.5856 H   0  0  0  0  0  0  0  0  0  0  0  0
    2.1780    2.0631   10.9509 H   0  0  0  0  0  0  0  0  0  0  0  0
    3.4810    3.1447   10.5179 H   0  0  0  0  0  0  0  0  0  0  0  0
    0.5325    4.9020    9.7109 H   0  0  0  0  0  0  0  0  0  0  0  0
    0.6700    3.4413    5.8742 H   0  0  0  0  0  0  0  0  0  0  0  0
   -1.4370    0.9833    8.6041 H   0  0  0  0  0  0  0  0  0  0  0  0
    0.3624   -0.0977    6.7638 H   0  0  0  0  0  0  0  0  0  0  0  0
   -0.1991    1.8806   10.7312 H   0  0  0  0  0  0  0  0  0  0  0  0
    0.5772    0.5583   11.5161 H   0  0  0  0  0  0  0  0  0  0  0  0
   -0.9809    0.3369   10.8340 H   0  0  0  0  0  0  0  0  0  0  0  0
    2.2571   -0.5526   10.9829 H   0  0  0  0  0  0  0  0  0  0  0  0
    2.6722   -1.7113    9.6861 H   0  0  0  0  0  0  0  0  0  0  0  0
    2.2031    0.1282    7.0273 H   0  0  0  0  0  0  0  0  0  0  0  0
   -2.4180    3.8144    6.2336 H   0  0  0  0  0  0  0  0  0  0  0  0
   -2.9252    4.5238    7.7041 H   0  0  0  0  0  0  0  0  0  0  0  0
   -2.9134    2.7768    7.5588 H   0  0  0  0  0  0  0  0  0  0  0  0
   -1.9315    4.4190    9.3547 H   0  0  0  0  0  0  0  0  0  0  0  0
   -0.4246    5.2262    6.5272 H   0  0  0  0  0  0  0  0  0  0  0  0
   -0.3869    6.1192    9.1457 H   0  0  0  0  0  0  0  0  0  0  0  0
    1.8088    4.9939    6.3706 H   0  0  0  0  0  0  0  0  0  0  0  0
    1.7571    6.0139    7.6967 H   0  0  0  0  0  0  0  0  0  0  0  0
    3.9662    5.2444    7.9671 H   0  0  0  0  0  0  0  0  0  0  0  0
  1  2  1  0
  1 37  1  0
  1 38  1  0
  1 39  1  0
  3  2  1  6
  3 20  1  0
  3  4  1  0
  3  5  1  0
  4 40  1  0
  4 41  1  0
  4 42  1  0
  5  6  1  0
  5 43  1  0
  5 44  1  0
  6  7  1  0
  6  8  1  0
  6 45  1  6
  7 46  1  0
  7 47  1  0
  7 48  1  0
  8 20  1  0
  8  9  1  6
  8 10  1  0
  9 49  1  0
 10 11  1  0
 10 12  1  0
 10 50  1  1
 11 51  1  0
 12 35  1  0
 12 13  1  0
 12 52  1  6
 13 27  1  0
 13 14  1  1
 13 15  1  0
 14 53  1  0
 14 54  1  0
 14 55  1  0
 15 16  1  0
 15 56  1  0
 15 57  1  0
 16 35  1  0
 16 17  1  1
 16 18  1  0
 17 58  1  0
 19 18  1  1
 19 20  1  0
 19 21  1  0
 19 29  1  0
 20 59  1  6
 21 22  1  0
 21 23  1  0
 21 60  1  1
 22 61  1  0
 23 27  1  0
 23 24  1  1
 23 25  1  0
 24 62  1  0
 24 63  1  0
 24 64  1  0
 25 26  1  0
 26 27  1  0
 26 65  1  0
 26 66  1  0
 27 28  1  6
 28 67  1  0
 29 30  1  0
 29 31  1  1
 29 32  1  0
 30 68  1  0
 30 69  1  0
 30 70  1  0
 31 71  1  0
 32 33  1  0
 32 34  1  0
 32 72  1  6
 33 73  1  0
 34 35  1  0
 34 74  1  0
 34 75  1  0
 35 36  1  1
 36 76  1  0
M  END
>  <i_m_ct_stereo_status>  (233) 
1

>  <s_m_source_file>  (233) 
/var/tmp/pbs.5076255.sched01/tmpinim70aj/80j3ziidn5.sdf

>  <i_m_source_file_index>  (233) 
17

>  <i_lp_mmshare_version>  (233) 
48012

>  <i_f3d_flags>  (233) 
0

>  <s_epik_input>  (233) 
W0NIM11PW0NAQF0xKFtDSDNdKVtDSDJdW0NAQEhdKFtDSDNdKVtDQF0oW09IXSkoW0NAQEhdMVtDQF0yMzQpW0NAQEhdKFtPSF0pW0NAQEhdNVtDQF0oW0NIM10pKFtDQF02KFtPSF0pW0NAQF0oW0NIM10pKFtDQEBIXTNbT0hdKU9bQ0gyXTYpW0NIMl1bQ0BAXShPMikoW09IXSlbQ0BdNShbT0hdKVtDSDJdW0NASF0oW09IXSlbQ0BdNChbQ0gzXSlbT0hd

>  <s_epik_cmdline>  (233) 
J2VwaWtfcHl0aG9uJywgJy1waHQnLCAnMi4wJywgJy1waCcsICc3LjAnLCAnLXRuJywgJzgnLCAnLW1hJywgJzIwMCcsICctaW1hZScsICc8aW5maWxlLm1hZT4nLCAnLW9tYWUnLCAnPG91dGZpbGUubWFlPic=

>  <r_lp_tautomer_probability>  (233) 
1

>  <r_epik_Ionization_Penalty>  (233) 
2.05816e-06

>  <r_epik_Ionization_Penalty_Charging>  (233) 
0

>  <r_epik_Ionization_Penalty_Neutral>  (233) 
2.05816e-06

>  <r_epik_State_Penalty>  (233) 
-0

>  <r_epik_Charging_Adjusted_Penalty>  (233) 
0

>  <i_epik_Tot_Q>  (233) 
0

>  <i_epik_Tot_abs_Q>  (233) 
0

>  <s_lp_Force_Field>  (233) 
OPLS3e

>  <r_lp_Energy>  (233) 
229.446

>  <b_lp_Chiralities_Consistent>  (233) 
1

>  <s_lp_Variant>  (233) 
74:0-1

>  <s_i_glide_gridfile>  (233) 
pfpi4k_grid

>  <i_i_glide_lignum>  (233) 
17

>  <i_i_glide_rotatable_bonds>  (233) 
9

>  <r_i_docking_score>  (233) 
-2.45019

>  <r_i_glide_ligand_efficiency>  (233) 
-0.0680608

>  <r_i_glide_ligand_efficiency_sa>  (233) 
-0.224732

>  <r_i_glide_ligand_efficiency_ln>  (233) 
-0.534565

>  <r_i_glide_gscore>  (233) 
-2.45019

>  <r_i_glide_lipo>  (233) 
-0.0911846

>  <r_i_glide_hbond>  (233) 
0

>  <r_i_glide_metal>  (233) 
-0

>  <r_i_glide_rewards>  (233) 
-1

>  <r_i_glide_evdw>  (233) 
-16.3406

>  <r_i_glide_ecoul>  (233) 
-3.61316

>  <r_i_glide_erotb>  (233) 
0

>  <r_i_glide_esite>  (233) 
0

>  <r_i_glide_emodel>  (233) 
-34.5208

>  <r_i_glide_energy>  (233) 
-19.9538

>  <r_i_glide_einternal>  (233) 
0.513877

>  <r_i_glide_intrahb_reward>  (233) 
-1

>  <i_i_glide_confnum>  (233) 
2

>  <i_i_glide_posenum>  (233) 
3

>  <r_i_glide_eff_state_penalty>  (233) 
0

>  <ligand_id>  (233) 
74

>  <original_smiles>  (233) 
COC1(C)CC(C)C2(O)C(O)C3C4(C)CC5(O)OC(C12)(C(O)C1(C)OCC41O)C(C)(O)C(O)CC35O

>  <smiles>  (233) 
[H]OC1([H])C2([H])C3(O[H])C([H])([H])C([H])(O[H])C(O[H])(C([H])([H])[H])C4(OC3(O[H])C([H])([H])C2(C([H])([H])[H])C2(O[H])C([H])([H])OC2(C([H])([H])[H])C4([H])O[H])C2([H])C(OC([H])([H])[H])(C([H])([H])[H])C([H])([H])C([H])(C([H])([H])[H])C12O[H]

$$$$
75:0:0
     RDKit          3D

 77 83  0  0  1  0  0  0  0  0999 V2000
   -1.0977   -9.3034    2.4979 C   0  0  0  0  0  0  0  0  0  0  0  0
   -0.2322   -9.2385    3.6221 O   0  0  0  0  0  0  0  0  0  0  0  0
    1.1033   -9.6399    3.3474 C   0  0  2  0  0  0  0  0  0  0  0  0
    1.4344  -11.0494    3.7871 C   0  0  0  0  0  0  0  0  0  0  0  0
    2.6211  -11.1062    4.3852 C   0  0  0  0  0  0  0  0  0  0  0  0
    3.3063  -12.3205    4.9853 C   0  0  0  0  0  0  0  0  0  0  0  0
    3.2735   -9.7502    4.4762 C   0  0  1  0  0  0  0  0  0  0  0  0
    4.3708   -9.5770    3.4275 C   0  0  0  0  0  0  0  0  0  0  0  0
    4.8777   -8.1389    3.3935 C   0  0  0  0  0  0  0  0  0  0  0  0
    6.0002   -7.9120    2.9484 O   0  0  0  0  0  0  0  0  0  0  0  0
    3.9659   -7.0140    3.9646 C   0  0  1  0  0  0  0  0  0  0  0  0
    4.3934   -5.5973    3.4488 C   0  0  2  0  0  0  0  0  0  0  0  0
    4.2342   -4.4064    4.4420 C   0  0  0  0  0  0  0  0  0  0  0  0
    3.5370   -3.3622    3.5802 C   0  0  1  0  0  0  0  0  0  0  0  0
    3.6101   -1.9610    3.7413 O   0  0  0  0  0  0  0  0  0  0  0  0
    3.0156   -1.4014    2.5467 C   0  0  2  0  0  0  0  0  0  0  0  0
    3.7614   -0.0776    2.1768 C   0  0  0  0  0  0  0  0  0  0  0  0
    3.0748    1.0972    2.6393 O   0  0  0  0  0  0  0  0  0  0  0  0
    1.6778    0.9440    2.8824 C   0  0  1  0  0  0  0  0  0  0  0  0
    0.9997    2.2694    3.1728 C   0  0  0  0  0  0  0  0  0  0  0  0
    1.0011    0.0403    1.8686 C   0  0  0  0  0  0  0  0  0  0  0  0
    1.5404   -1.0369    2.8017 C   0  0  2  0  0  0  0  0  0  0  0  0
    1.4854   -0.0716    3.8859 O   0  0  0  0  0  0  0  0  0  0  0  0
    3.1008   -2.5739    1.4899 C   0  0  1  0  0  0  0  0  0  0  0  0
    3.4075   -2.2394    0.0182 C   0  0  0  0  0  0  0  0  0  0  0  0
    4.0260   -3.5973    2.1635 C   0  0  1  0  0  0  0  0  0  0  0  0
    5.5140   -3.1615    1.9689 C   0  0  0  0  0  0  0  0  0  0  0  0
    3.8388   -5.1539    2.0370 C   0  0  1  0  0  0  0  0  0  0  0  0
    4.6880   -5.7466    0.8831 C   0  0  0  0  0  0  0  0  0  0  0  0
    2.3444   -5.6020    1.8516 C   0  0  1  0  0  0  0  0  0  0  0  0
    1.8987   -5.4703    0.5115 O   0  0  0  0  0  0  0  0  0  0  0  0
    2.0626   -7.0448    2.3018 C   0  0  0  0  0  0  0  0  0  0  0  0
    2.4385   -7.3265    3.7804 C   0  0  2  0  0  0  0  0  0  0  0  0
    1.5839   -6.4349    4.7237 C   0  0  0  0  0  0  0  0  0  0  0  0
    2.0887   -8.8028    4.2079 C   0  0  1  0  0  0  0  0  0  0  0  0
   -2.0909   -8.9538    2.7797 H   0  0  0  0  0  0  0  0  0  0  0  0
   -1.1879  -10.3140    2.1074 H   0  0  0  0  0  0  0  0  0  0  0  0
   -0.7438   -8.6623    1.6901 H   0  0  0  0  0  0  0  0  0  0  0  0
    1.3479   -9.5935    2.2856 H   0  0  0  0  0  0  0  0  0  0  0  0
    0.7727  -11.8863    3.6130 H   0  0  0  0  0  0  0  0  0  0  0  0
    3.4664  -12.1785    6.0530 H   0  0  0  0  0  0  0  0  0  0  0  0
    4.2694  -12.5049    4.5127 H   0  0  0  0  0  0  0  0  0  0  0  0
    2.6920  -13.2084    4.8789 H   0  0  0  0  0  0  0  0  0  0  0  0
    3.6666   -9.6026    5.4830 H   0  0  0  0  0  0  0  0  0  0  0  0
    5.2027  -10.2521    3.6303 H   0  0  0  0  0  0  0  0  0  0  0  0
    3.9950   -9.8360    2.4369 H   0  0  0  0  0  0  0  0  0  0  0  0
    4.1771   -7.0369    5.0338 H   0  0  0  0  0  0  0  0  0  0  0  0
    5.4751   -5.6279    3.3461 H   0  0  0  0  0  0  0  0  0  0  0  0
    3.6613   -4.6466    5.3380 H   0  0  0  0  0  0  0  0  0  0  0  0
    5.2088   -4.0462    4.7730 H   0  0  0  0  0  0  0  0  0  0  0  0
    2.4712   -3.5537    3.6849 H   0  0  0  0  0  0  0  0  0  0  0  0
    4.7822   -0.0710    2.5538 H   0  0  0  0  0  0  0  0  0  0  0  0
    3.8244    0.0718    1.1009 H   0  0  0  0  0  0  0  0  0  0  0  0
    1.4093    2.7904    4.0380 H   0  0  0  0  0  0  0  0  0  0  0  0
   -0.0698    2.1300    3.3327 H   0  0  0  0  0  0  0  0  0  0  0  0
    1.0896    2.9337    2.3122 H   0  0  0  0  0  0  0  0  0  0  0  0
   -0.0809    0.1151    1.8754 H   0  0  0  0  0  0  0  0  0  0  0  0
    1.4408    0.1442    0.8876 H   0  0  0  0  0  0  0  0  0  0  0  0
    0.8392   -1.8606    2.9672 H   0  0  0  0  0  0  0  0  0  0  0  0
    2.1089   -3.0206    1.4406 H   0  0  0  0  0  0  0  0  0  0  0  0
    4.3933   -1.8029   -0.1402 H   0  0  0  0  0  0  0  0  0  0  0  0
    2.6727   -1.5356   -0.3629 H   0  0  0  0  0  0  0  0  0  0  0  0
    3.3250   -3.1358   -0.6003 H   0  0  0  0  0  0  0  0  0  0  0  0
    5.8153   -3.2535    0.9253 H   0  0  0  0  0  0  0  0  0  0  0  0
    6.2160   -3.7546    2.5499 H   0  0  0  0  0  0  0  0  0  0  0  0
    5.6897   -2.1243    2.2495 H   0  0  0  0  0  0  0  0  0  0  0  0
    4.4825   -5.2489   -0.0649 H   0  0  0  0  0  0  0  0  0  0  0  0
    4.4908   -6.8066    0.7447 H   0  0  0  0  0  0  0  0  0  0  0  0
    5.7570   -5.6536    1.0682 H   0  0  0  0  0  0  0  0  0  0  0  0
    1.6658   -4.9694    2.4122 H   0  0  0  0  0  0  0  0  0  0  0  0
    2.5563   -5.8382   -0.0637 H   0  0  0  0  0  0  0  0  0  0  0  0
    0.9997   -7.2336    2.1596 H   0  0  0  0  0  0  0  0  0  0  0  0
    2.5870   -7.7415    1.6492 H   0  0  0  0  0  0  0  0  0  0  0  0
    0.5230   -6.6838    4.6498 H   0  0  0  0  0  0  0  0  0  0  0  0
    1.6624   -5.3746    4.5188 H   0  0  0  0  0  0  0  0  0  0  0  0
    1.8800   -6.5637    5.7676 H   0  0  0  0  0  0  0  0  0  0  0  0
    1.6065   -8.7543    5.1871 H   0  0  0  0  0  0  0  0  0  0  0  0
  1  2  1  0
  1 36  1  0
  1 37  1  0
  1 38  1  0
  2  3  1  0
  3 35  1  0
  3  4  1  0
  3 39  1  6
  4  5  2  0
  4 40  1  0
  5  6  1  0
  5  7  1  0
  6 41  1  0
  6 42  1  0
  6 43  1  0
  7 35  1  0
  7  8  1  0
  7 44  1  1
  8  9  1  0
  8 45  1  0
  8 46  1  0
  9 10  2  0
  9 11  1  0
 11 33  1  0
 11 12  1  0
 11 47  1  1
 12 28  1  0
 12 13  1  0
 12 48  1  6
 13 14  1  0
 13 49  1  0
 13 50  1  0
 14 26  1  0
 14 15  1  0
 14 51  1  6
 16 15  1  1
 16 22  1  0
 16 17  1  0
 16 24  1  0
 17 18  1  0
 17 52  1  0
 17 53  1  0
 18 19  1  0
 19 23  1  0
 19 20  1  1
 19 21  1  0
 20 54  1  0
 20 55  1  0
 20 56  1  0
 21 22  1  0
 21 57  1  0
 21 58  1  0
 22 23  1  0
 22 59  1  1
 24 25  1  0
 24 26  1  0
 24 60  1  6
 25 61  1  0
 25 62  1  0
 25 63  1  0
 26 27  1  1
 26 28  1  0
 27 64  1  0
 27 65  1  0
 27 66  1  0
 28 29  1  6
 28 30  1  0
 29 67  1  0
 29 68  1  0
 29 69  1  0
 30 31  1  0
 30 32  1  0
 30 70  1  1
 31 71  1  0
 32 33  1  0
 32 72  1  0
 32 73  1  0
 33 34  1  1
 33 35  1  0
 34 74  1  0
 34 75  1  0
 34 76  1  0
 35 77  1  1
M  END
>  <i_m_ct_stereo_status>  (234) 
1

>  <s_m_source_file>  (234) 
/var/tmp/pbs.5076255.sched01/tmpinim70aj/80j3ziidn5.sdf

>  <i_m_source_file_index>  (234) 
18

>  <i_lp_mmshare_version>  (234) 
48012

>  <i_f3d_flags>  (234) 
0

>  <s_epik_input>  (234) 
W0NIM11PW0NAQEhdMVtDSF09QyhbQ0gzXSlbQ0BASF0oW0NIMl1DMj1PKVtDQEhdMVtDQF0oW0NIM10pKFtDSDJdW0NAQEhdM1tPSF0pW0NAQEhdMltDQEhdKFtDSDJdNClbQ0BdMyhbQ0gzXSlbQ0BAXShbQ0gzXSkoW0NAQEhdNVtDSDNdKVtDQEBIXTRPW0NAXTU2W0NAQEhdN1tDSDJdW0NAXShPNykoW0NIM10pT1tDSDJdNg==

>  <s_epik_cmdline>  (234) 
J2VwaWtfcHl0aG9uJywgJy1waHQnLCAnMi4wJywgJy1waCcsICc3LjAnLCAnLXRuJywgJzgnLCAnLW1hJywgJzIwMCcsICctaW1hZScsICc8aW5maWxlLm1hZT4nLCAnLW9tYWUnLCAnPG91dGZpbGUubWFlPic=

>  <r_lp_tautomer_probability>  (234) 
1

>  <r_epik_Ionization_Penalty>  (234) 
3.14666e-07

>  <r_epik_Ionization_Penalty_Charging>  (234) 
0

>  <r_epik_Ionization_Penalty_Neutral>  (234) 
3.14666e-07

>  <r_epik_State_Penalty>  (234) 
-0

>  <r_epik_Charging_Adjusted_Penalty>  (234) 
0

>  <i_epik_Tot_Q>  (234) 
0

>  <i_epik_Tot_abs_Q>  (234) 
0

>  <s_lp_Force_Field>  (234) 
OPLS3e

>  <r_lp_Energy>  (234) 
66.6481

>  <b_lp_Chiralities_Consistent>  (234) 
1

>  <s_lp_Variant>  (234) 
75:0-1

>  <s_i_glide_gridfile>  (234) 
pfpi4k_grid

>  <i_i_glide_lignum>  (234) 
18

>  <i_i_glide_rotatable_bonds>  (234) 
2

>  <r_i_docking_score>  (234) 
-2.54665

>  <r_i_glide_ligand_efficiency>  (234) 
-0.0727615

>  <r_i_glide_ligand_efficiency_sa>  (234) 
-0.238008

>  <r_i_glide_ligand_efficiency_ln>  (234) 
-0.559047

>  <r_i_glide_gscore>  (234) 
-2.54665

>  <r_i_glide_lipo>  (234) 
-0.494887

>  <r_i_glide_hbond>  (234) 
-0.0779635

>  <r_i_glide_metal>  (234) 
-0

>  <r_i_glide_rewards>  (234) 
-0.0910897

>  <r_i_glide_evdw>  (234) 
-24.7261

>  <r_i_glide_ecoul>  (234) 
-4.21401

>  <r_i_glide_erotb>  (234) 
0

>  <r_i_glide_esite>  (234) 
-0.0143063

>  <r_i_glide_emodel>  (234) 
-32.1146

>  <r_i_glide_energy>  (234) 
-28.9401

>  <r_i_glide_einternal>  (234) 
1.82873

>  <r_i_glide_intrahb_reward>  (234) 
-0

>  <i_i_glide_confnum>  (234) 
4

>  <i_i_glide_posenum>  (234) 
4

>  <r_i_glide_eff_state_penalty>  (234) 
0

>  <ligand_id>  (234) 
75

>  <original_smiles>  (234) 
COC1C=C(C)C2CC(=O)C3C4CC5OC6(COC7(C)CC6O7)C(C)C5(C)C4(C)C(O)CC3(C)C12

>  <smiles>  (234) 
[H]OC1([H])C([H])([H])C2(C([H])([H])[H])C([H])(C(=O)C([H])([H])C3([H])C(C([H])([H])[H])=C([H])C([H])(OC([H])([H])[H])C32[H])C2([H])C([H])([H])C3([H])OC4(C([H])([H])OC5(C([H])([H])[H])OC4([H])C5([H])[H])C([H])(C([H])([H])[H])C3(C([H])([H])[H])C12C([H])([H])[H]

$$$$
75:0:1
     RDKit          3D

 77 83  0  0  1  0  0  0  0  0999 V2000
    0.0150   -9.8178    3.9813 C   0  0  0  0  0  0  0  0  0  0  0  0
    0.5645   -9.2299    2.8129 O   0  0  0  0  0  0  0  0  0  0  0  0
    1.9581   -9.4253    2.5888 C   0  0  2  0  0  0  0  0  0  0  0  0
    2.4586  -10.8239    2.8818 C   0  0  0  0  0  0  0  0  0  0  0  0
    3.6256  -10.8108    3.5071 C   0  0  0  0  0  0  0  0  0  0  0  0
    4.3922  -12.0200    4.0073 C   0  0  0  0  0  0  0  0  0  0  0  0
    4.1330   -9.4088    3.7171 C   0  0  1  0  0  0  0  0  0  0  0  0
    5.2121   -9.0433    2.7022 C   0  0  0  0  0  0  0  0  0  0  0  0
    5.5750   -7.5642    2.7923 C   0  0  0  0  0  0  0  0  0  0  0  0
    6.6721   -7.1925    2.3851 O   0  0  0  0  0  0  0  0  0  0  0  0
    4.5474   -6.5838    3.4362 C   0  0  1  0  0  0  0  0  0  0  0  0
    4.8408   -5.0962    3.0494 C   0  0  2  0  0  0  0  0  0  0  0  0
    4.5530   -4.0136    4.1338 C   0  0  0  0  0  0  0  0  0  0  0  0
    3.7693   -2.9729    3.3449 C   0  0  1  0  0  0  0  0  0  0  0  0
    3.7024   -1.5894    3.6218 O   0  0  0  0  0  0  0  0  0  0  0  0
    3.0738   -0.9907    2.4652 C   0  0  2  0  0  0  0  0  0  0  0  0
    3.6972    0.4249    2.2208 C   0  0  0  0  0  0  0  0  0  0  0  0
    2.9017    1.4910    2.7621 O   0  0  0  0  0  0  0  0  0  0  0  0
    1.5186    1.1857    2.9485 C   0  0  1  0  0  0  0  0  0  0  0  0
    0.7129    2.4060    3.3445 C   0  0  0  0  0  0  0  0  0  0  0  0
    0.9406    0.3004    1.8566 C   0  0  0  0  0  0  0  0  0  0  0  0
    1.5666   -0.7889    2.7099 C   0  0  2  0  0  0  0  0  0  0  0  0
    1.4005    0.0764    3.8670 O   0  0  0  0  0  0  0  0  0  0  0  0
    3.2847   -2.0573    1.3164 C   0  0  1  0  0  0  0  0  0  0  0  0
    3.5888   -1.5675   -0.1121 C   0  0  0  0  0  0  0  0  0  0  0  0
    4.2961   -3.0408    1.9234 C   0  0  1  0  0  0  0  0  0  0  0  0
    5.7366   -2.4495    1.7957 C   0  0  0  0  0  0  0  0  0  0  0  0
    4.2632   -4.5929    1.6666 C   0  0  1  0  0  0  0  0  0  0  0  0
    5.1814   -5.0046    0.4881 C   0  0  0  0  0  0  0  0  0  0  0  0
    2.8205   -5.1666    1.4128 C   0  0  1  0  0  0  0  0  0  0  0  0
    2.3736   -4.9704    0.0812 O   0  0  0  0  0  0  0  0  0  0  0  0
    2.6713   -6.6628    1.7381 C   0  0  0  0  0  0  0  0  0  0  0  0
    3.0612   -7.0241    3.1958 C   0  0  2  0  0  0  0  0  0  0  0  0
    2.1076   -6.2998    4.1890 C   0  0  0  0  0  0  0  0  0  0  0  0
    2.8665   -8.5547    3.5071 C   0  0  1  0  0  0  0  0  0  0  0  0
   -1.0204   -9.4975    4.0529 H   0  0  0  0  0  0  0  0  0  0  0  0
    0.5113   -9.5039    4.8976 H   0  0  0  0  0  0  0  0  0  0  0  0
    0.0396  -10.9074    3.9273 H   0  0  0  0  0  0  0  0  0  0  0  0
    2.1630   -9.2612    1.5328 H   0  0  0  0  0  0  0  0  0  0  0  0
    1.8954  -11.7075    2.6281 H   0  0  0  0  0  0  0  0  0  0  0  0
    4.5161  -11.9516    5.0871 H   0  0  0  0  0  0  0  0  0  0  0  0
    5.3764  -12.0682    3.5419 H   0  0  0  0  0  0  0  0  0  0  0  0
    3.8559  -12.9444    3.7895 H   0  0  0  0  0  0  0  0  0  0  0  0
    4.4984   -9.3050    4.7393 H   0  0  0  0  0  0  0  0  0  0  0  0
    6.1022   -9.6530    2.8625 H   0  0  0  0  0  0  0  0  0  0  0  0
    4.8638   -9.2555    1.6893 H   0  0  0  0  0  0  0  0  0  0  0  0
    4.7407   -6.6767    4.5047 H   0  0  0  0  0  0  0  0  0  0  0  0
    5.9222   -5.0155    2.9690 H   0  0  0  0  0  0  0  0  0  0  0  0
    3.9937   -4.3818    4.9947 H   0  0  0  0  0  0  0  0  0  0  0  0
    5.4838   -3.5917    4.5149 H   0  0  0  0  0  0  0  0  0  0  0  0
    2.7259   -3.2730    3.4124 H   0  0  0  0  0  0  0  0  0  0  0  0
    4.7047    0.4857    2.6283 H   0  0  0  0  0  0  0  0  0  0  0  0
    3.7604    0.6652    1.1617 H   0  0  0  0  0  0  0  0  0  0  0  0
    1.0620    2.8852    4.2598 H   0  0  0  0  0  0  0  0  0  0  0  0
   -0.3407    2.1519    3.4729 H   0  0  0  0  0  0  0  0  0  0  0  0
    0.7525    3.1447    2.5422 H   0  0  0  0  0  0  0  0  0  0  0  0
   -0.1408    0.2651    1.8479 H   0  0  0  0  0  0  0  0  0  0  0  0
    1.3674    0.4870    0.8762 H   0  0  0  0  0  0  0  0  0  0  0  0
    0.9485   -1.6909    2.7994 H   0  0  0  0  0  0  0  0  0  0  0  0
    2.3397   -2.5896    1.2065 H   0  0  0  0  0  0  0  0  0  0  0  0
    4.5356   -1.0369   -0.2105 H   0  0  0  0  0  0  0  0  0  0  0  0
    2.8139   -0.8838   -0.4455 H   0  0  0  0  0  0  0  0  0  0  0  0
    3.5887   -2.4106   -0.8064 H   0  0  0  0  0  0  0  0  0  0  0  0
    6.0614   -2.4268    0.7555 H   0  0  0  0  0  0  0  0  0  0  0  0
    6.4792   -3.0247    2.3396 H   0  0  0  0  0  0  0  0  0  0  0  0
    5.8111   -1.4284    2.1672 H   0  0  0  0  0  0  0  0  0  0  0  0
    4.9382   -4.4509   -0.4185 H   0  0  0  0  0  0  0  0  0  0  0  0
    5.0879   -6.0627    0.2587 H   0  0  0  0  0  0  0  0  0  0  0  0
    6.2343   -4.8262    0.7020 H   0  0  0  0  0  0  0  0  0  0  0  0
    2.0809   -4.6448    2.0105 H   0  0  0  0  0  0  0  0  0  0  0  0
    2.9948   -5.3596   -0.5212 H   0  0  0  0  0  0  0  0  0  0  0  0
    1.6331   -6.9465    1.5580 H   0  0  0  0  0  0  0  0  0  0  0  0
    3.2705   -7.2469    1.0412 H   0  0  0  0  0  0  0  0  0  0  0  0
    1.0775   -6.6444    4.0728 H   0  0  0  0  0  0  0  0  0  0  0  0
    2.0832   -5.2227    4.0766 H   0  0  0  0  0  0  0  0  0  0  0  0
    2.3990   -6.4864    5.2254 H   0  0  0  0  0  0  0  0  0  0  0  0
    2.4315   -8.6048    4.5021 H   0  0  0  0  0  0  0  0  0  0  0  0
  1  2  1  0
  1 36  1  0
  1 37  1  0
  1 38  1  0
  2  3  1  0
  3 35  1  0
  3  4  1  0
  3 39  1  6
  4  5  2  0
  4 40  1  0
  5  6  1  0
  5  7  1  0
  6 41  1  0
  6 42  1  0
  6 43  1  0
  7 35  1  0
  7  8  1  0
  7 44  1  1
  8  9  1  0
  8 45  1  0
  8 46  1  0
  9 10  2  0
  9 11  1  0
 11 33  1  0
 11 12  1  0
 11 47  1  1
 12 28  1  0
 12 13  1  0
 12 48  1  6
 13 14  1  0
 13 49  1  0
 13 50  1  0
 14 26  1  0
 14 15  1  0
 14 51  1  6
 16 15  1  1
 16 22  1  0
 16 17  1  0
 16 24  1  0
 17 18  1  0
 17 52  1  0
 17 53  1  0
 18 19  1  0
 19 23  1  0
 19 20  1  1
 19 21  1  0
 20 54  1  0
 20 55  1  0
 20 56  1  0
 21 22  1  0
 21 57  1  0
 21 58  1  0
 22 23  1  0
 22 59  1  1
 24 25  1  0
 24 26  1  0
 24 60  1  6
 25 61  1  0
 25 62  1  0
 25 63  1  0
 26 27  1  1
 26 28  1  0
 27 64  1  0
 27 65  1  0
 27 66  1  0
 28 29  1  6
 28 30  1  0
 29 67  1  0
 29 68  1  0
 29 69  1  0
 30 31  1  0
 30 32  1  0
 30 70  1  1
 31 71  1  0
 32 33  1  0
 32 72  1  0
 32 73  1  0
 33 34  1  1
 33 35  1  0
 34 74  1  0
 34 75  1  0
 34 76  1  0
 35 77  1  1
M  END
>  <i_m_ct_stereo_status>  (235) 
1

>  <s_m_source_file>  (235) 
/var/tmp/pbs.5076255.sched01/tmpinim70aj/80j3ziidn5.sdf

>  <i_m_source_file_index>  (235) 
18

>  <i_lp_mmshare_version>  (235) 
48012

>  <i_f3d_flags>  (235) 
0

>  <s_epik_input>  (235) 
W0NIM11PW0NAQEhdMVtDSF09QyhbQ0gzXSlbQ0BASF0oW0NIMl1DMj1PKVtDQEhdMVtDQF0oW0NIM10pKFtDSDJdW0NAQEhdM1tPSF0pW0NAQEhdMltDQEhdKFtDSDJdNClbQ0BdMyhbQ0gzXSlbQ0BAXShbQ0gzXSkoW0NAQEhdNVtDSDNdKVtDQEBIXTRPW0NAXTU2W0NAQEhdN1tDSDJdW0NAXShPNykoW0NIM10pT1tDSDJdNg==

>  <s_epik_cmdline>  (235) 
J2VwaWtfcHl0aG9uJywgJy1waHQnLCAnMi4wJywgJy1waCcsICc3LjAnLCAnLXRuJywgJzgnLCAnLW1hJywgJzIwMCcsICctaW1hZScsICc8aW5maWxlLm1hZT4nLCAnLW9tYWUnLCAnPG91dGZpbGUubWFlPic=

>  <r_lp_tautomer_probability>  (235) 
1

>  <r_epik_Ionization_Penalty>  (235) 
3.14666e-07

>  <r_epik_Ionization_Penalty_Charging>  (235) 
0

>  <r_epik_Ionization_Penalty_Neutral>  (235) 
3.14666e-07

>  <r_epik_State_Penalty>  (235) 
-0

>  <r_epik_Charging_Adjusted_Penalty>  (235) 
0

>  <i_epik_Tot_Q>  (235) 
0

>  <i_epik_Tot_abs_Q>  (235) 
0

>  <s_lp_Force_Field>  (235) 
OPLS3e

>  <r_lp_Energy>  (235) 
66.6481

>  <b_lp_Chiralities_Consistent>  (235) 
1

>  <s_lp_Variant>  (235) 
75:0-1

>  <s_i_glide_gridfile>  (235) 
pfpi4k_grid

>  <i_i_glide_lignum>  (235) 
18

>  <i_i_glide_rotatable_bonds>  (235) 
2

>  <r_i_docking_score>  (235) 
-2.19082

>  <r_i_glide_ligand_efficiency>  (235) 
-0.062595

>  <r_i_glide_ligand_efficiency_sa>  (235) 
-0.204752

>  <r_i_glide_ligand_efficiency_ln>  (235) 
-0.480935

>  <r_i_glide_gscore>  (235) 
-2.19082

>  <r_i_glide_lipo>  (235) 
-0.256056

>  <r_i_glide_hbond>  (235) 
-0.133413

>  <r_i_glide_metal>  (235) 
-0

>  <r_i_glide_rewards>  (235) 
-0.101233

>  <r_i_glide_evdw>  (235) 
-23.1809

>  <r_i_glide_ecoul>  (235) 
-3.49258

>  <r_i_glide_erotb>  (235) 
0

>  <r_i_glide_esite>  (235) 
-0.017188

>  <r_i_glide_emodel>  (235) 
-28.2527

>  <r_i_glide_energy>  (235) 
-26.6735

>  <r_i_glide_einternal>  (235) 
4.07278

>  <r_i_glide_intrahb_reward>  (235) 
-0

>  <i_i_glide_confnum>  (235) 
4

>  <i_i_glide_posenum>  (235) 
23

>  <r_i_glide_eff_state_penalty>  (235) 
0

>  <ligand_id>  (235) 
75

>  <original_smiles>  (235) 
COC1C=C(C)C2CC(=O)C3C4CC5OC6(COC7(C)CC6O7)C(C)C5(C)C4(C)C(O)CC3(C)C12

>  <smiles>  (235) 
[H]OC1([H])C([H])([H])C2(C([H])([H])[H])C([H])(C(=O)C([H])([H])C3([H])C(C([H])([H])[H])=C([H])C([H])(OC([H])([H])[H])C32[H])C2([H])C([H])([H])C3([H])OC4(C([H])([H])OC5(C([H])([H])[H])OC4([H])C5([H])[H])C([H])(C([H])([H])[H])C3(C([H])([H])[H])C12C([H])([H])[H]

$$$$
75:0:2
     RDKit          3D

 77 83  0  0  1  0  0  0  0  0999 V2000
   -1.6491   -9.0461    3.2594 C   0  0  0  0  0  0  0  0  0  0  0  0
   -0.7165   -8.5045    2.3376 O   0  0  0  0  0  0  0  0  0  0  0  0
    0.6484   -8.8872    2.5130 C   0  0  2  0  0  0  0  0  0  0  0  0
    0.8751  -10.3334    2.8645 C   0  0  0  0  0  0  0  0  0  0  0  0
    1.8113  -10.4801    3.8073 C   0  0  0  0  0  0  0  0  0  0  0  0
    2.2404  -11.7569    4.4744 C   0  0  0  0  0  0  0  0  0  0  0  0
    2.3970   -9.1464    4.2102 C   0  0  1  0  0  0  0  0  0  0  0  0
    3.7549   -8.9280    3.5617 C   0  0  0  0  0  0  0  0  0  0  0  0
    4.2586   -7.5051    3.8043 C   0  0  0  0  0  0  0  0  0  0  0  0
    5.4583   -7.2807    3.7449 O   0  0  0  0  0  0  0  0  0  0  0  0
    3.2148   -6.4023    4.1594 C   0  0  1  0  0  0  0  0  0  0  0  0
    3.7924   -4.9665    3.9241 C   0  0  2  0  0  0  0  0  0  0  0  0
    3.3396   -3.8527    4.9139 C   0  0  0  0  0  0  0  0  0  0  0  0
    2.9509   -2.7231    3.9707 C   0  0  1  0  0  0  0  0  0  0  0  0
    2.9736   -1.3451    4.2638 O   0  0  0  0  0  0  0  0  0  0  0  0
    2.7811   -0.6763    2.9995 C   0  0  2  0  0  0  0  0  0  0  0  0
    3.6176    0.6399    2.9872 C   0  0  0  0  0  0  0  0  0  0  0  0
    2.8464    1.8221    3.3167 O   0  0  0  0  0  0  0  0  0  0  0  0
    1.4478    1.6837    3.0839 C   0  0  1  0  0  0  0  0  0  0  0  0
    0.7132    3.0014    3.2967 C   0  0  0  0  0  0  0  0  0  0  0  0
    1.0903    0.8730    1.8405 C   0  0  0  0  0  0  0  0  0  0  0  0
    1.3119   -0.2911    2.8043 C   0  0  2  0  0  0  0  0  0  0  0  0
    0.9334    0.6052    3.9004 O   0  0  0  0  0  0  0  0  0  0  0  0
    3.1838   -1.7649    1.9150 C   0  0  1  0  0  0  0  0  0  0  0  0
    3.9221   -1.3101    0.6476 C   0  0  0  0  0  0  0  0  0  0  0  0
    3.8535   -2.8604    2.7579 C   0  0  1  0  0  0  0  0  0  0  0  0
    5.3288   -2.4627    3.0689 C   0  0  0  0  0  0  0  0  0  0  0  0
    3.7034   -4.3995    2.4509 C   0  0  1  0  0  0  0  0  0  0  0  0
    4.8623   -4.9260    1.5696 C   0  0  0  0  0  0  0  0  0  0  0  0
    2.3397   -4.7873    1.7806 C   0  0  1  0  0  0  0  0  0  0  0  0
    2.3249   -4.5539    0.3855 O   0  0  0  0  0  0  0  0  0  0  0  0
    1.9120   -6.2478    1.9981 C   0  0  0  0  0  0  0  0  0  0  0  0
    1.8193   -6.6492    3.4931 C   0  0  2  0  0  0  0  0  0  0  0  0
    0.7183   -5.8087    4.1966 C   0  0  0  0  0  0  0  0  0  0  0  0
    1.3561   -8.1417    3.6819 C   0  0  1  0  0  0  0  0  0  0  0  0
   -2.6286   -8.6277    3.0509 H   0  0  0  0  0  0  0  0  0  0  0  0
   -1.4079   -8.8269    4.2990 H   0  0  0  0  0  0  0  0  0  0  0  0
   -1.7205  -10.1224    3.1276 H   0  0  0  0  0  0  0  0  0  0  0  0
    1.1724   -8.7404    1.5683 H   0  0  0  0  0  0  0  0  0  0  0  0
    0.3165  -11.1424    2.4178 H   0  0  0  0  0  0  0  0  0  0  0  0
    2.0736  -11.6897    5.5483 H   0  0  0  0  0  0  0  0  0  0  0  0
    3.2980  -11.9534    4.3054 H   0  0  0  0  0  0  0  0  0  0  0  0
    1.6541  -12.6022    4.1144 H   0  0  0  0  0  0  0  0  0  0  0  0
    2.4577   -9.1000    5.2988 H   0  0  0  0  0  0  0  0  0  0  0  0
    4.4790   -9.6463    3.9476 H   0  0  0  0  0  0  0  0  0  0  0  0
    3.6894   -9.0980    2.4858 H   0  0  0  0  0  0  0  0  0  0  0  0
    3.0830   -6.5149    5.2355 H   0  0  0  0  0  0  0  0  0  0  0  0
    4.8523   -5.0241    4.1544 H   0  0  0  0  0  0  0  0  0  0  0  0
    2.5162   -4.1411    5.5712 H   0  0  0  0  0  0  0  0  0  0  0  0
    4.1698   -3.5540    5.5562 H   0  0  0  0  0  0  0  0  0  0  0  0
    1.9039   -2.8865    3.7224 H   0  0  0  0  0  0  0  0  0  0  0  0
    4.4645    0.6042    3.6637 H   0  0  0  0  0  0  0  0  0  0  0  0
    3.9881    0.8840    1.9953 H   0  0  0  0  0  0  0  0  0  0  0  0
    0.8429    3.4247    4.2888 H   0  0  0  0  0  0  0  0  0  0  0  0
   -0.3467    2.8919    3.0982 H   0  0  0  0  0  0  0  0  0  0  0  0
    1.0910    3.7246    2.5779 H   0  0  0  0  0  0  0  0  0  0  0  0
    0.0649    0.9790    1.5281 H   0  0  0  0  0  0  0  0  0  0  0  0
    1.7996    0.9630    1.0084 H   0  0  0  0  0  0  0  0  0  0  0  0
    0.5670   -1.0762    2.7061 H   0  0  0  0  0  0  0  0  0  0  0  0
    2.2563   -2.1724    1.5285 H   0  0  0  0  0  0  0  0  0  0  0  0
    4.9148   -0.8966    0.8334 H   0  0  0  0  0  0  0  0  0  0  0  0
    3.3378   -0.5622    0.1089 H   0  0  0  0  0  0  0  0  0  0  0  0
    4.0345   -2.1575   -0.0367 H   0  0  0  0  0  0  0  0  0  0  0  0
    5.9381   -2.4848    2.1655 H   0  0  0  0  0  0  0  0  0  0  0  0
    5.8082   -3.1190    3.7931 H   0  0  0  0  0  0  0  0  0  0  0  0
    5.4132   -1.4550    3.4729 H   0  0  0  0  0  0  0  0  0  0  0  0
    4.9567   -4.3471    0.6504 H   0  0  0  0  0  0  0  0  0  0  0  0
    4.7064   -5.9643    1.2877 H   0  0  0  0  0  0  0  0  0  0  0  0
    5.8233   -4.8816    2.0794 H   0  0  0  0  0  0  0  0  0  0  0  0
    1.5343   -4.1702    2.1622 H   0  0  0  0  0  0  0  0  0  0  0  0
    3.0389   -5.0331   -0.0225 H   0  0  0  0  0  0  0  0  0  0  0  0
    0.9433   -6.3953    1.5185 H   0  0  0  0  0  0  0  0  0  0  0  0
    2.6097   -6.9053    1.4803 H   0  0  0  0  0  0  0  0  0  0  0  0
   -0.2669   -6.0247    3.7831 H   0  0  0  0  0  0  0  0  0  0  0  0
    0.8588   -4.7382    4.1165 H   0  0  0  0  0  0  0  0  0  0  0  0
    0.6800   -6.0273    5.2658 H   0  0  0  0  0  0  0  0  0  0  0  0
    0.6556   -8.1303    4.5127 H   0  0  0  0  0  0  0  0  0  0  0  0
  1  2  1  0
  1 36  1  0
  1 37  1  0
  1 38  1  0
  2  3  1  0
  3 35  1  0
  3  4  1  0
  3 39  1  6
  4  5  2  0
  4 40  1  0
  5  6  1  0
  5  7  1  0
  6 41  1  0
  6 42  1  0
  6 43  1  0
  7 35  1  0
  7  8  1  0
  7 44  1  1
  8  9  1  0
  8 45  1  0
  8 46  1  0
  9 10  2  0
  9 11  1  0
 11 33  1  0
 11 12  1  0
 11 47  1  1
 12 28  1  0
 12 13  1  0
 12 48  1  1
 13 14  1  0
 13 49  1  0
 13 50  1  0
 14 26  1  0
 14 15  1  0
 14 51  1  6
 16 15  1  1
 16 22  1  0
 16 17  1  0
 16 24  1  0
 17 18  1  0
 17 52  1  0
 17 53  1  0
 18 19  1  0
 19 23  1  0
 19 20  1  6
 19 21  1  0
 20 54  1  0
 20 55  1  0
 20 56  1  0
 21 22  1  0
 21 57  1  0
 21 58  1  0
 22 23  1  0
 22 59  1  6
 24 25  1  0
 24 26  1  0
 24 60  1  6
 25 61  1  0
 25 62  1  0
 25 63  1  0
 26 27  1  1
 26 28  1  0
 27 64  1  0
 27 65  1  0
 27 66  1  0
 28 29  1  6
 28 30  1  0
 29 67  1  0
 29 68  1  0
 29 69  1  0
 30 31  1  0
 30 32  1  0
 30 70  1  1
 31 71  1  0
 32 33  1  0
 32 72  1  0
 32 73  1  0
 33 34  1  1
 33 35  1  0
 34 74  1  0
 34 75  1  0
 34 76  1  0
 35 77  1  1
M  END
>  <i_m_ct_stereo_status>  (236) 
1

>  <s_m_source_file>  (236) 
/var/tmp/pbs.5076255.sched01/tmpinim70aj/80j3ziidn5.sdf

>  <i_m_source_file_index>  (236) 
18

>  <i_lp_mmshare_version>  (236) 
48012

>  <i_f3d_flags>  (236) 
0

>  <s_epik_input>  (236) 
W0NIM11PW0NAQEhdMVtDSF09QyhbQ0gzXSlbQ0BASF0oW0NIMl1DMj1PKVtDQEhdMVtDQF0oW0NIM10pKFtDSDJdW0NAQEhdM1tPSF0pW0NAQEhdMltDQEhdKFtDSDJdNClbQ0BdMyhbQ0gzXSlbQ0BAXShbQ0gzXSkoW0NAQEhdNVtDSDNdKVtDQEBIXTRPW0NAXTU2W0NAQEhdN1tDSDJdW0NAXShPNykoW0NIM10pT1tDSDJdNg==

>  <s_epik_cmdline>  (236) 
J2VwaWtfcHl0aG9uJywgJy1waHQnLCAnMi4wJywgJy1waCcsICc3LjAnLCAnLXRuJywgJzgnLCAnLW1hJywgJzIwMCcsICctaW1hZScsICc8aW5maWxlLm1hZT4nLCAnLW9tYWUnLCAnPG91dGZpbGUubWFlPic=

>  <r_lp_tautomer_probability>  (236) 
1

>  <r_epik_Ionization_Penalty>  (236) 
3.14666e-07

>  <r_epik_Ionization_Penalty_Charging>  (236) 
0

>  <r_epik_Ionization_Penalty_Neutral>  (236) 
3.14666e-07

>  <r_epik_State_Penalty>  (236) 
-0

>  <r_epik_Charging_Adjusted_Penalty>  (236) 
0

>  <i_epik_Tot_Q>  (236) 
0

>  <i_epik_Tot_abs_Q>  (236) 
0

>  <s_lp_Force_Field>  (236) 
OPLS3e

>  <r_lp_Energy>  (236) 
66.6481

>  <b_lp_Chiralities_Consistent>  (236) 
1

>  <s_lp_Variant>  (236) 
75:0-1

>  <s_i_glide_gridfile>  (236) 
pfpi4k_grid

>  <i_i_glide_lignum>  (236) 
18

>  <i_i_glide_rotatable_bonds>  (236) 
2

>  <r_i_docking_score>  (236) 
-1.92421

>  <r_i_glide_ligand_efficiency>  (236) 
-0.0549775

>  <r_i_glide_ligand_efficiency_sa>  (236) 
-0.179835

>  <r_i_glide_ligand_efficiency_ln>  (236) 
-0.422408

>  <r_i_glide_gscore>  (236) 
-1.92421

>  <r_i_glide_lipo>  (236) 
-0.24564

>  <r_i_glide_hbond>  (236) 
-0.00269821

>  <r_i_glide_metal>  (236) 
-0

>  <r_i_glide_rewards>  (236) 
-0.0910897

>  <r_i_glide_evdw>  (236) 
-23.3347

>  <r_i_glide_ecoul>  (236) 
-2.64471

>  <r_i_glide_erotb>  (236) 
0

>  <r_i_glide_esite>  (236) 
-0.0213452

>  <r_i_glide_emodel>  (236) 
-27.041

>  <r_i_glide_energy>  (236) 
-25.9794

>  <r_i_glide_einternal>  (236) 
4.05897

>  <r_i_glide_intrahb_reward>  (236) 
-0

>  <i_i_glide_confnum>  (236) 
4

>  <i_i_glide_posenum>  (236) 
33

>  <r_i_glide_eff_state_penalty>  (236) 
0

>  <ligand_id>  (236) 
75

>  <original_smiles>  (236) 
COC1C=C(C)C2CC(=O)C3C4CC5OC6(COC7(C)CC6O7)C(C)C5(C)C4(C)C(O)CC3(C)C12

>  <smiles>  (236) 
[H]OC1([H])C([H])([H])C2(C([H])([H])[H])C([H])(C(=O)C([H])([H])C3([H])C(C([H])([H])[H])=C([H])C([H])(OC([H])([H])[H])C32[H])C2([H])C([H])([H])C3([H])OC4(C([H])([H])OC5(C([H])([H])[H])OC4([H])C5([H])[H])C([H])(C([H])([H])[H])C3(C([H])([H])[H])C12C([H])([H])[H]

$$$$
76:0:0
     RDKit          3D

 32 35  0  0  1  0  0  0  0  0999 V2000
    5.8261   -0.8453    0.6463 C   0  0  0  0  0  0  0  0  0  0  0  0
    5.0639   -2.1002    1.0046 C   0  0  0  0  0  0  0  0  0  0  0  0
    5.4150   -2.7666    2.3533 C   0  0  0  0  0  0  0  0  0  0  0  0
    3.5067   -2.0453    0.7986 C   0  0  0  0  0  0  0  0  0  0  0  0
    2.5761   -1.4475    1.3188 O   0  0  0  0  0  0  0  0  0  0  0  0
    3.6229   -2.9493   -0.2661 N   0  0  0  0  0  0  0  0  0  0  0  0
    4.9569   -2.9105   -0.2210 C   0  0  0  0  0  0  0  0  0  0  0  0
    5.6305   -3.4060   -1.2836 N   0  0  0  0  0  0  0  0  0  0  0  0
    4.5247   -3.8406   -2.1853 C   0  0  2  0  0  0  0  0  0  0  0  0
    4.4410   -3.0243   -3.4926 C   0  0  2  0  0  0  0  0  0  0  0  0
    4.5905   -1.5052   -3.2385 C   0  0  0  0  0  0  0  0  0  0  0  0
    3.2997   -1.1259   -2.5084 C   0  0  0  0  0  0  0  0  0  0  0  0
    2.5307   -2.4598   -2.4840 C   0  0  1  0  0  0  0  0  0  0  0  0
    2.9466   -3.0741   -3.8016 C   0  0  0  0  0  0  0  0  0  0  0  0
    3.1384   -3.4727   -1.4951 C   0  0  2  0  0  0  0  0  0  0  0  0
    5.4951   -0.5163   -0.3369 H   0  0  0  0  0  0  0  0  0  0  0  0
    6.8895   -1.0660    0.5812 H   0  0  0  0  0  0  0  0  0  0  0  0
    5.6374   -0.0586    1.3643 H   0  0  0  0  0  0  0  0  0  0  0  0
    4.8098   -3.6372    2.6097 H   0  0  0  0  0  0  0  0  0  0  0  0
    5.2437   -2.0481    3.1514 H   0  0  0  0  0  0  0  0  0  0  0  0
    6.4579   -3.0430    2.4028 H   0  0  0  0  0  0  0  0  0  0  0  0
    4.6229   -4.8982   -2.4276 H   0  0  0  0  0  0  0  0  0  0  0  0
    5.0488   -3.4349   -4.2959 H   0  0  0  0  0  0  0  0  0  0  0  0
    5.4734   -1.2370   -2.6562 H   0  0  0  0  0  0  0  0  0  0  0  0
    4.6164   -0.9593   -4.1895 H   0  0  0  0  0  0  0  0  0  0  0  0
    3.5029   -0.6770   -1.5399 H   0  0  0  0  0  0  0  0  0  0  0  0
    2.7494   -0.3865   -3.0744 H   0  0  0  0  0  0  0  0  0  0  0  0
    1.4497   -2.3674   -2.4321 H   0  0  0  0  0  0  0  0  0  0  0  0
    2.6534   -2.4339   -4.6307 H   0  0  0  0  0  0  0  0  0  0  0  0
    2.5433   -4.0771   -3.9413 H   0  0  0  0  0  0  0  0  0  0  0  0
    2.4576   -4.3202   -1.3365 H   0  0  0  0  0  0  0  0  0  0  0  0
    6.5511   -3.1324   -1.5707 H   0  0  0  0  0  0  0  0  0  0  0  0
  1  2  1  0
  1 16  1  0
  1 17  1  0
  1 18  1  0
  2  7  1  0
  2  3  1  0
  2  4  1  0
  3 19  1  0
  3 20  1  0
  3 21  1  0
  4  5  2  0
  4  6  1  0
  6 15  1  0
  6  7  1  0
  7  8  2  0
  8  9  1  0
  8 32  1  0
  9 15  1  0
  9 10  1  0
  9 22  1  6
 10 14  1  0
 10 11  1  0
 10 23  1  6
 11 12  1  0
 11 24  1  0
 11 25  1  0
 12 13  1  0
 12 26  1  0
 12 27  1  0
 13 14  1  0
 13 15  1  0
 13 28  1  6
 14 29  1  0
 14 30  1  0
 15 31  1  1
M  CHG  1   8   1
M  END
>  <i_m_ct_stereo_status>  (237) 
1

>  <s_m_source_file>  (237) 
/var/tmp/pbs.5076255.sched01/tmpinim70aj/80j3ziidn5.sdf

>  <i_m_source_file_index>  (237) 
19

>  <i_lp_mmshare_version>  (237) 
48012

>  <i_f3d_flags>  (237) 
0

>  <s_epik_input>  (237) 
Tz1DMUMoW0NIM10pKFtDSDNdKUMoTjEyKT1OW0NAQEhdM1tDQEBIXTRbQ0gyXVtDSDJdW0NAQEhdKFtDSDJdNClbQ0BIXTIz

>  <s_epik_cmdline>  (237) 
J2VwaWtfcHl0aG9uJywgJy1waHQnLCAnMi4wJywgJy1waCcsICc3LjAnLCAnLXRuJywgJzgnLCAnLW1hJywgJzIwMCcsICctaW1hZScsICc8aW5maWxlLm1hZT4nLCAnLW9tYWUnLCAnPG91dGZpbGUubWFlPic=

>  <r_epik_Ionization_Penalty>  (237) 
0.00226698

>  <r_epik_Ionization_Penalty_Charging>  (237) 
0.00226698

>  <r_epik_Ionization_Penalty_Neutral>  (237) 
4.74925e-14

>  <r_epik_State_Penalty>  (237) 
0.00156175

>  <r_epik_Charging_Adjusted_Penalty>  (237) 
0.00382873

>  <i_epik_Tot_Q>  (237) 
1

>  <i_epik_Tot_abs_Q>  (237) 
1

>  <s_epik_Chemistry_Notes>  (237) 
This compound has an imine and may undergo hydrolysis.

>  <s_lp_Force_Field>  (237) 
OPLS3e

>  <r_lp_Energy>  (237) 
76.0891

>  <b_lp_Chiralities_Consistent>  (237) 
1

>  <s_lp_Variant>  (237) 
76:0-1

>  <s_i_glide_gridfile>  (237) 
pfpi4k_grid

>  <i_i_glide_lignum>  (237) 
19

>  <i_i_glide_rotatable_bonds>  (237) 
0

>  <r_i_docking_score>  (237) 
-4.04873

>  <r_i_glide_ligand_efficiency>  (237) 
-0.269916

>  <r_i_glide_ligand_efficiency_sa>  (237) 
-0.665669

>  <r_i_glide_ligand_efficiency_ln>  (237) 
-1.09188

>  <r_i_glide_gscore>  (237) 
-4.04873

>  <r_i_glide_lipo>  (237) 
-0.67561

>  <r_i_glide_hbond>  (237) 
0

>  <r_i_glide_metal>  (237) 
-0

>  <r_i_glide_rewards>  (237) 
-2.02995

>  <r_i_glide_evdw>  (237) 
-15.5711

>  <r_i_glide_ecoul>  (237) 
-3.48019

>  <r_i_glide_erotb>  (237) 
0

>  <r_i_glide_esite>  (237) 
-0.0425844

>  <r_i_glide_emodel>  (237) 
-20.6566

>  <r_i_glide_energy>  (237) 
-19.0513

>  <r_i_glide_einternal>  (237) 
0

>  <r_i_glide_intrahb_reward>  (237) 
-0

>  <i_i_glide_confnum>  (237) 
2

>  <i_i_glide_posenum>  (237) 
1

>  <r_i_glide_eff_state_penalty>  (237) 
0

>  <ligand_id>  (237) 
76

>  <original_smiles>  (237) 
CC1(C)C(=O)N2C1=NC1C3CCC(C3)C12

>  <smiles>  (237) 
[H][N+]1=C2N(C(=O)C2(C([H])([H])[H])C([H])([H])[H])C2([H])C1([H])C1([H])C([H])([H])C([H])([H])C2([H])C1([H])[H]

$$$$
76:0:1
     RDKit          3D

 32 35  0  0  1  0  0  0  0  0999 V2000
    4.7520   -0.7877   -2.5706 C   0  0  0  0  0  0  0  0  0  0  0  0
    3.9392   -2.0309   -2.2670 C   0  0  0  0  0  0  0  0  0  0  0  0
    2.5881   -2.1253   -2.9424 C   0  0  0  0  0  0  0  0  0  0  0  0
    4.7309   -3.3574   -2.3640 C   0  0  0  0  0  0  0  0  0  0  0  0
    5.3510   -3.9035   -3.2486 O   0  0  0  0  0  0  0  0  0  0  0  0
    4.5278   -3.5955   -1.0081 N   0  0  0  0  0  0  0  0  0  0  0  0
    4.0916   -2.3433   -0.8179 C   0  0  0  0  0  0  0  0  0  0  0  0
    4.1342   -1.8062    0.4056 N   0  0  0  0  0  0  0  0  0  0  0  0
    4.8303   -2.8858    1.1754 C   0  0  2  0  0  0  0  0  0  0  0  0
    6.2316   -2.5152    1.6860 C   0  0  2  0  0  0  0  0  0  0  0  0
    7.0774   -1.7596    0.6411 C   0  0  0  0  0  0  0  0  0  0  0  0
    7.3745   -2.8701   -0.3894 C   0  0  0  0  0  0  0  0  0  0  0  0
    6.6909   -4.1204    0.2042 C   0  0  1  0  0  0  0  0  0  0  0  0
    6.9315   -3.8787    1.6817 C   0  0  0  0  0  0  0  0  0  0  0  0
    5.1457   -4.0877    0.1948 C   0  0  2  0  0  0  0  0  0  0  0  0
    5.7009   -0.8435   -2.0466 H   0  0  0  0  0  0  0  0  0  0  0  0
    4.2342    0.1196   -2.2435 H   0  0  0  0  0  0  0  0  0  0  0  0
    4.9333   -0.7337   -3.6442 H   0  0  0  0  0  0  0  0  0  0  0  0
    2.0041   -3.0260   -2.7201 H   0  0  0  0  0  0  0  0  0  0  0  0
    2.6912   -2.0660   -4.0300 H   0  0  0  0  0  0  0  0  0  0  0  0
    2.0363   -1.2589   -2.6449 H   0  0  0  0  0  0  0  0  0  0  0  0
    4.1977   -3.2236    2.0092 H   0  0  0  0  0  0  0  0  0  0  0  0
    6.1898   -2.0354    2.6695 H   0  0  0  0  0  0  0  0  0  0  0  0
    6.5767   -0.8816    0.2275 H   0  0  0  0  0  0  0  0  0  0  0  0
    8.0061   -1.4009    1.0749 H   0  0  0  0  0  0  0  0  0  0  0  0
    7.0753   -2.5982   -1.3910 H   0  0  0  0  0  0  0  0  0  0  0  0
    8.4590   -3.0248   -0.4362 H   0  0  0  0  0  0  0  0  0  0  0  0
    7.1058   -5.0634   -0.1544 H   0  0  0  0  0  0  0  0  0  0  0  0
    8.0122   -3.8603    1.8559 H   0  0  0  0  0  0  0  0  0  0  0  0
    6.4629   -4.6245    2.3261 H   0  0  0  0  0  0  0  0  0  0  0  0
    4.6998   -4.9978    0.5619 H   0  0  0  0  0  0  0  0  0  0  0  0
    4.2329   -0.8173    0.5625 H   0  0  0  0  0  0  0  0  0  0  0  0
  1  2  1  0
  1 16  1  0
  1 17  1  0
  1 18  1  0
  2  7  1  0
  2  3  1  0
  2  4  1  0
  3 19  1  0
  3 20  1  0
  3 21  1  0
  4  5  2  0
  4  6  1  0
  6 15  1  0
  6  7  1  0
  7  8  2  0
  8  9  1  0
  8 32  1  0
  9 15  1  0
  9 10  1  0
  9 22  1  1
 10 14  1  0
 10 11  1  0
 10 23  1  1
 11 12  1  0
 11 24  1  0
 11 25  1  0
 12 13  1  0
 12 26  1  0
 12 27  1  0
 13 14  1  0
 13 15  1  0
 13 28  1  6
 14 29  1  0
 14 30  1  0
 15 31  1  1
M  CHG  1   8   1
M  END
>  <i_m_ct_stereo_status>  (238) 
1

>  <s_m_source_file>  (238) 
/var/tmp/pbs.5076255.sched01/tmpinim70aj/80j3ziidn5.sdf

>  <i_m_source_file_index>  (238) 
19

>  <i_lp_mmshare_version>  (238) 
48012

>  <i_f3d_flags>  (238) 
0

>  <s_epik_input>  (238) 
Tz1DMUMoW0NIM10pKFtDSDNdKUMoTjEyKT1OW0NAQEhdM1tDQEBIXTRbQ0gyXVtDSDJdW0NAQEhdKFtDSDJdNClbQ0BIXTIz

>  <s_epik_cmdline>  (238) 
J2VwaWtfcHl0aG9uJywgJy1waHQnLCAnMi4wJywgJy1waCcsICc3LjAnLCAnLXRuJywgJzgnLCAnLW1hJywgJzIwMCcsICctaW1hZScsICc8aW5maWxlLm1hZT4nLCAnLW9tYWUnLCAnPG91dGZpbGUubWFlPic=

>  <r_epik_Ionization_Penalty>  (238) 
0.00226698

>  <r_epik_Ionization_Penalty_Charging>  (238) 
0.00226698

>  <r_epik_Ionization_Penalty_Neutral>  (238) 
4.74925e-14

>  <r_epik_State_Penalty>  (238) 
0.00156175

>  <r_epik_Charging_Adjusted_Penalty>  (238) 
0.00382873

>  <i_epik_Tot_Q>  (238) 
1

>  <i_epik_Tot_abs_Q>  (238) 
1

>  <s_epik_Chemistry_Notes>  (238) 
This compound has an imine and may undergo hydrolysis.

>  <s_lp_Force_Field>  (238) 
OPLS3e

>  <r_lp_Energy>  (238) 
76.0891

>  <b_lp_Chiralities_Consistent>  (238) 
1

>  <s_lp_Variant>  (238) 
76:0-1

>  <s_i_glide_gridfile>  (238) 
pfpi4k_grid

>  <i_i_glide_lignum>  (238) 
19

>  <i_i_glide_rotatable_bonds>  (238) 
0

>  <r_i_docking_score>  (238) 
-3.48396

>  <r_i_glide_ligand_efficiency>  (238) 
-0.232264

>  <r_i_glide_ligand_efficiency_sa>  (238) 
-0.572812

>  <r_i_glide_ligand_efficiency_ln>  (238) 
-0.939566

>  <r_i_glide_gscore>  (238) 
-3.48396

>  <r_i_glide_lipo>  (238) 
-0.358245

>  <r_i_glide_hbond>  (238) 
0

>  <r_i_glide_metal>  (238) 
-0

>  <r_i_glide_rewards>  (238) 
-2.1003

>  <r_i_glide_evdw>  (238) 
-12.2118

>  <r_i_glide_ecoul>  (238) 
-2.492

>  <r_i_glide_erotb>  (238) 
0

>  <r_i_glide_esite>  (238) 
-0.0410234

>  <r_i_glide_emodel>  (238) 
-15.7567

>  <r_i_glide_energy>  (238) 
-14.7039

>  <r_i_glide_einternal>  (238) 
0

>  <r_i_glide_intrahb_reward>  (238) 
-0

>  <i_i_glide_confnum>  (238) 
2

>  <i_i_glide_posenum>  (238) 
37

>  <r_i_glide_eff_state_penalty>  (238) 
0

>  <ligand_id>  (238) 
76

>  <original_smiles>  (238) 
CC1(C)C(=O)N2C1=NC1C3CCC(C3)C12

>  <smiles>  (238) 
[H][N+]1=C2N(C(=O)C2(C([H])([H])[H])C([H])([H])[H])C2([H])C1([H])C1([H])C([H])([H])C([H])([H])C2([H])C1([H])[H]

$$$$
76:0:2
     RDKit          3D

 32 35  0  0  1  0  0  0  0  0999 V2000
    4.9115   -0.7407   -2.1657 C   0  0  0  0  0  0  0  0  0  0  0  0
    3.7622   -1.6844   -2.2257 C   0  0  0  0  0  0  0  0  0  0  0  0
    2.6249   -1.2738   -3.1521 C   0  0  0  0  0  0  0  0  0  0  0  0
    4.1607   -3.1842   -2.3183 C   0  0  0  0  0  0  0  0  0  0  0  0
    4.7704   -3.8721   -3.1197 O   0  0  0  0  0  0  0  0  0  0  0  0
    3.6297   -3.4198   -1.0578 N   0  0  0  0  0  0  0  0  0  0  0  0
    3.4942   -2.1066   -0.8265 C   0  0  0  0  0  0  0  0  0  0  0  0
    3.4190   -1.6762    0.4300 N   0  0  0  0  0  0  0  0  0  0  0  0
    3.5911   -2.9551    1.2040 C   0  0  2  0  0  0  0  0  0  0  0  0
    4.8855   -3.0355    2.0455 C   0  0  2  0  0  0  0  0  0  0  0  0
    6.1110   -2.5096    1.2827 C   0  0  0  0  0  0  0  0  0  0  0  0
    6.3278   -3.5819    0.2092 C   0  0  0  0  0  0  0  0  0  0  0  0
    5.2212   -4.6222    0.5008 C   0  0  1  0  0  0  0  0  0  0  0  0
    5.1720   -4.5465    2.0234 C   0  0  0  0  0  0  0  0  0  0  0  0
    3.7893   -4.1341    0.1765 C   0  0  2  0  0  0  0  0  0  0  0  0
    5.6731   -1.0648   -1.4546 H   0  0  0  0  0  0  0  0  0  0  0  0
    4.5375    0.2350   -1.8896 H   0  0  0  0  0  0  0  0  0  0  0  0
    5.3518   -0.6637   -3.1390 H   0  0  0  0  0  0  0  0  0  0  0  0
    1.8311   -2.0246   -3.1878 H   0  0  0  0  0  0  0  0  0  0  0  0
    2.9877   -1.1815   -4.1773 H   0  0  0  0  0  0  0  0  0  0  0  0
    2.2153   -0.2985   -2.8877 H   0  0  0  0  0  0  0  0  0  0  0  0
    2.7180   -3.1349    1.8276 H   0  0  0  0  0  0  0  0  0  0  0  0
    4.7838   -2.6380    3.0556 H   0  0  0  0  0  0  0  0  0  0  0  0
    5.9870   -1.4987    0.8887 H   0  0  0  0  0  0  0  0  0  0  0  0
    6.9746   -2.4861    1.9378 H   0  0  0  0  0  0  0  0  0  0  0  0
    6.3427   -3.1711   -0.7946 H   0  0  0  0  0  0  0  0  0  0  0  0
    7.3097   -4.0386    0.3557 H   0  0  0  0  0  0  0  0  0  0  0  0
    5.4406   -5.6022    0.0858 H   0  0  0  0  0  0  0  0  0  0  0  0
    6.1262   -4.8153    2.4864 H   0  0  0  0  0  0  0  0  0  0  0  0
    4.3787   -5.1521    2.4622 H   0  0  0  0  0  0  0  0  0  0  0  0
    3.0323   -4.9076    0.3176 H   0  0  0  0  0  0  0  0  0  0  0  0
    3.7251   -0.7649    0.7324 H   0  0  0  0  0  0  0  0  0  0  0  0
  1  2  1  0
  1 16  1  0
  1 17  1  0
  1 18  1  0
  2  7  1  0
  2  3  1  0
  2  4  1  0
  3 19  1  0
  3 20  1  0
  3 21  1  0
  4  5  2  0
  4  6  1  0
  6 15  1  0
  6  7  1  0
  7  8  2  0
  8  9  1  0
  8 32  1  0
  9 15  1  0
  9 10  1  0
  9 22  1  1
 10 14  1  0
 10 11  1  0
 10 23  1  1
 11 12  1  0
 11 24  1  0
 11 25  1  0
 12 13  1  0
 12 26  1  0
 12 27  1  0
 13 14  1  0
 13 15  1  0
 13 28  1  1
 14 29  1  0
 14 30  1  0
 15 31  1  1
M  CHG  1   8   1
M  END
>  <i_m_ct_stereo_status>  (239) 
1

>  <s_m_source_file>  (239) 
/var/tmp/pbs.5076255.sched01/tmpinim70aj/80j3ziidn5.sdf

>  <i_m_source_file_index>  (239) 
19

>  <i_lp_mmshare_version>  (239) 
48012

>  <i_f3d_flags>  (239) 
0

>  <s_epik_input>  (239) 
Tz1DMUMoW0NIM10pKFtDSDNdKUMoTjEyKT1OW0NAQEhdM1tDQEBIXTRbQ0gyXVtDSDJdW0NAQEhdKFtDSDJdNClbQ0BIXTIz

>  <s_epik_cmdline>  (239) 
J2VwaWtfcHl0aG9uJywgJy1waHQnLCAnMi4wJywgJy1waCcsICc3LjAnLCAnLXRuJywgJzgnLCAnLW1hJywgJzIwMCcsICctaW1hZScsICc8aW5maWxlLm1hZT4nLCAnLW9tYWUnLCAnPG91dGZpbGUubWFlPic=

>  <r_epik_Ionization_Penalty>  (239) 
0.00226698

>  <r_epik_Ionization_Penalty_Charging>  (239) 
0.00226698

>  <r_epik_Ionization_Penalty_Neutral>  (239) 
4.74925e-14

>  <r_epik_State_Penalty>  (239) 
0.00156175

>  <r_epik_Charging_Adjusted_Penalty>  (239) 
0.00382873

>  <i_epik_Tot_Q>  (239) 
1

>  <i_epik_Tot_abs_Q>  (239) 
1

>  <s_epik_Chemistry_Notes>  (239) 
This compound has an imine and may undergo hydrolysis.

>  <s_lp_Force_Field>  (239) 
OPLS3e

>  <r_lp_Energy>  (239) 
76.0891

>  <b_lp_Chiralities_Consistent>  (239) 
1

>  <s_lp_Variant>  (239) 
76:0-1

>  <s_i_glide_gridfile>  (239) 
pfpi4k_grid

>  <i_i_glide_lignum>  (239) 
19

>  <i_i_glide_rotatable_bonds>  (239) 
0

>  <r_i_docking_score>  (239) 
-3.47013

>  <r_i_glide_ligand_efficiency>  (239) 
-0.231342

>  <r_i_glide_ligand_efficiency_sa>  (239) 
-0.570538

>  <r_i_glide_ligand_efficiency_ln>  (239) 
-0.935837

>  <r_i_glide_gscore>  (239) 
-3.47013

>  <r_i_glide_lipo>  (239) 
-0.334757

>  <r_i_glide_hbond>  (239) 
0

>  <r_i_glide_metal>  (239) 
-0

>  <r_i_glide_rewards>  (239) 
-2.05944

>  <r_i_glide_evdw>  (239) 
-11.1219

>  <r_i_glide_ecoul>  (239) 
-2.42701

>  <r_i_glide_erotb>  (239) 
0

>  <r_i_glide_esite>  (239) 
-0.155788

>  <r_i_glide_emodel>  (239) 
-14.857

>  <r_i_glide_energy>  (239) 
-13.5489

>  <r_i_glide_einternal>  (239) 
0

>  <r_i_glide_intrahb_reward>  (239) 
-0

>  <i_i_glide_confnum>  (239) 
1

>  <i_i_glide_posenum>  (239) 
7

>  <r_i_glide_eff_state_penalty>  (239) 
0

>  <ligand_id>  (239) 
76

>  <original_smiles>  (239) 
CC1(C)C(=O)N2C1=NC1C3CCC(C3)C12

>  <smiles>  (239) 
[H][N+]1=C2N(C(=O)C2(C([H])([H])[H])C([H])([H])[H])C2([H])C1([H])C1([H])C([H])([H])C([H])([H])C2([H])C1([H])[H]

$$$$
77:1:0
     RDKit          3D

 78 84  0  0  1  0  0  0  0  0999 V2000
    6.8439  -13.4218    2.5222 C   0  0  0  0  0  0  0  0  0  0  0  0
    6.3224  -11.9976    2.7393 C   0  0  0  0  0  0  0  0  0  0  0  0
    5.4103  -11.6919    3.9819 C   0  0  0  0  0  0  0  0  0  0  0  0
    4.1467  -12.6002    3.8188 C   0  0  0  0  0  0  0  0  0  0  0  0
    6.2027  -12.2752    5.2230 C   0  0  0  0  0  0  0  0  0  0  0  0
    5.6063  -12.3074    6.6451 C   0  0  0  0  0  0  0  0  0  0  0  0
    5.0588  -10.0992    4.1212 C   0  0  2  0  0  0  0  0  0  0  0  0
    4.5015   -9.4949    2.7116 C   0  0  1  0  0  0  0  0  0  0  0  0
    3.4819  -10.2463    2.1529 O   0  0  0  0  0  0  0  0  0  0  0  0
    3.8549   -8.0462    2.6478 C   0  0  0  0  0  0  0  0  0  0  0  0
    4.1830   -7.0585    3.8200 C   0  0  2  0  0  0  0  0  0  0  0  0
    5.6872   -6.6561    3.8215 C   0  0  2  0  0  0  0  0  0  0  0  0
    6.4438   -6.6321    5.1705 C   0  0  0  0  0  0  0  0  0  0  0  0
    6.8806   -5.4064    5.7099 C   0  0  0  0  0  0  0  0  0  0  0  0
    7.6769   -5.5848    6.8765 C   0  0  0  0  0  0  0  0  0  0  0  0
    8.0140   -6.8532    7.3942 C   0  0  0  0  0  0  0  0  0  0  0  0
    7.5731   -8.0974    6.8411 C   0  0  0  0  0  0  0  0  0  0  0  0
    6.7584   -7.9447    5.7040 C   0  0  0  0  0  0  0  0  0  0  0  0
    6.2597   -9.2446    4.9081 C   0  0  2  0  0  0  0  0  0  0  0  0
    7.3309   -9.0490    3.7268 C   0  0  0  0  0  0  0  0  0  0  0  0
    7.6764   -7.7144    2.9725 C   0  0  0  0  0  0  0  0  0  0  0  0
    6.5527   -6.7959    2.6542 N   0  0  0  0  0  0  0  0  0  0  0  0
    7.0842   -5.5449    2.1353 C   0  0  0  0  0  0  0  0  0  0  0  0
    4.8993   -8.7442    5.6528 C   0  0  2  0  0  0  0  0  0  0  0  0
    4.0316   -9.8444    5.2183 C   0  0  1  0  0  0  0  0  0  0  0  0
    2.9183   -8.9156    5.0031 N   0  0  1  0  0  0  0  0  0  0  0  0
    1.7335   -9.1752    5.8526 C   0  0  0  0  0  0  0  0  0  0  0  0
    3.8225   -7.7307    5.1706 C   0  0  2  0  0  0  0  0  0  0  0  0
    3.3958   -6.7070    6.2786 C   0  0  0  0  0  0  0  0  0  0  0  0
    2.2748   -5.7217    5.9609 C   0  0  0  0  0  0  0  0  0  0  0  0
    2.5816   -4.4778    5.3616 C   0  0  0  0  0  0  0  0  0  0  0  0
    1.5551   -3.5529    5.1088 C   0  0  0  0  0  0  0  0  0  0  0  0
    0.2136   -3.8694    5.4246 C   0  0  0  0  0  0  0  0  0  0  0  0
   -0.0807   -5.0972    6.0463 C   0  0  0  0  0  0  0  0  0  0  0  0
    0.9457   -5.9934    6.3602 C   0  0  0  0  0  0  0  0  0  0  0  0
    7.4395  -13.3992    1.6036 H   0  0  0  0  0  0  0  0  0  0  0  0
    6.0626  -14.1902    2.4583 H   0  0  0  0  0  0  0  0  0  0  0  0
    7.5808  -13.6863    3.2927 H   0  0  0  0  0  0  0  0  0  0  0  0
    7.3050  -11.5292    2.8305 H   0  0  0  0  0  0  0  0  0  0  0  0
    5.8409  -11.6670    1.8191 H   0  0  0  0  0  0  0  0  0  0  0  0
    3.3155  -12.3508    4.4868 H   0  0  0  0  0  0  0  0  0  0  0  0
    4.3886  -13.6525    3.9999 H   0  0  0  0  0  0  0  0  0  0  0  0
    3.7612  -12.5923    2.7982 H   0  0  0  0  0  0  0  0  0  0  0  0
    6.3762  -13.3366    5.0441 H   0  0  0  0  0  0  0  0  0  0  0  0
    7.1930  -11.8245    5.2714 H   0  0  0  0  0  0  0  0  0  0  0  0
    6.2840  -12.8453    7.3114 H   0  0  0  0  0  0  0  0  0  0  0  0
    4.6558  -12.8398    6.6842 H   0  0  0  0  0  0  0  0  0  0  0  0
    5.4944  -11.3215    7.0832 H   0  0  0  0  0  0  0  0  0  0  0  0
    5.2841   -9.4633    1.9589 H   0  0  0  0  0  0  0  0  0  0  0  0
    3.8910  -10.9290    1.5431 H   0  0  0  0  0  0  0  0  0  0  0  0
    4.1535   -7.5790    1.7168 H   0  0  0  0  0  0  0  0  0  0  0  0
    2.7738   -8.0929    2.5510 H   0  0  0  0  0  0  0  0  0  0  0  0
    3.5932   -6.1606    3.6573 H   0  0  0  0  0  0  0  0  0  0  0  0
    5.6437   -7.6527    3.6102 H   0  0  0  0  0  0  0  0  0  0  0  0
    6.6472   -4.4241    5.2990 H   0  0  0  0  0  0  0  0  0  0  0  0
    8.0365   -4.6985    7.3914 H   0  0  0  0  0  0  0  0  0  0  0  0
    8.6422   -6.8806    8.2723 H   0  0  0  0  0  0  0  0  0  0  0  0
    7.8967   -9.0611    7.2380 H   0  0  0  0  0  0  0  0  0  0  0  0
    8.2675   -9.4865    4.0646 H   0  0  0  0  0  0  0  0  0  0  0  0
    7.0461   -9.6118    2.8476 H   0  0  0  0  0  0  0  0  0  0  0  0
    8.4972   -7.1888    3.4731 H   0  0  0  0  0  0  0  0  0  0  0  0
    8.0830   -8.0272    2.0040 H   0  0  0  0  0  0  0  0  0  0  0  0
    7.6585   -5.7188    1.2226 H   0  0  0  0  0  0  0  0  0  0  0  0
    7.7515   -5.0749    2.8524 H   0  0  0  0  0  0  0  0  0  0  0  0
    6.2828   -4.8531    1.8879 H   0  0  0  0  0  0  0  0  0  0  0  0
    4.8986   -8.8117    6.7474 H   0  0  0  0  0  0  0  0  0  0  0  0
    3.7931  -10.6117    5.9460 H   0  0  0  0  0  0  0  0  0  0  0  0
    1.9418   -9.1429    6.9287 H   0  0  0  0  0  0  0  0  0  0  0  0
    1.2829  -10.1449    5.6414 H   0  0  0  0  0  0  0  0  0  0  0  0
    0.9294   -8.4984    5.5731 H   0  0  0  0  0  0  0  0  0  0  0  0
    3.1920   -7.2191    7.2169 H   0  0  0  0  0  0  0  0  0  0  0  0
    4.2698   -6.0978    6.5066 H   0  0  0  0  0  0  0  0  0  0  0  0
    3.6163   -4.2155    5.1363 H   0  0  0  0  0  0  0  0  0  0  0  0
    1.7849   -2.5988    4.6570 H   0  0  0  0  0  0  0  0  0  0  0  0
   -0.5853   -3.1661    5.2160 H   0  0  0  0  0  0  0  0  0  0  0  0
   -1.0979   -5.3611    6.3101 H   0  0  0  0  0  0  0  0  0  0  0  0
    0.7020   -6.8709    6.9527 H   0  0  0  0  0  0  0  0  0  0  0  0
    2.6258   -9.0093    4.0333 H   0  0  0  0  0  0  0  0  0  0  0  0
  1  2  1  0
  1 36  1  0
  1 37  1  0
  1 38  1  0
  2  3  1  0
  2 39  1  0
  2 40  1  0
  3  4  1  0
  3  5  1  0
  7  3  1  6
  4 41  1  0
  4 42  1  0
  4 43  1  0
  5  6  1  0
  5 44  1  0
  5 45  1  0
  6 46  1  0
  6 47  1  0
  6 48  1  0
  7 19  1  0
  7 25  1  0
  7  8  1  0
  8  9  1  0
  8 10  1  0
  8 49  1  6
  9 50  1  0
 10 11  1  0
 10 51  1  0
 10 52  1  0
 11 28  1  0
 11 12  1  0
 11 53  1  6
 12 22  1  0
 12 13  1  0
 12 54  1  6
 13 18  2  0
 13 14  1  0
 14 15  2  0
 14 55  1  0
 15 16  1  0
 15 56  1  0
 16 17  2  0
 16 57  1  0
 17 18  1  0
 17 58  1  0
 18 19  1  0
 19 20  1  1
 19 24  1  0
 20 21  1  0
 20 59  1  0
 20 60  1  0
 21 22  1  0
 21 61  1  0
 21 62  1  0
 22 23  1  0
 23 63  1  0
 23 64  1  0
 23 65  1  0
 24 28  1  0
 24 25  1  0
 24 66  1  1
 25 26  1  0
 25 67  1  1
 26 27  1  0
 26 28  1  0
 26 78  1  6
 27 68  1  0
 27 69  1  0
 27 70  1  0
 28 29  1  1
 29 30  1  0
 29 71  1  0
 29 72  1  0
 30 35  1  0
 30 31  2  0
 31 32  1  0
 31 73  1  0
 32 33  2  0
 32 74  1  0
 33 34  1  0
 33 75  1  0
 34 35  2  0
 34 76  1  0
 35 77  1  0
M  CHG  1  26   1
M  END
>  <i_m_ct_stereo_status>  (240) 
1

>  <s_m_source_file>  (240) 
/var/tmp/pbs.5076255.sched01/tmpinim70aj/80j3ziidn5.sdf

>  <i_m_source_file_index>  (240) 
21

>  <i_lp_mmshare_version>  (240) 
48012

>  <i_f3d_flags>  (240) 
0

>  <s_epik_input>  (240) 
W2NIXTFbY0hdW2NIXVtjSF1bY0hdYzFbQ0gyXVtDQF0oTjJbQ0gzXSkoW0NASF0zW0NAQEhdMltDQEBdNChDMzU2KUMoW0NIM10pKFtDSDJdW0NIM10pW0NIMl1bQ0gzXSlbQ0BIXShbQ0gyXVtDQEBIXTRbT0hdKVtDQEBIXShOKFtDSDNdKVtDSDJdW0NIMl02KWM3YzVbY0hdW2NIXVtjSF1bY0hdNw==

>  <s_epik_cmdline>  (240) 
J2VwaWtfcHl0aG9uJywgJy1waHQnLCAnMi4wJywgJy1waCcsICc3LjAnLCAnLXRuJywgJzgnLCAnLW1hJywgJzIwMCcsICctaW1hZScsICc8aW5maWxlLm1hZT4nLCAnLW9tYWUnLCAnPG91dGZpbGUubWFlPic=

>  <r_epik_Ionization_Penalty>  (240) 
1.03666

>  <r_epik_Ionization_Penalty_Charging>  (240) 
0.00048429

>  <r_epik_Ionization_Penalty_Neutral>  (240) 
1.03618

>  <r_epik_State_Penalty>  (240) 
1.08777

>  <r_epik_Charging_Adjusted_Penalty>  (240) 
1.08826

>  <i_epik_Tot_Q>  (240) 
1

>  <i_epik_Tot_abs_Q>  (240) 
1

>  <s_lp_Force_Field>  (240) 
OPLS3e

>  <r_lp_Energy>  (240) 
319.354

>  <b_lp_Chiralities_Consistent>  (240) 
1

>  <s_lp_Variant>  (240) 
77:0-2

>  <s_i_glide_gridfile>  (240) 
pfpi4k_grid

>  <i_i_glide_lignum>  (240) 
21

>  <i_i_glide_rotatable_bonds>  (240) 
6

>  <r_i_docking_score>  (240) 
-1.85863

>  <r_i_glide_ligand_efficiency>  (240) 
-0.0531036

>  <r_i_glide_ligand_efficiency_sa>  (240) 
-0.173705

>  <r_i_glide_ligand_efficiency_ln>  (240) 
-0.40801

>  <r_i_glide_gscore>  (240) 
-1.85863

>  <r_i_glide_lipo>  (240) 
-0.105377

>  <r_i_glide_hbond>  (240) 
-0.16

>  <r_i_glide_metal>  (240) 
-0

>  <r_i_glide_rewards>  (240) 
-0.192978

>  <r_i_glide_evdw>  (240) 
-16.8641

>  <r_i_glide_ecoul>  (240) 
-5.47861

>  <r_i_glide_erotb>  (240) 
0.272558

>  <r_i_glide_esite>  (240) 
-0.00783137

>  <r_i_glide_emodel>  (240) 
-20.9788

>  <r_i_glide_energy>  (240) 
-22.3427

>  <r_i_glide_einternal>  (240) 
3.37417

>  <r_i_glide_intrahb_reward>  (240) 
-0

>  <i_i_glide_confnum>  (240) 
4

>  <i_i_glide_posenum>  (240) 
2

>  <r_i_glide_eff_state_penalty>  (240) 
0

>  <ligand_id>  (240) 
77

>  <original_smiles>  (240) 
CCC(C)(CC)C12C(O)CC3C4c5ccccc5C1(CCN4C)C1C2N(C)C31Cc1ccccc1

>  <smiles>  (240) 
[H]OC1([H])C([H])([H])C2([H])C3([H])c4c([H])c([H])c([H])c([H])c4C4(C([H])([H])C([H])([H])N3C([H])([H])[H])C3([H])C([H])(C14C(C([H])([H])[H])(C([H])([H])C([H])([H])[H])C([H])([H])C([H])([H])[H])[N+]([H])(C([H])([H])[H])C23C([H])([H])c1c([H])c([H])c([H])c([H])c1[H]

$$$$
77:1:1
     RDKit          3D

 78 84  0  0  1  0  0  0  0  0999 V2000
    6.8336   -8.4267    1.6089 C   0  0  0  0  0  0  0  0  0  0  0  0
    6.0172   -7.9300    2.7988 C   0  0  0  0  0  0  0  0  0  0  0  0
    4.5520   -7.3766    2.5667 C   0  0  0  0  0  0  0  0  0  0  0  0
    4.6469   -6.3783    1.3657 C   0  0  0  0  0  0  0  0  0  0  0  0
    3.7542   -8.6217    2.0324 C   0  0  0  0  0  0  0  0  0  0  0  0
    2.2550   -8.5287    1.6832 C   0  0  0  0  0  0  0  0  0  0  0  0
    3.9032   -6.6953    3.9056 C   0  0  2  0  0  0  0  0  0  0  0  0
    4.9960   -5.7536    4.6486 C   0  0  1  0  0  0  0  0  0  0  0  0
    5.7132   -4.9047    3.7760 O   0  0  0  0  0  0  0  0  0  0  0  0
    4.5646   -4.7890    5.8366 C   0  0  0  0  0  0  0  0  0  0  0  0
    3.1947   -5.0932    6.5472 C   0  0  2  0  0  0  0  0  0  0  0  0
    3.2545   -6.4517    7.3350 C   0  0  2  0  0  0  0  0  0  0  0  0
    2.0668   -7.4147    7.2278 C   0  0  0  0  0  0  0  0  0  0  0  0
    1.2237   -7.6348    8.3179 C   0  0  0  0  0  0  0  0  0  0  0  0
    0.2680   -8.6438    8.0848 C   0  0  0  0  0  0  0  0  0  0  0  0
    0.1793   -9.3568    6.8672 C   0  0  0  0  0  0  0  0  0  0  0  0
    1.0202   -9.1274    5.7495 C   0  0  0  0  0  0  0  0  0  0  0  0
    1.9779   -8.1225    5.9577 C   0  0  0  0  0  0  0  0  0  0  0  0
    3.0390   -7.7934    4.8300 C   0  0  2  0  0  0  0  0  0  0  0  0
    4.2402   -8.5651    5.5914 C   0  0  0  0  0  0  0  0  0  0  0  0
    4.5866   -8.4573    7.1260 C   0  0  0  0  0  0  0  0  0  0  0  0
    4.4952   -7.1128    7.7377 N   0  0  0  0  0  0  0  0  0  0  0  0
    4.6673   -7.2202    9.1790 C   0  0  0  0  0  0  0  0  0  0  0  0
    2.0293   -6.5191    4.7339 C   0  0  2  0  0  0  0  0  0  0  0  0
    2.6613   -5.8832    3.5637 C   0  0  1  0  0  0  0  0  0  0  0  0
    2.4917   -4.5696    4.1970 N   0  0  1  0  0  0  0  0  0  0  0  0
    1.6386   -3.6313    3.4061 C   0  0  0  0  0  0  0  0  0  0  0  0
    2.0564   -5.1703    5.4883 C   0  0  2  0  0  0  0  0  0  0  0  0
    0.6753   -4.7227    6.0409 C   0  0  0  0  0  0  0  0  0  0  0  0
    0.5505   -3.3776    6.7550 C   0  0  0  0  0  0  0  0  0  0  0  0
    0.7277   -3.2964    8.1578 C   0  0  0  0  0  0  0  0  0  0  0  0
    0.6033   -2.0610    8.8243 C   0  0  0  0  0  0  0  0  0  0  0  0
    0.3378   -0.8849    8.0928 C   0  0  0  0  0  0  0  0  0  0  0  0
    0.1367   -0.9626    6.7004 C   0  0  0  0  0  0  0  0  0  0  0  0
    0.1763   -2.2087    6.0461 C   0  0  0  0  0  0  0  0  0  0  0  0
    7.8238   -8.6662    1.9873 H   0  0  0  0  0  0  0  0  0  0  0  0
    6.9713   -7.6650    0.8554 H   0  0  0  0  0  0  0  0  0  0  0  0
    6.4084   -9.3373    1.1902 H   0  0  0  0  0  0  0  0  0  0  0  0
    6.0079   -8.8158    3.4299 H   0  0  0  0  0  0  0  0  0  0  0  0
    6.6622   -7.1886    3.2680 H   0  0  0  0  0  0  0  0  0  0  0  0
    3.7572   -5.7735    1.1874 H   0  0  0  0  0  0  0  0  0  0  0  0
    4.8183   -6.9098    0.4237 H   0  0  0  0  0  0  0  0  0  0  0  0
    5.4937   -5.6946    1.4607 H   0  0  0  0  0  0  0  0  0  0  0  0
    4.2224   -8.9648    1.1088 H   0  0  0  0  0  0  0  0  0  0  0  0
    3.8782   -9.4543    2.7215 H   0  0  0  0  0  0  0  0  0  0  0  0
    1.9324   -9.4863    1.2681 H   0  0  0  0  0  0  0  0  0  0  0  0
    2.0389   -7.7747    0.9245 H   0  0  0  0  0  0  0  0  0  0  0  0
    1.6174   -8.3511    2.5467 H   0  0  0  0  0  0  0  0  0  0  0  0
    5.7693   -6.3663    5.1064 H   0  0  0  0  0  0  0  0  0  0  0  0
    5.1452   -4.2592    3.3821 H   0  0  0  0  0  0  0  0  0  0  0  0
    5.3491   -4.8217    6.5992 H   0  0  0  0  0  0  0  0  0  0  0  0
    4.5549   -3.7414    5.5228 H   0  0  0  0  0  0  0  0  0  0  0  0
    3.0116   -4.3002    7.2708 H   0  0  0  0  0  0  0  0  0  0  0  0
    3.7572   -6.6066    6.4699 H   0  0  0  0  0  0  0  0  0  0  0  0
    1.3233   -7.1300    9.2735 H   0  0  0  0  0  0  0  0  0  0  0  0
   -0.4231   -8.8944    8.8733 H   0  0  0  0  0  0  0  0  0  0  0  0
   -0.5512  -10.1441    6.7963 H   0  0  0  0  0  0  0  0  0  0  0  0
    0.9575   -9.7298    4.8468 H   0  0  0  0  0  0  0  0  0  0  0  0
    4.1121   -9.6299    5.3809 H   0  0  0  0  0  0  0  0  0  0  0  0
    5.1940   -8.3325    5.1478 H   0  0  0  0  0  0  0  0  0  0  0  0
    4.0291   -9.1778    7.7084 H   0  0  0  0  0  0  0  0  0  0  0  0
    5.6320   -8.7286    7.1977 H   0  0  0  0  0  0  0  0  0  0  0  0
    5.6479   -7.6426    9.4020 H   0  0  0  0  0  0  0  0  0  0  0  0
    3.9165   -7.8782    9.6178 H   0  0  0  0  0  0  0  0  0  0  0  0
    4.6161   -6.2435    9.6694 H   0  0  0  0  0  0  0  0  0  0  0  0
    1.0173   -6.7576    4.3853 H   0  0  0  0  0  0  0  0  0  0  0  0
    2.1230   -6.0568    2.6465 H   0  0  0  0  0  0  0  0  0  0  0  0
    0.6087   -3.9884    3.2572 H   0  0  0  0  0  0  0  0  0  0  0  0
    2.0828   -3.4853    2.4054 H   0  0  0  0  0  0  0  0  0  0  0  0
    1.6506   -2.6402    3.8828 H   0  0  0  0  0  0  0  0  0  0  0  0
   -0.0813   -4.7859    5.2605 H   0  0  0  0  0  0  0  0  0  0  0  0
    0.3493   -5.4555    6.7735 H   0  0  0  0  0  0  0  0  0  0  0  0
    0.9218   -4.1943    8.7248 H   0  0  0  0  0  0  0  0  0  0  0  0
    0.6954   -2.0194    9.9031 H   0  0  0  0  0  0  0  0  0  0  0  0
    0.2551    0.0609    8.5900 H   0  0  0  0  0  0  0  0  0  0  0  0
   -0.0757   -0.0792    6.1221 H   0  0  0  0  0  0  0  0  0  0  0  0
   -0.1026   -2.2576    4.9942 H   0  0  0  0  0  0  0  0  0  0  0  0
    3.3778   -4.1358    4.3351 H   0  0  0  0  0  0  0  0  0  0  0  0
  1  2  1  0
  1 36  1  0
  1 37  1  0
  1 38  1  0
  2  3  1  0
  2 39  1  0
  2 40  1  0
  3  4  1  0
  3  5  1  0
  7  3  1  6
  4 41  1  0
  4 42  1  0
  4 43  1  0
  5  6  1  0
  5 44  1  0
  5 45  1  0
  6 46  1  0
  6 47  1  0
  6 48  1  0
  7 19  1  0
  7 25  1  0
  7  8  1  0
  8  9  1  0
  8 10  1  0
  8 49  1  1
  9 50  1  0
 10 11  1  0
 10 51  1  0
 10 52  1  0
 11 28  1  0
 11 12  1  0
 11 53  1  1
 12 22  1  0
 12 13  1  0
 12 54  1  1
 13 18  2  0
 13 14  1  0
 14 15  2  0
 14 55  1  0
 15 16  1  0
 15 56  1  0
 16 17  2  0
 16 57  1  0
 17 18  1  0
 17 58  1  0
 18 19  1  0
 19 20  1  6
 19 24  1  0
 20 21  1  0
 20 59  1  0
 20 60  1  0
 21 22  1  0
 21 61  1  0
 21 62  1  0
 22 23  1  0
 23 63  1  0
 23 64  1  0
 23 65  1  0
 24 28  1  0
 24 25  1  0
 24 66  1  6
 25 26  1  0
 25 67  1  6
 26 27  1  0
 26 28  1  0
 26 78  1  1
 27 68  1  0
 27 69  1  0
 27 70  1  0
 28 29  1  1
 29 30  1  0
 29 71  1  0
 29 72  1  0
 30 35  1  0
 30 31  2  0
 31 32  1  0
 31 73  1  0
 32 33  2  0
 32 74  1  0
 33 34  1  0
 33 75  1  0
 34 35  2  0
 34 76  1  0
 35 77  1  0
M  CHG  1  26   1
M  END
>  <i_m_ct_stereo_status>  (241) 
1

>  <s_m_source_file>  (241) 
/var/tmp/pbs.5076255.sched01/tmpinim70aj/80j3ziidn5.sdf

>  <i_m_source_file_index>  (241) 
21

>  <i_lp_mmshare_version>  (241) 
48012

>  <i_f3d_flags>  (241) 
0

>  <s_epik_input>  (241) 
W2NIXTFbY0hdW2NIXVtjSF1bY0hdYzFbQ0gyXVtDQF0oTjJbQ0gzXSkoW0NASF0zW0NAQEhdMltDQEBdNChDMzU2KUMoW0NIM10pKFtDSDJdW0NIM10pW0NIMl1bQ0gzXSlbQ0BIXShbQ0gyXVtDQEBIXTRbT0hdKVtDQEBIXShOKFtDSDNdKVtDSDJdW0NIMl02KWM3YzVbY0hdW2NIXVtjSF1bY0hdNw==

>  <s_epik_cmdline>  (241) 
J2VwaWtfcHl0aG9uJywgJy1waHQnLCAnMi4wJywgJy1waCcsICc3LjAnLCAnLXRuJywgJzgnLCAnLW1hJywgJzIwMCcsICctaW1hZScsICc8aW5maWxlLm1hZT4nLCAnLW9tYWUnLCAnPG91dGZpbGUubWFlPic=

>  <r_epik_Ionization_Penalty>  (241) 
1.03666

>  <r_epik_Ionization_Penalty_Charging>  (241) 
0.00048429

>  <r_epik_Ionization_Penalty_Neutral>  (241) 
1.03618

>  <r_epik_State_Penalty>  (241) 
1.08777

>  <r_epik_Charging_Adjusted_Penalty>  (241) 
1.08826

>  <i_epik_Tot_Q>  (241) 
1

>  <i_epik_Tot_abs_Q>  (241) 
1

>  <s_lp_Force_Field>  (241) 
OPLS3e

>  <r_lp_Energy>  (241) 
319.354

>  <b_lp_Chiralities_Consistent>  (241) 
1

>  <s_lp_Variant>  (241) 
77:0-2

>  <s_i_glide_gridfile>  (241) 
pfpi4k_grid

>  <i_i_glide_lignum>  (241) 
21

>  <i_i_glide_rotatable_bonds>  (241) 
6

>  <r_i_docking_score>  (241) 
-1.59132

>  <r_i_glide_ligand_efficiency>  (241) 
-0.0454664

>  <r_i_glide_ligand_efficiency_sa>  (241) 
-0.148724

>  <r_i_glide_ligand_efficiency_ln>  (241) 
-0.349331

>  <r_i_glide_gscore>  (241) 
-1.59132

>  <r_i_glide_lipo>  (241) 
-0.24907

>  <r_i_glide_hbond>  (241) 
0

>  <r_i_glide_metal>  (241) 
-0

>  <r_i_glide_rewards>  (241) 
-0.192978

>  <r_i_glide_evdw>  (241) 
-18.1045

>  <r_i_glide_ecoul>  (241) 
-3.44407

>  <r_i_glide_erotb>  (241) 
0.272558

>  <r_i_glide_esite>  (241) 
0

>  <r_i_glide_emodel>  (241) 
-22.9271

>  <r_i_glide_energy>  (241) 
-21.5485

>  <r_i_glide_einternal>  (241) 
1.17234

>  <r_i_glide_intrahb_reward>  (241) 
-0

>  <i_i_glide_confnum>  (241) 
4

>  <i_i_glide_posenum>  (241) 
7

>  <r_i_glide_eff_state_penalty>  (241) 
0

>  <ligand_id>  (241) 
77

>  <original_smiles>  (241) 
CCC(C)(CC)C12C(O)CC3C4c5ccccc5C1(CCN4C)C1C2N(C)C31Cc1ccccc1

>  <smiles>  (241) 
[H]OC1([H])C([H])([H])C2([H])C3([H])c4c([H])c([H])c([H])c([H])c4C4(C([H])([H])C([H])([H])N3C([H])([H])[H])C3([H])C([H])(C14C(C([H])([H])[H])(C([H])([H])C([H])([H])[H])C([H])([H])C([H])([H])[H])[N+]([H])(C([H])([H])[H])C23C([H])([H])c1c([H])c([H])c([H])c([H])c1[H]

$$$$
77:1:2
     RDKit          3D

 78 84  0  0  1  0  0  0  0  0999 V2000
    3.5298    1.2921    7.6587 C   0  0  0  0  0  0  0  0  0  0  0  0
    2.7874   -0.0256    7.3575 C   0  0  0  0  0  0  0  0  0  0  0  0
    3.5388   -1.1709    6.5735 C   0  0  0  0  0  0  0  0  0  0  0  0
    4.1050   -0.5116    5.2680 C   0  0  0  0  0  0  0  0  0  0  0  0
    4.7981   -1.4955    7.4614 C   0  0  0  0  0  0  0  0  0  0  0  0
    5.8668   -2.5065    7.0149 C   0  0  0  0  0  0  0  0  0  0  0  0
    2.6003   -2.4733    6.2684 C   0  0  2  0  0  0  0  0  0  0  0  0
    1.1243   -2.0013    5.7641 C   0  0  1  0  0  0  0  0  0  0  0  0
    1.1593   -1.0590    4.7244 O   0  0  0  0  0  0  0  0  0  0  0  0
    0.0874   -3.0442    5.1803 C   0  0  0  0  0  0  0  0  0  0  0  0
    0.3320   -4.5575    5.5162 C   0  0  2  0  0  0  0  0  0  0  0  0
    0.1324   -4.8345    7.0512 C   0  0  2  0  0  0  0  0  0  0  0  0
    1.1603   -5.7164    7.7736 C   0  0  0  0  0  0  0  0  0  0  0  0
    0.8055   -6.9948    8.2212 C   0  0  0  0  0  0  0  0  0  0  0  0
    1.8186   -7.6283    8.9792 C   0  0  0  0  0  0  0  0  0  0  0  0
    3.0599   -7.0219    9.2442 C   0  0  0  0  0  0  0  0  0  0  0  0
    3.4301   -5.7287    8.7762 C   0  0  0  0  0  0  0  0  0  0  0  0
    2.4282   -5.0904    8.0311 C   0  0  0  0  0  0  0  0  0  0  0  0
    2.6847   -3.6107    7.4960 C   0  0  2  0  0  0  0  0  0  0  0  0
    1.7196   -2.9152    8.5882 C   0  0  0  0  0  0  0  0  0  0  0  0
    0.3078   -3.4486    9.0358 C   0  0  0  0  0  0  0  0  0  0  0  0
   -0.5991   -3.9335    7.9579 N   0  0  0  0  0  0  0  0  0  0  0  0
   -1.7851   -4.5610    8.5259 C   0  0  0  0  0  0  0  0  0  0  0  0
    2.8497   -4.4934    6.1284 C   0  0  2  0  0  0  0  0  0  0  0  0
    3.2225   -3.3915    5.2405 C   0  0  1  0  0  0  0  0  0  0  0  0
    2.3876   -3.9607    4.1654 N   0  0  1  0  0  0  0  0  0  0  0  0
    3.1485   -4.3564    2.9353 C   0  0  0  0  0  0  0  0  0  0  0  0
    1.7786   -4.9511    5.1043 C   0  0  2  0  0  0  0  0  0  0  0  0
    1.9030   -6.4441    4.6855 C   0  0  0  0  0  0  0  0  0  0  0  0
    0.7952   -7.0532    3.8330 C   0  0  0  0  0  0  0  0  0  0  0  0
   -0.2078   -7.8340    4.4608 C   0  0  0  0  0  0  0  0  0  0  0  0
   -1.2374   -8.4353    3.6874 C   0  0  0  0  0  0  0  0  0  0  0  0
   -1.2522   -8.2369    2.2883 C   0  0  0  0  0  0  0  0  0  0  0  0
   -0.2585   -7.4586    1.6747 C   0  0  0  0  0  0  0  0  0  0  0  0
    0.7769   -6.8841    2.4295 C   0  0  0  0  0  0  0  0  0  0  0  0
    2.8250    1.9706    8.1257 H   0  0  0  0  0  0  0  0  0  0  0  0
    3.9544    1.8057    6.7875 H   0  0  0  0  0  0  0  0  0  0  0  0
    4.3131    1.1300    8.3912 H   0  0  0  0  0  0  0  0  0  0  0  0
    2.5035   -0.3558    8.3289 H   0  0  0  0  0  0  0  0  0  0  0  0
    1.8951    0.2890    6.8140 H   0  0  0  0  0  0  0  0  0  0  0  0
    4.4955   -1.2112    4.5217 H   0  0  0  0  0  0  0  0  0  0  0  0
    4.9400    0.1621    5.4873 H   0  0  0  0  0  0  0  0  0  0  0  0
    3.3600    0.1112    4.7596 H   0  0  0  0  0  0  0  0  0  0  0  0
    5.3767   -0.5841    7.5962 H   0  0  0  0  0  0  0  0  0  0  0  0
    4.4696   -1.7661    8.4617 H   0  0  0  0  0  0  0  0  0  0  0  0
    6.6843   -2.5102    7.7416 H   0  0  0  0  0  0  0  0  0  0  0  0
    6.3243   -2.2422    6.0595 H   0  0  0  0  0  0  0  0  0  0  0  0
    5.5047   -3.5344    6.9608 H   0  0  0  0  0  0  0  0  0  0  0  0
    0.5832   -1.5064    6.5654 H   0  0  0  0  0  0  0  0  0  0  0  0
    0.2895   -0.7050    4.6182 H   0  0  0  0  0  0  0  0  0  0  0  0
   -0.9147   -2.7753    5.5448 H   0  0  0  0  0  0  0  0  0  0  0  0
   -0.0059   -2.9648    4.0913 H   0  0  0  0  0  0  0  0  0  0  0  0
   -0.4160   -5.1376    4.9822 H   0  0  0  0  0  0  0  0  0  0  0  0
    0.6278   -3.9474    6.9859 H   0  0  0  0  0  0  0  0  0  0  0  0
   -0.1632   -7.4591    8.0572 H   0  0  0  0  0  0  0  0  0  0  0  0
    1.6403   -8.6137    9.3600 H   0  0  0  0  0  0  0  0  0  0  0  0
    3.7591   -7.5634    9.8572 H   0  0  0  0  0  0  0  0  0  0  0  0
    4.3763   -5.2671    9.0433 H   0  0  0  0  0  0  0  0  0  0  0  0
    2.3018   -2.8684    9.5128 H   0  0  0  0  0  0  0  0  0  0  0  0
    1.5147   -1.9265    8.3558 H   0  0  0  0  0  0  0  0  0  0  0  0
    0.3562   -4.2065    9.8188 H   0  0  0  0  0  0  0  0  0  0  0  0
   -0.1996   -2.6054    9.4539 H   0  0  0  0  0  0  0  0  0  0  0  0
   -2.3374   -3.8517    9.1392 H   0  0  0  0  0  0  0  0  0  0  0  0
   -1.4896   -5.3807    9.1788 H   0  0  0  0  0  0  0  0  0  0  0  0
   -2.4764   -4.9335    7.7611 H   0  0  0  0  0  0  0  0  0  0  0  0
    3.7172   -5.1671    6.1110 H   0  0  0  0  0  0  0  0  0  0  0  0
    4.2919   -3.3492    5.0342 H   0  0  0  0  0  0  0  0  0  0  0  0
    3.9651   -5.0577    3.1533 H   0  0  0  0  0  0  0  0  0  0  0  0
    3.6130   -3.4536    2.5275 H   0  0  0  0  0  0  0  0  0  0  0  0
    2.4758   -4.7436    2.1777 H   0  0  0  0  0  0  0  0  0  0  0  0
    2.8686   -6.6561    4.2285 H   0  0  0  0  0  0  0  0  0  0  0  0
    1.9418   -7.0451    5.5928 H   0  0  0  0  0  0  0  0  0  0  0  0
   -0.1848   -8.0338    5.5262 H   0  0  0  0  0  0  0  0  0  0  0  0
   -1.9762   -9.0707    4.1600 H   0  0  0  0  0  0  0  0  0  0  0  0
   -2.0157   -8.7267    1.7000 H   0  0  0  0  0  0  0  0  0  0  0  0
   -0.2506   -7.3542    0.6091 H   0  0  0  0  0  0  0  0  0  0  0  0
    1.5778   -6.3924    1.9165 H   0  0  0  0  0  0  0  0  0  0  0  0
    1.6953   -3.2539    3.9257 H   0  0  0  0  0  0  0  0  0  0  0  0
  1  2  1  0
  1 36  1  0
  1 37  1  0
  1 38  1  0
  2  3  1  0
  2 39  1  0
  2 40  1  0
  3  4  1  0
  3  5  1  0
  7  3  1  1
  4 41  1  0
  4 42  1  0
  4 43  1  0
  5  6  1  0
  5 44  1  0
  5 45  1  0
  6 46  1  0
  6 47  1  0
  6 48  1  0
  7 19  1  0
  7 25  1  0
  7  8  1  0
  8  9  1  0
  8 10  1  0
  8 49  1  1
  9 50  1  0
 10 11  1  0
 10 51  1  0
 10 52  1  0
 11 28  1  0
 11 12  1  0
 11 53  1  6
 12 22  1  0
 12 13  1  0
 12 54  1  6
 13 18  2  0
 13 14  1  0
 14 15  2  0
 14 55  1  0
 15 16  1  0
 15 56  1  0
 16 17  2  0
 16 57  1  0
 17 18  1  0
 17 58  1  0
 18 19  1  0
 19 20  1  1
 19 24  1  0
 20 21  1  0
 20 59  1  0
 20 60  1  0
 21 22  1  0
 21 61  1  0
 21 62  1  0
 22 23  1  0
 23 63  1  0
 23 64  1  0
 23 65  1  0
 24 28  1  0
 24 25  1  0
 24 66  1  1
 25 26  1  0
 25 67  1  6
 26 27  1  0
 26 28  1  0
 26 78  1  6
 27 68  1  0
 27 69  1  0
 27 70  1  0
 28 29  1  6
 29 30  1  0
 29 71  1  0
 29 72  1  0
 30 35  1  0
 30 31  2  0
 31 32  1  0
 31 73  1  0
 32 33  2  0
 32 74  1  0
 33 34  1  0
 33 75  1  0
 34 35  2  0
 34 76  1  0
 35 77  1  0
M  CHG  1  26   1
M  END
>  <i_m_ct_stereo_status>  (242) 
1

>  <s_m_source_file>  (242) 
/var/tmp/pbs.5076255.sched01/tmpinim70aj/80j3ziidn5.sdf

>  <i_m_source_file_index>  (242) 
21

>  <i_lp_mmshare_version>  (242) 
48012

>  <i_f3d_flags>  (242) 
0

>  <s_epik_input>  (242) 
W2NIXTFbY0hdW2NIXVtjSF1bY0hdYzFbQ0gyXVtDQF0oTjJbQ0gzXSkoW0NASF0zW0NAQEhdMltDQEBdNChDMzU2KUMoW0NIM10pKFtDSDJdW0NIM10pW0NIMl1bQ0gzXSlbQ0BIXShbQ0gyXVtDQEBIXTRbT0hdKVtDQEBIXShOKFtDSDNdKVtDSDJdW0NIMl02KWM3YzVbY0hdW2NIXVtjSF1bY0hdNw==

>  <s_epik_cmdline>  (242) 
J2VwaWtfcHl0aG9uJywgJy1waHQnLCAnMi4wJywgJy1waCcsICc3LjAnLCAnLXRuJywgJzgnLCAnLW1hJywgJzIwMCcsICctaW1hZScsICc8aW5maWxlLm1hZT4nLCAnLW9tYWUnLCAnPG91dGZpbGUubWFlPic=

>  <r_epik_Ionization_Penalty>  (242) 
1.03666

>  <r_epik_Ionization_Penalty_Charging>  (242) 
0.00048429

>  <r_epik_Ionization_Penalty_Neutral>  (242) 
1.03618

>  <r_epik_State_Penalty>  (242) 
1.08777

>  <r_epik_Charging_Adjusted_Penalty>  (242) 
1.08826

>  <i_epik_Tot_Q>  (242) 
1

>  <i_epik_Tot_abs_Q>  (242) 
1

>  <s_lp_Force_Field>  (242) 
OPLS3e

>  <r_lp_Energy>  (242) 
319.354

>  <b_lp_Chiralities_Consistent>  (242) 
1

>  <s_lp_Variant>  (242) 
77:0-2

>  <s_i_glide_gridfile>  (242) 
pfpi4k_grid

>  <i_i_glide_lignum>  (242) 
21

>  <i_i_glide_rotatable_bonds>  (242) 
6

>  <r_i_docking_score>  (242) 
-1.37204

>  <r_i_glide_ligand_efficiency>  (242) 
-0.0392011

>  <r_i_glide_ligand_efficiency_sa>  (242) 
-0.128229

>  <r_i_glide_ligand_efficiency_ln>  (242) 
-0.301193

>  <r_i_glide_gscore>  (242) 
-1.37204

>  <r_i_glide_lipo>  (242) 
-0.0110696

>  <r_i_glide_hbond>  (242) 
0

>  <r_i_glide_metal>  (242) 
-0

>  <r_i_glide_rewards>  (242) 
-0.192978

>  <r_i_glide_evdw>  (242) 
-20.8214

>  <r_i_glide_ecoul>  (242) 
-2.66319

>  <r_i_glide_erotb>  (242) 
0.272558

>  <r_i_glide_esite>  (242) 
0

>  <r_i_glide_emodel>  (242) 
-23.9562

>  <r_i_glide_energy>  (242) 
-23.4846

>  <r_i_glide_einternal>  (242) 
1.57739

>  <r_i_glide_intrahb_reward>  (242) 
-0

>  <i_i_glide_confnum>  (242) 
4

>  <i_i_glide_posenum>  (242) 
5

>  <r_i_glide_eff_state_penalty>  (242) 
0

>  <ligand_id>  (242) 
77

>  <original_smiles>  (242) 
CCC(C)(CC)C12C(O)CC3C4c5ccccc5C1(CCN4C)C1C2N(C)C31Cc1ccccc1

>  <smiles>  (242) 
[H]OC1([H])C([H])([H])C2([H])C3([H])c4c([H])c([H])c([H])c([H])c4C4(C([H])([H])C([H])([H])N3C([H])([H])[H])C3([H])C([H])(C14C(C([H])([H])[H])(C([H])([H])C([H])([H])[H])C([H])([H])C([H])([H])[H])[N+]([H])(C([H])([H])[H])C23C([H])([H])c1c([H])c([H])c([H])c([H])c1[H]

$$$$
78:0:0
     RDKit          3D

 36 38  0  0  1  0  0  0  0  0999 V2000
    5.5626   -1.2340    2.3349 C   0  0  0  0  0  0  0  0  0  0  0  0
    4.8922   -1.6392    1.0121 C   0  0  0  0  0  0  0  0  0  0  0  0
    3.5616   -0.8343    1.0174 C   0  0  0  0  0  0  0  0  0  0  0  0
    5.8017   -1.2426   -0.1707 C   0  0  2  0  0  0  0  0  0  0  0  0
    5.0748   -1.2777   -1.5458 C   0  0  0  0  0  0  0  0  0  0  0  0
    4.4959   -2.6675   -1.9550 C   0  0  2  0  0  0  0  0  0  0  0  0
    3.1703   -3.0275   -1.2489 C   0  0  0  0  0  0  0  0  0  0  0  0
    3.3969   -3.6108    0.1747 C   0  0  1  0  0  0  0  0  0  0  0  0
    3.2620   -5.0154    0.0666 O   0  0  0  0  0  0  0  0  0  0  0  0
    4.7679   -3.2120    0.8115 C   0  0  2  0  0  0  0  0  0  0  0  0
    4.9497   -3.9756    2.1576 C   0  0  0  0  0  0  0  0  0  0  0  0
    5.9658   -3.5868   -0.1582 C   0  0  1  0  0  0  0  0  0  0  0  0
    5.5108   -3.7648   -1.6340 C   0  0  0  0  0  0  0  0  0  0  0  0
    6.8716   -2.3504   -0.1465 C   0  0  0  0  0  0  0  0  0  0  0  0
    5.7681   -0.1559    2.3902 H   0  0  0  0  0  0  0  0  0  0  0  0
    6.5136   -1.7229    2.5292 H   0  0  0  0  0  0  0  0  0  0  0  0
    4.9283   -1.4377    3.1944 H   0  0  0  0  0  0  0  0  0  0  0  0
    3.0185   -0.7809    0.1420 H   0  0  0  0  0  0  0  0  0  0  0  0
    3.7377    0.2001    1.3080 H   0  0  0  0  0  0  0  0  0  0  0  0
    2.8942   -1.1957    1.7881 H   0  0  0  0  0  0  0  0  0  0  0  0
    6.2572   -0.2666   -0.0026 H   0  0  0  0  0  0  0  0  0  0  0  0
    4.3313   -0.4892   -1.6174 H   0  0  0  0  0  0  0  0  0  0  0  0
    5.8131   -0.9935   -2.2999 H   0  0  0  0  0  0  0  0  0  0  0  0
    4.3001   -2.6473   -3.0269 H   0  0  0  0  0  0  0  0  0  0  0  0
    2.5485   -2.1793   -1.2584 H   0  0  0  0  0  0  0  0  0  0  0  0
    2.6202   -3.7591   -1.8533 H   0  0  0  0  0  0  0  0  0  0  0  0
    2.5862   -3.3174    0.8429 H   0  0  0  0  0  0  0  0  0  0  0  0
    3.4448   -5.2865   -0.8161 H   0  0  0  0  0  0  0  0  0  0  0  0
    4.8474   -5.0595    2.0558 H   0  0  0  0  0  0  0  0  0  0  0  0
    4.2024   -3.6790    2.8813 H   0  0  0  0  0  0  0  0  0  0  0  0
    5.9268   -3.8232    2.6216 H   0  0  0  0  0  0  0  0  0  0  0  0
    6.5214   -4.4754    0.1588 H   0  0  0  0  0  0  0  0  0  0  0  0
    5.0684   -4.7491   -1.7914 H   0  0  0  0  0  0  0  0  0  0  0  0
    6.3619   -3.7210   -2.3182 H   0  0  0  0  0  0  0  0  0  0  0  0
    7.5627   -2.3114   -0.9942 H   0  0  0  0  0  0  0  0  0  0  0  0
    7.4954   -2.3289    0.7473 H   0  0  0  0  0  0  0  0  0  0  0  0
  1  2  1  0
  1 15  1  0
  1 16  1  0
  1 17  1  0
  2 10  1  0
  2  3  1  0
  2  4  1  0
  3 18  1  0
  3 19  1  0
  3 20  1  0
  4 14  1  0
  4  5  1  0
  4 21  1  1
  5  6  1  0
  5 22  1  0
  5 23  1  0
  6 13  1  0
  6  7  1  0
  6 24  1  6
  7  8  1  0
  7 25  1  0
  7 26  1  0
  8  9  1  0
  8 10  1  0
  8 27  1  1
  9 28  1  0
 10 11  1  1
 10 12  1  0
 11 29  1  0
 11 30  1  0
 11 31  1  0
 12 13  1  0
 12 14  1  0
 12 32  1  1
 13 33  1  0
 13 34  1  0
 14 35  1  0
 14 36  1  0
M  END
>  <i_m_ct_stereo_status>  (243) 
1

>  <s_m_source_file>  (243) 
/var/tmp/pbs.5076255.sched01/tmpinim70aj/80j3ziidn5.sdf

>  <i_m_source_file_index>  (243) 
22

>  <i_lp_mmshare_version>  (243) 
48012

>  <i_f3d_flags>  (243) 
0

>  <s_epik_input>  (243) 
W0NIM11DMShbQ0gzXSlbQ0BASF0oW0NIMl0yKVtDSDJdW0NASF0oW0NIMl1bQ0BIXTNbT0hdKVtDSDJdW0NAQEhdMltDQEBdMTNbQ0gzXQ==

>  <s_epik_cmdline>  (243) 
J2VwaWtfcHl0aG9uJywgJy1waHQnLCAnMi4wJywgJy1waCcsICc3LjAnLCAnLXRuJywgJzgnLCAnLW1hJywgJzIwMCcsICctaW1hZScsICc8aW5maWxlLm1hZT4nLCAnLW9tYWUnLCAnPG91dGZpbGUubWFlPic=

>  <r_lp_tautomer_probability>  (243) 
1

>  <r_epik_Ionization_Penalty>  (243) 
2.80765e-06

>  <r_epik_Ionization_Penalty_Charging>  (243) 
0

>  <r_epik_Ionization_Penalty_Neutral>  (243) 
2.80765e-06

>  <r_epik_State_Penalty>  (243) 
-0

>  <r_epik_Charging_Adjusted_Penalty>  (243) 
0

>  <i_epik_Tot_Q>  (243) 
0

>  <i_epik_Tot_abs_Q>  (243) 
0

>  <s_lp_Force_Field>  (243) 
OPLS3e

>  <r_lp_Energy>  (243) 
50.0732

>  <b_lp_Chiralities_Consistent>  (243) 
1

>  <s_lp_Variant>  (243) 
78:0-1

>  <s_i_glide_gridfile>  (243) 
pfpi4k_grid

>  <i_i_glide_lignum>  (243) 
22

>  <i_i_glide_rotatable_bonds>  (243) 
1

>  <r_i_docking_score>  (243) 
-4.13411

>  <r_i_glide_ligand_efficiency>  (243) 
-0.295294

>  <r_i_glide_ligand_efficiency_sa>  (243) 
-0.7117

>  <r_i_glide_ligand_efficiency_ln>  (243) 
-1.13604

>  <r_i_glide_gscore>  (243) 
-4.13411

>  <r_i_glide_lipo>  (243) 
-0.331587

>  <r_i_glide_hbond>  (243) 
-0.32

>  <r_i_glide_metal>  (243) 
-0

>  <r_i_glide_rewards>  (243) 
-2.08423

>  <r_i_glide_evdw>  (243) 
-18.5043

>  <r_i_glide_ecoul>  (243) 
-3.15389

>  <r_i_glide_erotb>  (243) 
0

>  <r_i_glide_esite>  (243) 
0

>  <r_i_glide_emodel>  (243) 
-26.1097

>  <r_i_glide_energy>  (243) 
-21.6582

>  <r_i_glide_einternal>  (243) 
1.17013

>  <r_i_glide_intrahb_reward>  (243) 
-0

>  <i_i_glide_confnum>  (243) 
2

>  <i_i_glide_posenum>  (243) 
33

>  <r_i_glide_eff_state_penalty>  (243) 
0

>  <ligand_id>  (243) 
78

>  <original_smiles>  (243) 
CC1(C)C2CC3CC(O)C1(C)C(C3)C2

>  <smiles>  (243) 
[H]OC1([H])C([H])([H])C2([H])C([H])([H])C3([H])C([H])([H])C([H])(C2([H])[H])C1(C([H])([H])[H])C3(C([H])([H])[H])C([H])([H])[H]

$$$$
78:0:1
     RDKit          3D

 36 38  0  0  1  0  0  0  0  0999 V2000
    4.1928   -3.4543   -2.5749 C   0  0  0  0  0  0  0  0  0  0  0  0
    4.3559   -2.9020   -1.1456 C   0  0  0  0  0  0  0  0  0  0  0  0
    3.5691   -1.5622   -1.2131 C   0  0  0  0  0  0  0  0  0  0  0  0
    3.7595   -3.8966   -0.1206 C   0  0  2  0  0  0  0  0  0  0  0  0
    3.5459   -3.2860    1.2963 C   0  0  0  0  0  0  0  0  0  0  0  0
    4.8428   -2.7218    1.9598 C   0  0  2  0  0  0  0  0  0  0  0  0
    5.3091   -1.3500    1.4124 C   0  0  0  0  0  0  0  0  0  0  0  0
    6.1439   -1.4951    0.1126 C   0  0  1  0  0  0  0  0  0  0  0  0
    7.5089   -1.4256    0.4487 O   0  0  0  0  0  0  0  0  0  0  0  0
    5.8668   -2.8175   -0.6726 C   0  0  2  0  0  0  0  0  0  0  0  0
    6.8297   -2.9215   -1.8850 C   0  0  0  0  0  0  0  0  0  0  0  0
    6.0675   -4.0822    0.2529 C   0  0  1  0  0  0  0  0  0  0  0  0
    5.9854   -3.7263    1.7507 C   0  0  0  0  0  0  0  0  0  0  0  0
    4.8577   -4.9705   -0.0391 C   0  0  0  0  0  0  0  0  0  0  0  0
    3.1398   -3.6565   -2.8129 H   0  0  0  0  0  0  0  0  0  0  0  0
    4.7248   -4.3982   -2.7689 H   0  0  0  0  0  0  0  0  0  0  0  0
    4.5251   -2.7566   -3.3294 H   0  0  0  0  0  0  0  0  0  0  0  0
    3.3736   -1.0913   -0.2696 H   0  0  0  0  0  0  0  0  0  0  0  0
    2.6086   -1.7297   -1.6806 H   0  0  0  0  0  0  0  0  0  0  0  0
    4.0938   -0.8395   -1.8308 H   0  0  0  0  0  0  0  0  0  0  0  0
    2.8255   -4.3379   -0.4843 H   0  0  0  0  0  0  0  0  0  0  0  0
    2.7557   -2.5382    1.2822 H   0  0  0  0  0  0  0  0  0  0  0  0
    3.1536   -4.0740    1.9411 H   0  0  0  0  0  0  0  0  0  0  0  0
    4.6529   -2.6010    3.0255 H   0  0  0  0  0  0  0  0  0  0  0  0
    4.4623   -0.6885    1.2959 H   0  0  0  0  0  0  0  0  0  0  0  0
    5.9207   -0.8481    2.1680 H   0  0  0  0  0  0  0  0  0  0  0  0
    5.9682   -0.6341   -0.5316 H   0  0  0  0  0  0  0  0  0  0  0  0
    7.6484   -0.6780    1.0429 H   0  0  0  0  0  0  0  0  0  0  0  0
    7.8841   -2.8207   -1.6165 H   0  0  0  0  0  0  0  0  0  0  0  0
    6.6063   -2.1315   -2.5830 H   0  0  0  0  0  0  0  0  0  0  0  0
    6.7397   -3.8575   -2.4403 H   0  0  0  0  0  0  0  0  0  0  0  0
    7.0035   -4.6105    0.0463 H   0  0  0  0  0  0  0  0  0  0  0  0
    6.9376   -3.2970    2.0613 H   0  0  0  0  0  0  0  0  0  0  0  0
    5.8504   -4.6219    2.3621 H   0  0  0  0  0  0  0  0  0  0  0  0
    4.6766   -5.7220    0.7361 H   0  0  0  0  0  0  0  0  0  0  0  0
    4.9860   -5.5159   -0.9729 H   0  0  0  0  0  0  0  0  0  0  0  0
  1  2  1  0
  1 15  1  0
  1 16  1  0
  1 17  1  0
  2 10  1  0
  2  3  1  0
  2  4  1  0
  3 18  1  0
  3 19  1  0
  3 20  1  0
  4 14  1  0
  4  5  1  0
  4 21  1  6
  5  6  1  0
  5 22  1  0
  5 23  1  0
  6 13  1  0
  6  7  1  0
  6 24  1  1
  7  8  1  0
  7 25  1  0
  7 26  1  0
  8  9  1  0
  8 10  1  0
  8 27  1  6
  9 28  1  0
 10 11  1  6
 10 12  1  0
 11 29  1  0
 11 30  1  0
 11 31  1  0
 12 13  1  0
 12 14  1  0
 12 32  1  1
 13 33  1  0
 13 34  1  0
 14 35  1  0
 14 36  1  0
M  END
>  <i_m_ct_stereo_status>  (244) 
1

>  <s_m_source_file>  (244) 
/var/tmp/pbs.5076255.sched01/tmpinim70aj/80j3ziidn5.sdf

>  <i_m_source_file_index>  (244) 
22

>  <i_lp_mmshare_version>  (244) 
48012

>  <i_f3d_flags>  (244) 
0

>  <s_epik_input>  (244) 
W0NIM11DMShbQ0gzXSlbQ0BASF0oW0NIMl0yKVtDSDJdW0NASF0oW0NIMl1bQ0BIXTNbT0hdKVtDSDJdW0NAQEhdMltDQEBdMTNbQ0gzXQ==

>  <s_epik_cmdline>  (244) 
J2VwaWtfcHl0aG9uJywgJy1waHQnLCAnMi4wJywgJy1waCcsICc3LjAnLCAnLXRuJywgJzgnLCAnLW1hJywgJzIwMCcsICctaW1hZScsICc8aW5maWxlLm1hZT4nLCAnLW9tYWUnLCAnPG91dGZpbGUubWFlPic=

>  <r_lp_tautomer_probability>  (244) 
1

>  <r_epik_Ionization_Penalty>  (244) 
2.80765e-06

>  <r_epik_Ionization_Penalty_Charging>  (244) 
0

>  <r_epik_Ionization_Penalty_Neutral>  (244) 
2.80765e-06

>  <r_epik_State_Penalty>  (244) 
-0

>  <r_epik_Charging_Adjusted_Penalty>  (244) 
0

>  <i_epik_Tot_Q>  (244) 
0

>  <i_epik_Tot_abs_Q>  (244) 
0

>  <s_lp_Force_Field>  (244) 
OPLS3e

>  <r_lp_Energy>  (244) 
50.0732

>  <b_lp_Chiralities_Consistent>  (244) 
1

>  <s_lp_Variant>  (244) 
78:0-1

>  <s_i_glide_gridfile>  (244) 
pfpi4k_grid

>  <i_i_glide_lignum>  (244) 
22

>  <i_i_glide_rotatable_bonds>  (244) 
1

>  <r_i_docking_score>  (244) 
-3.98969

>  <r_i_glide_ligand_efficiency>  (244) 
-0.284978

>  <r_i_glide_ligand_efficiency_sa>  (244) 
-0.686838

>  <r_i_glide_ligand_efficiency_ln>  (244) 
-1.09635

>  <r_i_glide_gscore>  (244) 
-3.98969

>  <r_i_glide_lipo>  (244) 
-0.309955

>  <r_i_glide_hbond>  (244) 
-0.294474

>  <r_i_glide_metal>  (244) 
-0

>  <r_i_glide_rewards>  (244) 
-2.08423

>  <r_i_glide_evdw>  (244) 
-16.6398

>  <r_i_glide_ecoul>  (244) 
-3.12695

>  <r_i_glide_erotb>  (244) 
0

>  <r_i_glide_esite>  (244) 
0

>  <r_i_glide_emodel>  (244) 
-24.5434

>  <r_i_glide_energy>  (244) 
-19.7668

>  <r_i_glide_einternal>  (244) 
0.417498

>  <r_i_glide_intrahb_reward>  (244) 
-0

>  <i_i_glide_confnum>  (244) 
2

>  <i_i_glide_posenum>  (244) 
24

>  <r_i_glide_eff_state_penalty>  (244) 
0

>  <ligand_id>  (244) 
78

>  <original_smiles>  (244) 
CC1(C)C2CC3CC(O)C1(C)C(C3)C2

>  <smiles>  (244) 
[H]OC1([H])C([H])([H])C2([H])C([H])([H])C3([H])C([H])([H])C([H])(C2([H])[H])C1(C([H])([H])[H])C3(C([H])([H])[H])C([H])([H])[H]

$$$$
78:0:2
     RDKit          3D

 36 38  0  0  1  0  0  0  0  0999 V2000
    3.1950   -4.9740    0.6678 C   0  0  0  0  0  0  0  0  0  0  0  0
    3.6553   -3.5391    0.3433 C   0  0  0  0  0  0  0  0  0  0  0  0
    2.8464   -3.1848   -0.9374 C   0  0  0  0  0  0  0  0  0  0  0  0
    3.3234   -2.5998    1.5292 C   0  0  2  0  0  0  0  0  0  0  0  0
    3.4127   -1.0831    1.1837 C   0  0  0  0  0  0  0  0  0  0  0  0
    4.8113   -0.6163    0.6724 C   0  0  2  0  0  0  0  0  0  0  0  0
    5.1072   -0.9917   -0.8026 C   0  0  0  0  0  0  0  0  0  0  0  0
    5.6465   -2.4420   -0.9418 C   0  0  1  0  0  0  0  0  0  0  0  0
    7.0571   -2.3492   -1.0086 O   0  0  0  0  0  0  0  0  0  0  0  0
    5.2319   -3.3793    0.2412 C   0  0  2  0  0  0  0  0  0  0  0  0
    5.9313   -4.7559    0.0766 C   0  0  0  0  0  0  0  0  0  0  0  0
    5.6659   -2.7536    1.6277 C   0  0  1  0  0  0  0  0  0  0  0  0
    5.9103   -1.2226    1.5539 C   0  0  0  0  0  0  0  0  0  0  0  0
    4.4413   -2.9403    2.5290 C   0  0  0  0  0  0  0  0  0  0  0  0
    2.1177   -5.0253    0.8758 H   0  0  0  0  0  0  0  0  0  0  0  0
    3.6820   -5.4389    1.5223 H   0  0  0  0  0  0  0  0  0  0  0  0
    3.3519   -5.6420   -0.1765 H   0  0  0  0  0  0  0  0  0  0  0  0
    2.8268   -2.1788   -1.2397 H   0  0  0  0  0  0  0  0  0  0  0  0
    1.7974   -3.4539   -0.8184 H   0  0  0  0  0  0  0  0  0  0  0  0
    3.1743   -3.7732   -1.7893 H   0  0  0  0  0  0  0  0  0  0  0  0
    2.3463   -2.8261    1.9562 H   0  0  0  0  0  0  0  0  0  0  0  0
    2.6295   -0.7930    0.4897 H   0  0  0  0  0  0  0  0  0  0  0  0
    3.1832   -0.5248    2.0946 H   0  0  0  0  0  0  0  0  0  0  0  0
    4.8404    0.4703    0.7411 H   0  0  0  0  0  0  0  0  0  0  0  0
    4.2701   -0.7792   -1.4322 H   0  0  0  0  0  0  0  0  0  0  0  0
    5.8594   -0.3009   -1.1927 H   0  0  0  0  0  0  0  0  0  0  0  0
    5.3462   -2.8676   -1.9019 H   0  0  0  0  0  0  0  0  0  0  0  0
    7.3913   -2.2915   -0.1297 H   0  0  0  0  0  0  0  0  0  0  0  0
    7.0193   -4.6825   -0.0256 H   0  0  0  0  0  0  0  0  0  0  0  0
    5.5782   -5.2500   -0.8208 H   0  0  0  0  0  0  0  0  0  0  0  0
    5.7691   -5.4460    0.9077 H   0  0  0  0  0  0  0  0  0  0  0  0
    6.5418   -3.2422    2.0659 H   0  0  0  0  0  0  0  0  0  0  0  0
    6.8969   -0.9951    1.1512 H   0  0  0  0  0  0  0  0  0  0  0  0
    5.9074   -0.7738    2.5491 H   0  0  0  0  0  0  0  0  0  0  0  0
    4.4447   -2.2918    3.4107 H   0  0  0  0  0  0  0  0  0  0  0  0
    4.3820   -3.9607    2.9073 H   0  0  0  0  0  0  0  0  0  0  0  0
  1  2  1  0
  1 15  1  0
  1 16  1  0
  1 17  1  0
  2 10  1  0
  2  3  1  0
  2  4  1  0
  3 18  1  0
  3 19  1  0
  3 20  1  0
  4 14  1  0
  4  5  1  0
  4 21  1  1
  5  6  1  0
  5 22  1  0
  5 23  1  0
  6 13  1  0
  6  7  1  0
  6 24  1  6
  7  8  1  0
  7 25  1  0
  7 26  1  0
  8  9  1  0
  8 10  1  0
  8 27  1  6
  9 28  1  0
 10 11  1  6
 10 12  1  0
 11 29  1  0
 11 30  1  0
 11 31  1  0
 12 13  1  0
 12 14  1  0
 12 32  1  1
 13 33  1  0
 13 34  1  0
 14 35  1  0
 14 36  1  0
M  END
>  <i_m_ct_stereo_status>  (245) 
1

>  <s_m_source_file>  (245) 
/var/tmp/pbs.5076255.sched01/tmpinim70aj/80j3ziidn5.sdf

>  <i_m_source_file_index>  (245) 
22

>  <i_lp_mmshare_version>  (245) 
48012

>  <i_f3d_flags>  (245) 
0

>  <s_epik_input>  (245) 
W0NIM11DMShbQ0gzXSlbQ0BASF0oW0NIMl0yKVtDSDJdW0NASF0oW0NIMl1bQ0BIXTNbT0hdKVtDSDJdW0NAQEhdMltDQEBdMTNbQ0gzXQ==

>  <s_epik_cmdline>  (245) 
J2VwaWtfcHl0aG9uJywgJy1waHQnLCAnMi4wJywgJy1waCcsICc3LjAnLCAnLXRuJywgJzgnLCAnLW1hJywgJzIwMCcsICctaW1hZScsICc8aW5maWxlLm1hZT4nLCAnLW9tYWUnLCAnPG91dGZpbGUubWFlPic=

>  <r_lp_tautomer_probability>  (245) 
1

>  <r_epik_Ionization_Penalty>  (245) 
2.80765e-06

>  <r_epik_Ionization_Penalty_Charging>  (245) 
0

>  <r_epik_Ionization_Penalty_Neutral>  (245) 
2.80765e-06

>  <r_epik_State_Penalty>  (245) 
-0

>  <r_epik_Charging_Adjusted_Penalty>  (245) 
0

>  <i_epik_Tot_Q>  (245) 
0

>  <i_epik_Tot_abs_Q>  (245) 
0

>  <s_lp_Force_Field>  (245) 
OPLS3e

>  <r_lp_Energy>  (245) 
50.0732

>  <b_lp_Chiralities_Consistent>  (245) 
1

>  <s_lp_Variant>  (245) 
78:0-1

>  <s_i_glide_gridfile>  (245) 
pfpi4k_grid

>  <i_i_glide_lignum>  (245) 
22

>  <i_i_glide_rotatable_bonds>  (245) 
1

>  <r_i_docking_score>  (245) 
-3.931

>  <r_i_glide_ligand_efficiency>  (245) 
-0.280785

>  <r_i_glide_ligand_efficiency_sa>  (245) 
-0.676733

>  <r_i_glide_ligand_efficiency_ln>  (245) 
-1.08022

>  <r_i_glide_gscore>  (245) 
-3.931

>  <r_i_glide_lipo>  (245) 
-0.497366

>  <r_i_glide_hbond>  (245) 
-0.16

>  <r_i_glide_metal>  (245) 
-0

>  <r_i_glide_rewards>  (245) 
-2.08423

>  <r_i_glide_evdw>  (245) 
-17.0637

>  <r_i_glide_ecoul>  (245) 
-2.24143

>  <r_i_glide_erotb>  (245) 
0

>  <r_i_glide_esite>  (245) 
0

>  <r_i_glide_emodel>  (245) 
-24.0027

>  <r_i_glide_energy>  (245) 
-19.3052

>  <r_i_glide_einternal>  (245) 
0.325145

>  <r_i_glide_intrahb_reward>  (245) 
-0

>  <i_i_glide_confnum>  (245) 
2

>  <i_i_glide_posenum>  (245) 
30

>  <r_i_glide_eff_state_penalty>  (245) 
0

>  <ligand_id>  (245) 
78

>  <original_smiles>  (245) 
CC1(C)C2CC3CC(O)C1(C)C(C3)C2

>  <smiles>  (245) 
[H]OC1([H])C([H])([H])C2([H])C([H])([H])C3([H])C([H])([H])C([H])(C2([H])[H])C1(C([H])([H])[H])C3(C([H])([H])[H])C([H])([H])[H]

$$$$
79:0:0
     RDKit          3D

 78 83  0  0  1  0  0  0  0  0999 V2000
    3.3429    3.7755    6.8244 C   0  0  0  0  0  0  0  0  0  0  0  0
    2.8644    3.3223    5.4217 C   0  0  0  0  0  0  0  0  0  0  0  0
    3.5065    4.4343    4.5358 C   0  0  0  0  0  0  0  0  0  0  0  0
    3.3660    1.9748    4.8276 C   0  0  0  0  0  0  0  0  0  0  0  0
    3.2791    0.6709    5.2139 C   0  0  0  0  0  0  0  0  0  0  0  0
    3.1167   -0.4579    4.1549 C   0  0  2  0  0  0  0  0  0  0  0  0
    3.2559   -0.0719    2.6516 C   0  0  1  0  0  0  0  0  0  0  0  0
    4.5910    0.0334    2.1992 O   0  0  0  0  0  0  0  0  0  0  0  0
    2.4512   -1.0979    1.8592 C   0  0  1  0  0  0  0  0  0  0  0  0
    3.1261   -2.3482    1.4577 N   0  0  0  0  0  0  0  0  0  0  0  0
    2.9473   -3.0551    0.2880 C   0  0  0  0  0  0  0  0  0  0  0  0
    3.7020   -4.1870    0.4516 C   0  0  0  0  0  0  0  0  0  0  0  0
    4.3324   -4.1070    1.6783 N   0  0  0  0  0  0  0  0  0  0  0  0
    4.0049   -2.9987    2.2614 N   0  0  0  0  0  0  0  0  0  0  0  0
    1.2397   -1.2926    2.7830 C   0  0  0  0  0  0  0  0  0  0  0  0
    1.7236   -1.2260    4.2851 C   0  0  1  0  0  0  0  0  0  0  0  0
    1.8635   -2.7463    4.6617 C   0  0  0  0  0  0  0  0  0  0  0  0
    0.7366   -0.5635    5.3889 C   0  0  2  0  0  0  0  0  0  0  0  0
   -0.6900   -0.0667    4.9065 C   0  0  1  0  0  0  0  0  0  0  0  0
   -1.7438   -0.6622    5.6510 O   0  0  0  0  0  0  0  0  0  0  0  0
   -0.9833    1.4455    4.5943 C   0  0  2  0  0  0  0  0  0  0  0  0
    0.0174    1.9693    3.5198 C   0  0  1  0  0  0  0  0  0  0  0  0
   -0.5793    1.9862    2.2383 O   0  0  0  0  0  0  0  0  0  0  0  0
    0.8250    3.2534    3.7848 C   0  0  1  0  0  0  0  0  0  0  0  0
    0.2242    4.4432    3.2877 O   0  0  0  0  0  0  0  0  0  0  0  0
    1.2895    3.4002    5.2788 C   0  0  1  0  0  0  0  0  0  0  0  0
    0.3260    2.6624    6.3276 C   0  0  2  0  0  0  0  0  0  0  0  0
    0.8146    1.4535    7.2025 C   0  0  0  0  0  0  0  0  0  0  0  0
    1.4346    0.1239    6.6582 C   0  0  2  0  0  0  0  0  0  0  0  0
    2.9999    0.1356    6.6222 C   0  0  0  0  0  0  0  0  0  0  0  0
    3.6353   -1.2816    6.8971 C   0  0  0  0  0  0  0  0  0  0  0  0
    3.7616    0.8689    7.7781 C   0  0  0  0  0  0  0  0  0  0  0  0
   -1.1229    2.4270    5.7949 C   0  0  0  0  0  0  0  0  0  0  0  0
   -1.7844    3.7531    5.3171 C   0  0  0  0  0  0  0  0  0  0  0  0
   -2.1326    1.9616    6.8932 C   0  0  0  0  0  0  0  0  0  0  0  0
    3.4196    4.8620    6.8923 H   0  0  0  0  0  0  0  0  0  0  0  0
    4.3369    3.4039    7.0699 H   0  0  0  0  0  0  0  0  0  0  0  0
    2.6350    3.5566    7.6155 H   0  0  0  0  0  0  0  0  0  0  0  0
    3.0881    5.4220    4.7396 H   0  0  0  0  0  0  0  0  0  0  0  0
    3.4104    4.2794    3.4620 H   0  0  0  0  0  0  0  0  0  0  0  0
    4.5789    4.4983    4.7284 H   0  0  0  0  0  0  0  0  0  0  0  0
    3.6019    2.1279    3.7892 H   0  0  0  0  0  0  0  0  0  0  0  0
    3.9405   -1.1513    4.2860 H   0  0  0  0  0  0  0  0  0  0  0  0
    2.7488    0.8679    2.4330 H   0  0  0  0  0  0  0  0  0  0  0  0
    4.5592    0.3509    1.3073 H   0  0  0  0  0  0  0  0  0  0  0  0
    2.1348   -0.6369    0.9213 H   0  0  0  0  0  0  0  0  0  0  0  0
    2.3155   -2.7098   -0.5162 H   0  0  0  0  0  0  0  0  0  0  0  0
    3.8442   -5.0276   -0.2141 H   0  0  0  0  0  0  0  0  0  0  0  0
    0.5732   -0.4890    2.4981 H   0  0  0  0  0  0  0  0  0  0  0  0
    0.6668   -2.1838    2.5273 H   0  0  0  0  0  0  0  0  0  0  0  0
    1.0179   -3.3270    4.2844 H   0  0  0  0  0  0  0  0  0  0  0  0
    1.8421   -2.9327    5.7383 H   0  0  0  0  0  0  0  0  0  0  0  0
    2.7699   -3.2030    4.2843 H   0  0  0  0  0  0  0  0  0  0  0  0
    0.3795   -1.4575    5.8921 H   0  0  0  0  0  0  0  0  0  0  0  0
   -0.8888   -0.5794    3.9720 H   0  0  0  0  0  0  0  0  0  0  0  0
   -2.5492   -0.4816    5.1857 H   0  0  0  0  0  0  0  0  0  0  0  0
   -1.9722    1.4376    4.1308 H   0  0  0  0  0  0  0  0  0  0  0  0
    0.8250    1.2548    3.4870 H   0  0  0  0  0  0  0  0  0  0  0  0
   -0.2002    2.6931    1.7231 H   0  0  0  0  0  0  0  0  0  0  0  0
    1.6875    3.1543    3.1313 H   0  0  0  0  0  0  0  0  0  0  0  0
    0.2153    4.4333    2.3127 H   0  0  0  0  0  0  0  0  0  0  0  0
    1.1063    4.4524    5.5071 H   0  0  0  0  0  0  0  0  0  0  0  0
    0.1822    3.4224    7.0979 H   0  0  0  0  0  0  0  0  0  0  0  0
    1.4015    1.8654    8.0053 H   0  0  0  0  0  0  0  0  0  0  0  0
    0.0056    1.1229    7.8392 H   0  0  0  0  0  0  0  0  0  0  0  0
    1.2305   -0.5549    7.4897 H   0  0  0  0  0  0  0  0  0  0  0  0
    3.1257   -1.7882    7.7186 H   0  0  0  0  0  0  0  0  0  0  0  0
    4.6882   -1.2144    7.1855 H   0  0  0  0  0  0  0  0  0  0  0  0
    3.6836   -1.9960    6.0947 H   0  0  0  0  0  0  0  0  0  0  0  0
    3.8597    0.2413    8.6671 H   0  0  0  0  0  0  0  0  0  0  0  0
    3.3445    1.7557    8.2040 H   0  0  0  0  0  0  0  0  0  0  0  0
    4.7790    1.1155    7.4685 H   0  0  0  0  0  0  0  0  0  0  0  0
   -2.7383    3.9640    5.8016 H   0  0  0  0  0  0  0  0  0  0  0  0
   -2.0094    3.7467    4.2503 H   0  0  0  0  0  0  0  0  0  0  0  0
   -1.1613    4.6229    5.5224 H   0  0  0  0  0  0  0  0  0  0  0  0
   -2.1960    2.6858    7.7073 H   0  0  0  0  0  0  0  0  0  0  0  0
   -1.9324    1.0012    7.3532 H   0  0  0  0  0  0  0  0  0  0  0  0
   -3.1343    1.8713    6.4841 H   0  0  0  0  0  0  0  0  0  0  0  0
  1  2  1  0
  1 36  1  0
  1 37  1  0
  1 38  1  0
  2 26  1  0
  2  3  1  0
  2  4  1  0
  3 39  1  0
  3 40  1  0
  3 41  1  0
  4  5  2  3
  4 42  1  0
  5 30  1  0
  5  6  1  0
  6 16  1  0
  6  7  1  0
  6 43  1  1
  7  8  1  0
  7  9  1  0
  7 44  1  1
  8 45  1  0
  9 10  1  0
  9 15  1  0
  9 46  1  6
 10 14  1  0
 10 11  1  0
 11 12  2  0
 11 47  1  0
 12 13  1  0
 12 48  1  0
 13 14  2  0
 15 16  1  0
 15 49  1  0
 15 50  1  0
 16 17  1  1
 16 18  1  0
 17 51  1  0
 17 52  1  0
 17 53  1  0
 18 29  1  0
 18 19  1  0
 18 54  1  1
 19 20  1  0
 19 21  1  0
 19 55  1  6
 20 56  1  0
 21 33  1  0
 21 22  1  0
 21 57  1  6
 22 23  1  0
 22 24  1  0
 22 58  1  6
 23 59  1  0
 24 25  1  0
 24 26  1  0
 24 60  1  6
 25 61  1  0
 26 27  1  0
 26 62  1  1
 27 28  1  0
 27 33  1  0
 27 63  1  1
 28 29  1  0
 28 64  1  0
 28 65  1  0
 29 30  1  0
 29 66  1  1
 30 31  1  0
 30 32  1  0
 31 67  1  0
 31 68  1  0
 31 69  1  0
 32 70  1  0
 32 71  1  0
 32 72  1  0
 33 34  1  0
 33 35  1  0
 34 73  1  0
 34 74  1  0
 34 75  1  0
 35 76  1  0
 35 77  1  0
 35 78  1  0
M  END
>  <i_m_ct_stereo_status>  (246) 
1

>  <s_m_source_file>  (246) 
/var/tmp/pbs.5076255.sched01/tmpinim70aj/80j3ziidn5.sdf

>  <i_m_source_file_index>  (246) 
23

>  <i_lp_mmshare_version>  (246) 
48012

>  <i_f3d_flags>  (246) 
0

>  <s_epik_input>  (246) 
W09IXVtDQEBIXTFbQ0BIXShbT0hdKVtDQEhdKEMyKFtDSDNdKVtDSDNdKVtDQEhdKFtPSF0pW0NAQEhdM1tDQEBIXShDNChbQ0gzXSlbQ0gzXSlbQ0gyXVtDQEhdMltDQEhdMUMoW0NIM10pKFtDSDNdKS9bQ0hdPUM0L1tDQEBIXShbQ0BAXTM1W0NIM10pW0NAQEhdKFtPSF0pW0NASF0oW0NIMl01KW42W2NIXVtjSF1ubjY=

>  <s_epik_cmdline>  (246) 
J2VwaWtfcHl0aG9uJywgJy1waHQnLCAnMi4wJywgJy1waCcsICc3LjAnLCAnLXRuJywgJzgnLCAnLW1hJywgJzIwMCcsICctaW1hZScsICc8aW5maWxlLm1hZT4nLCAnLW9tYWUnLCAnPG91dGZpbGUubWFlPic=

>  <r_lp_tautomer_probability>  (246) 
1

>  <r_epik_Ionization_Penalty>  (246) 
0.000146968

>  <r_epik_Ionization_Penalty_Charging>  (246) 
0

>  <r_epik_Ionization_Penalty_Neutral>  (246) 
0.000146968

>  <r_epik_State_Penalty>  (246) 
-0

>  <r_epik_Charging_Adjusted_Penalty>  (246) 
0

>  <i_epik_Tot_Q>  (246) 
0

>  <i_epik_Tot_abs_Q>  (246) 
0

>  <s_lp_Force_Field>  (246) 
OPLS3e

>  <r_lp_Energy>  (246) 
175.991

>  <b_lp_Chiralities_Consistent>  (246) 
1

>  <s_lp_Variant>  (246) 
79:0-1

>  <s_i_glide_gridfile>  (246) 
pfpi4k_grid

>  <i_i_glide_lignum>  (246) 
23

>  <i_i_glide_rotatable_bonds>  (246) 
5

>  <r_i_docking_score>  (246) 
-3.39746

>  <r_i_glide_ligand_efficiency>  (246) 
-0.0970702

>  <r_i_glide_ligand_efficiency_sa>  (246) 
-0.317523

>  <r_i_glide_ligand_efficiency_ln>  (246) 
-0.745817

>  <r_i_glide_gscore>  (246) 
-3.39746

>  <r_i_glide_lipo>  (246) 
-0.0126001

>  <r_i_glide_hbond>  (246) 
-0.0856025

>  <r_i_glide_metal>  (246) 
-0

>  <r_i_glide_rewards>  (246) 
-0.0977815

>  <r_i_glide_evdw>  (246) 
-24.8439

>  <r_i_glide_ecoul>  (246) 
-13.544

>  <r_i_glide_erotb>  (246) 
0.0861371

>  <r_i_glide_esite>  (246) 
-0.0138141

>  <r_i_glide_emodel>  (246) 
-46.0715

>  <r_i_glide_energy>  (246) 
-38.3879

>  <r_i_glide_einternal>  (246) 
2.54592

>  <r_i_glide_intrahb_reward>  (246) 
-0

>  <i_i_glide_confnum>  (246) 
1

>  <i_i_glide_posenum>  (246) 
28

>  <r_i_glide_eff_state_penalty>  (246) 
0

>  <ligand_id>  (246) 
79

>  <original_smiles>  (246) 
CC1(C)C=C2C3C(O)C(n4ccnn4)CC3(C)C3C(O)C4C(O)C(O)C1C(CC3C2(C)C)C4(C)C

>  <smiles>  (246) 
[H]OC1([H])C2([H])C3=C([H])C(C([H])([H])[H])(C([H])([H])[H])C4([H])C([H])(O[H])C([H])(O[H])C5([H])C([H])(O[H])C([H])(C([H])(C([H])([H])C4([H])C5(C([H])([H])[H])C([H])([H])[H])C3(C([H])([H])[H])C([H])([H])[H])C2(C([H])([H])[H])C([H])([H])C1([H])n1nnc([H])c1[H]

$$$$
79:0:1
     RDKit          3D

 78 83  0  0  1  0  0  0  0  0999 V2000
    3.4419    3.6113    6.7581 C   0  0  0  0  0  0  0  0  0  0  0  0
    2.9492    3.1830    5.3527 C   0  0  0  0  0  0  0  0  0  0  0  0
    3.5393    4.3394    4.4895 C   0  0  0  0  0  0  0  0  0  0  0  0
    3.4805    1.8669    4.7131 C   0  0  0  0  0  0  0  0  0  0  0  0
    3.4459    0.5523    5.0649 C   0  0  0  0  0  0  0  0  0  0  0  0
    3.3064   -0.5543    3.9818 C   0  0  2  0  0  0  0  0  0  0  0  0
    3.4129   -0.1246    2.4871 C   0  0  1  0  0  0  0  0  0  0  0  0
    4.7299    0.0659    2.0025 O   0  0  0  0  0  0  0  0  0  0  0  0
    2.6183   -1.1514    1.6853 C   0  0  1  0  0  0  0  0  0  0  0  0
    3.3159   -2.3759    1.2323 N   0  0  0  0  0  0  0  0  0  0  0  0
    3.0721   -3.0933    0.0848 C   0  0  0  0  0  0  0  0  0  0  0  0
    3.8925   -4.1838    0.1940 C   0  0  0  0  0  0  0  0  0  0  0  0
    4.6192   -4.0660    1.3634 N   0  0  0  0  0  0  0  0  0  0  0  0
    4.2933   -2.9636    1.9686 N   0  0  0  0  0  0  0  0  0  0  0  0
    1.4259   -1.3987    2.6198 C   0  0  0  0  0  0  0  0  0  0  0  0
    1.9344   -1.3605    4.1124 C   0  0  1  0  0  0  0  0  0  0  0  0
    2.1131   -2.8868    4.4441 C   0  0  0  0  0  0  0  0  0  0  0  0
    0.9478   -0.7525    5.2416 C   0  0  2  0  0  0  0  0  0  0  0  0
   -0.5060   -0.2946    4.8029 C   0  0  1  0  0  0  0  0  0  0  0  0
   -1.4960   -0.9658    5.5748 O   0  0  0  0  0  0  0  0  0  0  0  0
   -0.8521    1.2191    4.5342 C   0  0  2  0  0  0  0  0  0  0  0  0
    0.1183    1.7974    3.4570 C   0  0  1  0  0  0  0  0  0  0  0  0
   -0.4851    1.8200    2.1767 O   0  0  0  0  0  0  0  0  0  0  0  0
    0.8930    3.0989    3.7394 C   0  0  1  0  0  0  0  0  0  0  0  0
    0.2439    4.2816    3.2951 O   0  0  0  0  0  0  0  0  0  0  0  0
    1.3741    3.2192    5.2320 C   0  0  1  0  0  0  0  0  0  0  0  0
    0.4529    2.4256    6.2741 C   0  0  2  0  0  0  0  0  0  0  0  0
    0.9902    1.2092    7.1085 C   0  0  0  0  0  0  0  0  0  0  0  0
    1.6398   -0.0864    6.5222 C   0  0  2  0  0  0  0  0  0  0  0  0
    3.2010   -0.0264    6.4615 C   0  0  0  0  0  0  0  0  0  0  0  0
    3.8839   -1.4287    6.6929 C   0  0  0  0  0  0  0  0  0  0  0  0
    3.9604    0.6920    7.6265 C   0  0  0  0  0  0  0  0  0  0  0  0
   -0.9974    2.1688    5.7602 C   0  0  0  0  0  0  0  0  0  0  0  0
   -1.7044    3.4937    5.3353 C   0  0  0  0  0  0  0  0  0  0  0  0
   -1.9693    1.6463    6.8656 C   0  0  0  0  0  0  0  0  0  0  0  0
    3.4906    4.6970    6.8515 H   0  0  0  0  0  0  0  0  0  0  0  0
    4.4517    3.2640    6.9768 H   0  0  0  0  0  0  0  0  0  0  0  0
    2.7558    3.3523    7.5558 H   0  0  0  0  0  0  0  0  0  0  0  0
    3.0925    5.3081    4.7253 H   0  0  0  0  0  0  0  0  0  0  0  0
    3.4359    4.2066    3.4121 H   0  0  0  0  0  0  0  0  0  0  0  0
    4.6092    4.4294    4.6773 H   0  0  0  0  0  0  0  0  0  0  0  0
    3.7048    2.0573    3.6785 H   0  0  0  0  0  0  0  0  0  0  0  0
    4.1480   -1.2278    4.0885 H   0  0  0  0  0  0  0  0  0  0  0  0
    2.8655    0.8014    2.3072 H   0  0  0  0  0  0  0  0  0  0  0  0
    5.1507   -0.7779    1.9272 H   0  0  0  0  0  0  0  0  0  0  0  0
    2.2594   -0.6584    0.7801 H   0  0  0  0  0  0  0  0  0  0  0  0
    2.3706   -2.7835   -0.6708 H   0  0  0  0  0  0  0  0  0  0  0  0
    4.0327   -5.0234   -0.4788 H   0  0  0  0  0  0  0  0  0  0  0  0
    0.7317   -0.6043    2.3616 H   0  0  0  0  0  0  0  0  0  0  0  0
    0.8816   -2.2997    2.3524 H   0  0  0  0  0  0  0  0  0  0  0  0
    1.2829   -3.4828    4.0590 H   0  0  0  0  0  0  0  0  0  0  0  0
    2.1326   -3.1095    5.5111 H   0  0  0  0  0  0  0  0  0  0  0  0
    3.0246   -3.3126    4.0443 H   0  0  0  0  0  0  0  0  0  0  0  0
    0.6395   -1.6740    5.7262 H   0  0  0  0  0  0  0  0  0  0  0  0
   -0.7095   -0.7809    3.8545 H   0  0  0  0  0  0  0  0  0  0  0  0
   -1.3723   -1.8979    5.4510 H   0  0  0  0  0  0  0  0  0  0  0  0
   -1.8471    1.1929    4.0860 H   0  0  0  0  0  0  0  0  0  0  0  0
    0.9480    1.1121    3.4002 H   0  0  0  0  0  0  0  0  0  0  0  0
   -0.1852    2.5909    1.7007 H   0  0  0  0  0  0  0  0  0  0  0  0
    1.7508    3.0382    3.0734 H   0  0  0  0  0  0  0  0  0  0  0  0
    0.2160    4.2976    2.3206 H   0  0  0  0  0  0  0  0  0  0  0  0
    1.1664    4.2595    5.4901 H   0  0  0  0  0  0  0  0  0  0  0  0
    0.3033    3.1607    7.0667 H   0  0  0  0  0  0  0  0  0  0  0  0
    1.5777    1.6158    7.9134 H   0  0  0  0  0  0  0  0  0  0  0  0
    0.2051    0.8370    7.7516 H   0  0  0  0  0  0  0  0  0  0  0  0
    1.4681   -0.7942    7.3374 H   0  0  0  0  0  0  0  0  0  0  0  0
    3.4013   -1.9729    7.5081 H   0  0  0  0  0  0  0  0  0  0  0  0
    4.9403   -1.3380    6.9677 H   0  0  0  0  0  0  0  0  0  0  0  0
    3.9394   -2.1234    5.8744 H   0  0  0  0  0  0  0  0  0  0  0  0
    4.0902    0.0421    8.4974 H   0  0  0  0  0  0  0  0  0  0  0  0
    3.5267    1.5555    8.0819 H   0  0  0  0  0  0  0  0  0  0  0  0
    4.9658    0.9758    7.3094 H   0  0  0  0  0  0  0  0  0  0  0  0
   -2.6580    3.6631    5.8379 H   0  0  0  0  0  0  0  0  0  0  0  0
   -1.9453    3.5060    4.2716 H   0  0  0  0  0  0  0  0  0  0  0  0
   -1.1034    4.3769    5.5500 H   0  0  0  0  0  0  0  0  0  0  0  0
   -2.0366    2.3460    7.7019 H   0  0  0  0  0  0  0  0  0  0  0  0
   -1.7214    0.6817    7.2864 H   0  0  0  0  0  0  0  0  0  0  0  0
   -2.9727    1.5223    6.4801 H   0  0  0  0  0  0  0  0  0  0  0  0
  1  2  1  0
  1 36  1  0
  1 37  1  0
  1 38  1  0
  2 26  1  0
  2  3  1  0
  2  4  1  0
  3 39  1  0
  3 40  1  0
  3 41  1  0
  4  5  2  3
  4 42  1  0
  5 30  1  0
  5  6  1  0
  6 16  1  0
  6  7  1  0
  6 43  1  1
  7  8  1  0
  7  9  1  0
  7 44  1  1
  8 45  1  0
  9 10  1  0
  9 15  1  0
  9 46  1  6
 10 14  1  0
 10 11  1  0
 11 12  2  0
 11 47  1  0
 12 13  1  0
 12 48  1  0
 13 14  2  0
 15 16  1  0
 15 49  1  0
 15 50  1  0
 16 17  1  1
 16 18  1  0
 17 51  1  0
 17 52  1  0
 17 53  1  0
 18 29  1  0
 18 19  1  0
 18 54  1  1
 19 20  1  0
 19 21  1  0
 19 55  1  6
 20 56  1  0
 21 33  1  0
 21 22  1  0
 21 57  1  6
 22 23  1  0
 22 24  1  0
 22 58  1  6
 23 59  1  0
 24 25  1  0
 24 26  1  0
 24 60  1  6
 25 61  1  0
 26 27  1  0
 26 62  1  1
 27 28  1  0
 27 33  1  0
 27 63  1  1
 28 29  1  0
 28 64  1  0
 28 65  1  0
 29 30  1  0
 29 66  1  1
 30 31  1  0
 30 32  1  0
 31 67  1  0
 31 68  1  0
 31 69  1  0
 32 70  1  0
 32 71  1  0
 32 72  1  0
 33 34  1  0
 33 35  1  0
 34 73  1  0
 34 74  1  0
 34 75  1  0
 35 76  1  0
 35 77  1  0
 35 78  1  0
M  END
>  <i_m_ct_stereo_status>  (247) 
1

>  <s_m_source_file>  (247) 
/var/tmp/pbs.5076255.sched01/tmpinim70aj/80j3ziidn5.sdf

>  <i_m_source_file_index>  (247) 
23

>  <i_lp_mmshare_version>  (247) 
48012

>  <i_f3d_flags>  (247) 
0

>  <s_epik_input>  (247) 
W09IXVtDQEBIXTFbQ0BIXShbT0hdKVtDQEhdKEMyKFtDSDNdKVtDSDNdKVtDQEhdKFtPSF0pW0NAQEhdM1tDQEBIXShDNChbQ0gzXSlbQ0gzXSlbQ0gyXVtDQEhdMltDQEhdMUMoW0NIM10pKFtDSDNdKS9bQ0hdPUM0L1tDQEBIXShbQ0BAXTM1W0NIM10pW0NAQEhdKFtPSF0pW0NASF0oW0NIMl01KW42W2NIXVtjSF1ubjY=

>  <s_epik_cmdline>  (247) 
J2VwaWtfcHl0aG9uJywgJy1waHQnLCAnMi4wJywgJy1waCcsICc3LjAnLCAnLXRuJywgJzgnLCAnLW1hJywgJzIwMCcsICctaW1hZScsICc8aW5maWxlLm1hZT4nLCAnLW9tYWUnLCAnPG91dGZpbGUubWFlPic=

>  <r_lp_tautomer_probability>  (247) 
1

>  <r_epik_Ionization_Penalty>  (247) 
0.000146968

>  <r_epik_Ionization_Penalty_Charging>  (247) 
0

>  <r_epik_Ionization_Penalty_Neutral>  (247) 
0.000146968

>  <r_epik_State_Penalty>  (247) 
-0

>  <r_epik_Charging_Adjusted_Penalty>  (247) 
0

>  <i_epik_Tot_Q>  (247) 
0

>  <i_epik_Tot_abs_Q>  (247) 
0

>  <s_lp_Force_Field>  (247) 
OPLS3e

>  <r_lp_Energy>  (247) 
175.991

>  <b_lp_Chiralities_Consistent>  (247) 
1

>  <s_lp_Variant>  (247) 
79:0-1

>  <s_i_glide_gridfile>  (247) 
pfpi4k_grid

>  <i_i_glide_lignum>  (247) 
23

>  <i_i_glide_rotatable_bonds>  (247) 
5

>  <r_i_docking_score>  (247) 
-3.33387

>  <r_i_glide_ligand_efficiency>  (247) 
-0.0952535

>  <r_i_glide_ligand_efficiency_sa>  (247) 
-0.31158

>  <r_i_glide_ligand_efficiency_ln>  (247) 
-0.731859

>  <r_i_glide_gscore>  (247) 
-3.33387

>  <r_i_glide_lipo>  (247) 
-0.0159959

>  <r_i_glide_hbond>  (247) 
-0.102031

>  <r_i_glide_metal>  (247) 
-0

>  <r_i_glide_rewards>  (247) 
-0.0977815

>  <r_i_glide_evdw>  (247) 
-25.151

>  <r_i_glide_ecoul>  (247) 
-12.8705

>  <r_i_glide_erotb>  (247) 
0.0861371

>  <r_i_glide_esite>  (247) 
-0.0160736

>  <r_i_glide_emodel>  (247) 
-45.6925

>  <r_i_glide_energy>  (247) 
-38.0215

>  <r_i_glide_einternal>  (247) 
2.32455

>  <r_i_glide_intrahb_reward>  (247) 
-0

>  <i_i_glide_confnum>  (247) 
1

>  <i_i_glide_posenum>  (247) 
25

>  <r_i_glide_eff_state_penalty>  (247) 
0

>  <ligand_id>  (247) 
79

>  <original_smiles>  (247) 
CC1(C)C=C2C3C(O)C(n4ccnn4)CC3(C)C3C(O)C4C(O)C(O)C1C(CC3C2(C)C)C4(C)C

>  <smiles>  (247) 
[H]OC1([H])C2([H])C3=C([H])C(C([H])([H])[H])(C([H])([H])[H])C4([H])C([H])(O[H])C([H])(O[H])C5([H])C([H])(O[H])C([H])(C([H])(C([H])([H])C4([H])C5(C([H])([H])[H])C([H])([H])[H])C3(C([H])([H])[H])C([H])([H])[H])C2(C([H])([H])[H])C([H])([H])C1([H])n1nnc([H])c1[H]

$$$$
79:0:2
     RDKit          3D

 78 83  0  0  1  0  0  0  0  0999 V2000
    3.3469    3.7598    6.8151 C   0  0  0  0  0  0  0  0  0  0  0  0
    2.8690    3.3060    5.4147 C   0  0  0  0  0  0  0  0  0  0  0  0
    3.5043    4.4199    4.5280 C   0  0  0  0  0  0  0  0  0  0  0  0
    3.3689    1.9610    4.8166 C   0  0  0  0  0  0  0  0  0  0  0  0
    3.2856    0.6536    5.2034 C   0  0  0  0  0  0  0  0  0  0  0  0
    3.1278   -0.4757    4.1460 C   0  0  2  0  0  0  0  0  0  0  0  0
    3.2697   -0.0883    2.6442 C   0  0  1  0  0  0  0  0  0  0  0  0
    4.6032    0.0612    2.1946 O   0  0  0  0  0  0  0  0  0  0  0  0
    2.4659   -1.1146    1.8461 C   0  0  1  0  0  0  0  0  0  0  0  0
    3.1432   -2.3553    1.4367 N   0  0  0  0  0  0  0  0  0  0  0  0
    2.9837   -3.0542    0.2569 C   0  0  0  0  0  0  0  0  0  0  0  0
    3.7221   -4.1877    0.4139 C   0  0  0  0  0  0  0  0  0  0  0  0
    4.3326   -4.1261    1.6659 N   0  0  0  0  0  0  0  0  0  0  0  0
    4.0155   -3.0161    2.2430 N   0  0  0  0  0  0  0  0  0  0  0  0
    1.2522   -1.3129    2.7770 C   0  0  0  0  0  0  0  0  0  0  0  0
    1.7333   -1.2452    4.2800 C   0  0  1  0  0  0  0  0  0  0  0  0
    1.8678   -2.7653    4.6675 C   0  0  0  0  0  0  0  0  0  0  0  0
    0.7464   -0.5787    5.3808 C   0  0  2  0  0  0  0  0  0  0  0  0
   -0.6818   -0.0871    4.9008 C   0  0  1  0  0  0  0  0  0  0  0  0
   -1.7330   -0.6875    5.6478 O   0  0  0  0  0  0  0  0  0  0  0  0
   -0.9796    1.4250    4.5900 C   0  0  2  0  0  0  0  0  0  0  0  0
    0.0209    1.9487    3.5172 C   0  0  1  0  0  0  0  0  0  0  0  0
   -0.5774    1.9705    2.2361 O   0  0  0  0  0  0  0  0  0  0  0  0
    0.8302    3.2309    3.7835 C   0  0  1  0  0  0  0  0  0  0  0  0
    0.2188    4.4204    3.3018 O   0  0  0  0  0  0  0  0  0  0  0  0
    1.2961    3.3808    5.2764 C   0  0  1  0  0  0  0  0  0  0  0  0
    0.3327    2.6398    6.3221 C   0  0  2  0  0  0  0  0  0  0  0  0
    0.8232    1.4331    7.1966 C   0  0  0  0  0  0  0  0  0  0  0  0
    1.4450    0.1055    6.6515 C   0  0  2  0  0  0  0  0  0  0  0  0
    3.0095    0.1223    6.6123 C   0  0  0  0  0  0  0  0  0  0  0  0
    3.6508   -1.2925    6.8871 C   0  0  0  0  0  0  0  0  0  0  0  0
    3.7725    0.8521    7.7683 C   0  0  0  0  0  0  0  0  0  0  0  0
   -1.1168    2.4067    5.7902 C   0  0  0  0  0  0  0  0  0  0  0  0
   -1.7828    3.7377    5.3196 C   0  0  0  0  0  0  0  0  0  0  0  0
   -2.1205    1.9386    6.8926 C   0  0  0  0  0  0  0  0  0  0  0  0
    3.4208    4.8466    6.8813 H   0  0  0  0  0  0  0  0  0  0  0  0
    4.3424    3.3913    7.0574 H   0  0  0  0  0  0  0  0  0  0  0  0
    2.6399    3.5381    7.6062 H   0  0  0  0  0  0  0  0  0  0  0  0
    3.0843    5.4071    4.7302 H   0  0  0  0  0  0  0  0  0  0  0  0
    3.4098    4.2619    3.4546 H   0  0  0  0  0  0  0  0  0  0  0  0
    4.5753    4.4845    4.7211 H   0  0  0  0  0  0  0  0  0  0  0  0
    3.6065    2.1144    3.7785 H   0  0  0  0  0  0  0  0  0  0  0  0
    3.9482   -1.1696    4.2835 H   0  0  0  0  0  0  0  0  0  0  0  0
    2.7490    0.8433    2.4286 H   0  0  0  0  0  0  0  0  0  0  0  0
    5.0471   -0.7669    2.2737 H   0  0  0  0  0  0  0  0  0  0  0  0
    2.1422   -0.6438    0.9160 H   0  0  0  0  0  0  0  0  0  0  0  0
    2.3674   -2.6887   -0.5606 H   0  0  0  0  0  0  0  0  0  0  0  0
    3.8777   -5.0237   -0.2485 H   0  0  0  0  0  0  0  0  0  0  0  0
    0.5814   -0.5081    2.4932 H   0  0  0  0  0  0  0  0  0  0  0  0
    0.6785   -2.2031    2.5228 H   0  0  0  0  0  0  0  0  0  0  0  0
    1.0270   -3.3475    4.2779 H   0  0  0  0  0  0  0  0  0  0  0  0
    1.8384   -2.9450    5.7470 H   0  0  0  0  0  0  0  0  0  0  0  0
    2.7805   -3.2247    4.3167 H   0  0  0  0  0  0  0  0  0  0  0  0
    0.3898   -1.4708    5.8856 H   0  0  0  0  0  0  0  0  0  0  0  0
   -0.8784   -0.6016    3.9654 H   0  0  0  0  0  0  0  0  0  0  0  0
   -2.5350   -0.5226    5.1742 H   0  0  0  0  0  0  0  0  0  0  0  0
   -1.9682    1.4177    4.1278 H   0  0  0  0  0  0  0  0  0  0  0  0
    0.8303    1.2377    3.4815 H   0  0  0  0  0  0  0  0  0  0  0  0
   -0.1855    2.6648    1.7132 H   0  0  0  0  0  0  0  0  0  0  0  0
    1.6898    3.1391    3.1247 H   0  0  0  0  0  0  0  0  0  0  0  0
    0.2104    4.4243    2.3336 H   0  0  0  0  0  0  0  0  0  0  0  0
    1.1092    4.4330    5.5011 H   0  0  0  0  0  0  0  0  0  0  0  0
    0.1896    3.3990    7.0909 H   0  0  0  0  0  0  0  0  0  0  0  0
    1.4118    1.8460    7.9964 H   0  0  0  0  0  0  0  0  0  0  0  0
    0.0160    1.1019    7.8334 H   0  0  0  0  0  0  0  0  0  0  0  0
    1.2450   -0.5756    7.4839 H   0  0  0  0  0  0  0  0  0  0  0  0
    3.1424   -1.8009    7.7083 H   0  0  0  0  0  0  0  0  0  0  0  0
    4.7066   -1.2241    7.1735 H   0  0  0  0  0  0  0  0  0  0  0  0
    3.6948   -2.0098    6.0883 H   0  0  0  0  0  0  0  0  0  0  0  0
    3.8718    0.2219    8.6558 H   0  0  0  0  0  0  0  0  0  0  0  0
    3.3565    1.7383    8.1927 H   0  0  0  0  0  0  0  0  0  0  0  0
    4.7884    1.0996    7.4575 H   0  0  0  0  0  0  0  0  0  0  0  0
   -2.7377    3.9392    5.8076 H   0  0  0  0  0  0  0  0  0  0  0  0
   -2.0100    3.7266    4.2536 H   0  0  0  0  0  0  0  0  0  0  0  0
   -1.1568    4.6051    5.5215 H   0  0  0  0  0  0  0  0  0  0  0  0
   -2.1872    2.6618    7.7068 H   0  0  0  0  0  0  0  0  0  0  0  0
   -1.9201    0.9775    7.3490 H   0  0  0  0  0  0  0  0  0  0  0  0
   -3.1249    1.8448    6.4869 H   0  0  0  0  0  0  0  0  0  0  0  0
  1  2  1  0
  1 36  1  0
  1 37  1  0
  1 38  1  0
  2 26  1  0
  2  3  1  0
  2  4  1  0
  3 39  1  0
  3 40  1  0
  3 41  1  0
  4  5  2  3
  4 42  1  0
  5 30  1  0
  5  6  1  0
  6 16  1  0
  6  7  1  0
  6 43  1  1
  7  8  1  0
  7  9  1  0
  7 44  1  1
  8 45  1  0
  9 10  1  0
  9 15  1  0
  9 46  1  6
 10 14  1  0
 10 11  1  0
 11 12  2  0
 11 47  1  0
 12 13  1  0
 12 48  1  0
 13 14  2  0
 15 16  1  0
 15 49  1  0
 15 50  1  0
 16 17  1  1
 16 18  1  0
 17 51  1  0
 17 52  1  0
 17 53  1  0
 18 29  1  0
 18 19  1  0
 18 54  1  1
 19 20  1  0
 19 21  1  0
 19 55  1  6
 20 56  1  0
 21 33  1  0
 21 22  1  0
 21 57  1  6
 22 23  1  0
 22 24  1  0
 22 58  1  6
 23 59  1  0
 24 25  1  0
 24 26  1  0
 24 60  1  6
 25 61  1  0
 26 27  1  0
 26 62  1  1
 27 28  1  0
 27 33  1  0
 27 63  1  1
 28 29  1  0
 28 64  1  0
 28 65  1  0
 29 30  1  0
 29 66  1  1
 30 31  1  0
 30 32  1  0
 31 67  1  0
 31 68  1  0
 31 69  1  0
 32 70  1  0
 32 71  1  0
 32 72  1  0
 33 34  1  0
 33 35  1  0
 34 73  1  0
 34 74  1  0
 34 75  1  0
 35 76  1  0
 35 77  1  0
 35 78  1  0
M  END
>  <i_m_ct_stereo_status>  (248) 
1

>  <s_m_source_file>  (248) 
/var/tmp/pbs.5076255.sched01/tmpinim70aj/80j3ziidn5.sdf

>  <i_m_source_file_index>  (248) 
23

>  <i_lp_mmshare_version>  (248) 
48012

>  <i_f3d_flags>  (248) 
0

>  <s_epik_input>  (248) 
W09IXVtDQEBIXTFbQ0BIXShbT0hdKVtDQEhdKEMyKFtDSDNdKVtDSDNdKVtDQEhdKFtPSF0pW0NAQEhdM1tDQEBIXShDNChbQ0gzXSlbQ0gzXSlbQ0gyXVtDQEhdMltDQEhdMUMoW0NIM10pKFtDSDNdKS9bQ0hdPUM0L1tDQEBIXShbQ0BAXTM1W0NIM10pW0NAQEhdKFtPSF0pW0NASF0oW0NIMl01KW42W2NIXVtjSF1ubjY=

>  <s_epik_cmdline>  (248) 
J2VwaWtfcHl0aG9uJywgJy1waHQnLCAnMi4wJywgJy1waCcsICc3LjAnLCAnLXRuJywgJzgnLCAnLW1hJywgJzIwMCcsICctaW1hZScsICc8aW5maWxlLm1hZT4nLCAnLW9tYWUnLCAnPG91dGZpbGUubWFlPic=

>  <r_lp_tautomer_probability>  (248) 
1

>  <r_epik_Ionization_Penalty>  (248) 
0.000146968

>  <r_epik_Ionization_Penalty_Charging>  (248) 
0

>  <r_epik_Ionization_Penalty_Neutral>  (248) 
0.000146968

>  <r_epik_State_Penalty>  (248) 
-0

>  <r_epik_Charging_Adjusted_Penalty>  (248) 
0

>  <i_epik_Tot_Q>  (248) 
0

>  <i_epik_Tot_abs_Q>  (248) 
0

>  <s_lp_Force_Field>  (248) 
OPLS3e

>  <r_lp_Energy>  (248) 
175.991

>  <b_lp_Chiralities_Consistent>  (248) 
1

>  <s_lp_Variant>  (248) 
79:0-1

>  <s_i_glide_gridfile>  (248) 
pfpi4k_grid

>  <i_i_glide_lignum>  (248) 
23

>  <i_i_glide_rotatable_bonds>  (248) 
5

>  <r_i_docking_score>  (248) 
-3.3071

>  <r_i_glide_ligand_efficiency>  (248) 
-0.0944886

>  <r_i_glide_ligand_efficiency_sa>  (248) 
-0.309079

>  <r_i_glide_ligand_efficiency_ln>  (248) 
-0.725982

>  <r_i_glide_gscore>  (248) 
-3.3071

>  <r_i_glide_lipo>  (248) 
-0.0130339

>  <r_i_glide_hbond>  (248) 
-0.0898087

>  <r_i_glide_metal>  (248) 
-0

>  <r_i_glide_rewards>  (248) 
-0.0977815

>  <r_i_glide_evdw>  (248) 
-24.8987

>  <r_i_glide_ecoul>  (248) 
-12.8929

>  <r_i_glide_erotb>  (248) 
0.0861371

>  <r_i_glide_esite>  (248) 
-0.013747

>  <r_i_glide_emodel>  (248) 
-45.3034

>  <r_i_glide_energy>  (248) 
-37.7916

>  <r_i_glide_einternal>  (248) 
2.28659

>  <r_i_glide_intrahb_reward>  (248) 
-0

>  <i_i_glide_confnum>  (248) 
2

>  <i_i_glide_posenum>  (248) 
13

>  <r_i_glide_eff_state_penalty>  (248) 
0

>  <ligand_id>  (248) 
79

>  <original_smiles>  (248) 
CC1(C)C=C2C3C(O)C(n4ccnn4)CC3(C)C3C(O)C4C(O)C(O)C1C(CC3C2(C)C)C4(C)C

>  <smiles>  (248) 
[H]OC1([H])C2([H])C3=C([H])C(C([H])([H])[H])(C([H])([H])[H])C4([H])C([H])(O[H])C([H])(O[H])C5([H])C([H])(O[H])C([H])(C([H])(C([H])([H])C4([H])C5(C([H])([H])[H])C([H])([H])[H])C3(C([H])([H])[H])C([H])([H])[H])C2(C([H])([H])[H])C([H])([H])C1([H])n1nnc([H])c1[H]

$$$$
79:1:0
     RDKit          3D

 78 83  0  0  1  0  0  0  0  0999 V2000
    2.5517    4.8241    6.1008 C   0  0  0  0  0  0  0  0  0  0  0  0
    2.3096    3.4818    5.3437 C   0  0  0  0  0  0  0  0  0  0  0  0
    3.0084    3.7636    4.0004 C   0  0  0  0  0  0  0  0  0  0  0  0
    3.0651    2.4281    6.1980 C   0  0  0  0  0  0  0  0  0  0  0  0
    3.1858    1.0679    6.1718 C   0  0  0  0  0  0  0  0  0  0  0  0
    3.2868    0.0906    4.9896 C   0  0  2  0  0  0  0  0  0  0  0  0
    4.0417    0.5416    3.7101 C   0  0  1  0  0  0  0  0  0  0  0  0
    5.2713   -0.1503    3.5240 O   0  0  0  0  0  0  0  0  0  0  0  0
    3.0511    0.3666    2.5268 C   0  0  1  0  0  0  0  0  0  0  0  0
    3.3995   -0.6148    1.4920 N   0  0  0  0  0  0  0  0  0  0  0  0
    2.9168   -1.8843    1.2444 C   0  0  0  0  0  0  0  0  0  0  0  0
    3.5745   -2.2881    0.1301 C   0  0  0  0  0  0  0  0  0  0  0  0
    4.4188   -1.2585   -0.2817 N   0  0  0  0  0  0  0  0  0  0  0  0
    4.3276   -0.2709    0.5504 N   0  0  0  0  0  0  0  0  0  0  0  0
    1.7149    0.0983    3.2370 C   0  0  0  0  0  0  0  0  0  0  0  0
    1.9203   -0.5422    4.6219 C   0  0  1  0  0  0  0  0  0  0  0  0
    2.0509   -2.0807    4.3912 C   0  0  0  0  0  0  0  0  0  0  0  0
    0.7557   -0.2637    5.6910 C   0  0  2  0  0  0  0  0  0  0  0  0
   -0.7034   -0.1342    5.0897 C   0  0  1  0  0  0  0  0  0  0  0  0
   -1.5806   -1.0447    5.7450 O   0  0  0  0  0  0  0  0  0  0  0  0
   -1.4451    1.2381    4.8695 C   0  0  2  0  0  0  0  0  0  0  0  0
   -1.0166    2.0207    3.5967 C   0  0  1  0  0  0  0  0  0  0  0  0
   -2.1830    2.5051    2.9453 O   0  0  0  0  0  0  0  0  0  0  0  0
    0.0590    3.1445    3.8006 C   0  0  1  0  0  0  0  0  0  0  0  0
   -0.3761    4.4047    3.2950 O   0  0  0  0  0  0  0  0  0  0  0  0
    0.7008    3.2920    5.2450 C   0  0  1  0  0  0  0  0  0  0  0  0
   -0.1491    2.6708    6.4546 C   0  0  2  0  0  0  0  0  0  0  0  0
    0.5241    1.7496    7.4960 C   0  0  0  0  0  0  0  0  0  0  0  0
    1.1313    0.3588    7.1183 C   0  0  2  0  0  0  0  0  0  0  0  0
    2.6745    0.3193    7.4186 C   0  0  0  0  0  0  0  0  0  0  0  0
    3.1742   -1.1461    7.6039 C   0  0  0  0  0  0  0  0  0  0  0  0
    3.1255    0.9145    8.7962 C   0  0  0  0  0  0  0  0  0  0  0  0
   -1.5778    2.1806    6.0875 C   0  0  0  0  0  0  0  0  0  0  0  0
   -2.5006    3.3865    5.7951 C   0  0  0  0  0  0  0  0  0  0  0  0
   -2.3321    1.4863    7.2471 C   0  0  0  0  0  0  0  0  0  0  0  0
    2.1693    5.6839    5.5473 H   0  0  0  0  0  0  0  0  0  0  0  0
    3.6168    5.0074    6.2541 H   0  0  0  0  0  0  0  0  0  0  0  0
    2.0774    4.8402    7.0839 H   0  0  0  0  0  0  0  0  0  0  0  0
    2.6151    4.6612    3.5205 H   0  0  0  0  0  0  0  0  0  0  0  0
    2.8817    2.9694    3.2851 H   0  0  0  0  0  0  0  0  0  0  0  0
    4.0809    3.9089    4.1372 H   0  0  0  0  0  0  0  0  0  0  0  0
    3.0845    2.8304    7.1892 H   0  0  0  0  0  0  0  0  0  0  0  0
    3.9342   -0.7012    5.3452 H   0  0  0  0  0  0  0  0  0  0  0  0
    4.3471    1.5752    3.8257 H   0  0  0  0  0  0  0  0  0  0  0  0
    5.0799   -1.0542    3.3281 H   0  0  0  0  0  0  0  0  0  0  0  0
    2.9697    1.3168    1.9901 H   0  0  0  0  0  0  0  0  0  0  0  0
    2.1290   -2.3897    1.7981 H   0  0  0  0  0  0  0  0  0  0  0  0
    3.4584   -3.1992   -0.4208 H   0  0  0  0  0  0  0  0  0  0  0  0
    1.3671    1.0778    3.4832 H   0  0  0  0  0  0  0  0  0  0  0  0
    0.9805   -0.3781    2.5905 H   0  0  0  0  0  0  0  0  0  0  0  0
    1.2554   -2.4303    3.7375 H   0  0  0  0  0  0  0  0  0  0  0  0
    1.9494   -2.7110    5.2740 H   0  0  0  0  0  0  0  0  0  0  0  0
    3.0155   -2.3380    3.9552 H   0  0  0  0  0  0  0  0  0  0  0  0
    0.6640   -1.2717    6.0777 H   0  0  0  0  0  0  0  0  0  0  0  0
   -0.6701   -0.5972    4.1042 H   0  0  0  0  0  0  0  0  0  0  0  0
   -1.2269   -1.9173    5.6417 H   0  0  0  0  0  0  0  0  0  0  0  0
   -2.4616    0.9115    4.6427 H   0  0  0  0  0  0  0  0  0  0  0  0
   -0.6451    1.3107    2.8620 H   0  0  0  0  0  0  0  0  0  0  0  0
   -2.7245    1.7589    2.7233 H   0  0  0  0  0  0  0  0  0  0  0  0
    0.8169    2.9562    3.0527 H   0  0  0  0  0  0  0  0  0  0  0  0
   -0.2313    4.4069    2.3388 H   0  0  0  0  0  0  0  0  0  0  0  0
    0.3922    4.3239    5.4150 H   0  0  0  0  0  0  0  0  0  0  0  0
   -0.3455    3.5359    7.0902 H   0  0  0  0  0  0  0  0  0  0  0  0
    1.2267    2.3940    7.9964 H   0  0  0  0  0  0  0  0  0  0  0  0
   -0.1328    1.5910    8.3497 H   0  0  0  0  0  0  0  0  0  0  0  0
    0.6913   -0.3102    7.8605 H   0  0  0  0  0  0  0  0  0  0  0  0
    2.8300   -1.5728    8.5484 H   0  0  0  0  0  0  0  0  0  0  0  0
    4.2648   -1.2037    7.6035 H   0  0  0  0  0  0  0  0  0  0  0  0
    2.8197   -1.8374    6.8587 H   0  0  0  0  0  0  0  0  0  0  0  0
    2.6528    0.3752    9.6195 H   0  0  0  0  0  0  0  0  0  0  0  0
    2.9281    1.9611    8.9981 H   0  0  0  0  0  0  0  0  0  0  0  0
    4.2032    0.7971    8.9246 H   0  0  0  0  0  0  0  0  0  0  0  0
   -2.0673    4.1022    5.1043 H   0  0  0  0  0  0  0  0  0  0  0  0
   -2.7175    3.9480    6.7052 H   0  0  0  0  0  0  0  0  0  0  0  0
   -3.4550    3.0703    5.3725 H   0  0  0  0  0  0  0  0  0  0  0  0
   -2.4526    2.1379    8.1164 H   0  0  0  0  0  0  0  0  0  0  0  0
   -1.8270    0.5878    7.5841 H   0  0  0  0  0  0  0  0  0  0  0  0
   -3.3297    1.1886    6.9254 H   0  0  0  0  0  0  0  0  0  0  0  0
  1  2  1  0
  1 36  1  0
  1 37  1  0
  1 38  1  0
  2 26  1  0
  2  3  1  0
  2  4  1  0
  3 39  1  0
  3 40  1  0
  3 41  1  0
  4  5  2  3
  4 42  1  0
  5 30  1  0
  5  6  1  0
  6 16  1  0
  6  7  1  0
  6 43  1  1
  7  8  1  0
  7  9  1  0
  7 44  1  1
  8 45  1  0
  9 10  1  0
  9 15  1  0
  9 46  1  6
 10 14  1  0
 10 11  1  0
 11 12  2  0
 11 47  1  0
 12 13  1  0
 12 48  1  0
 13 14  2  0
 15 16  1  0
 15 49  1  0
 15 50  1  0
 16 17  1  6
 16 18  1  0
 17 51  1  0
 17 52  1  0
 17 53  1  0
 18 29  1  0
 18 19  1  0
 18 54  1  1
 19 20  1  0
 19 21  1  0
 19 55  1  6
 20 56  1  0
 21 33  1  0
 21 22  1  0
 21 57  1  6
 22 23  1  0
 22 24  1  0
 22 58  1  6
 23 59  1  0
 24 25  1  0
 24 26  1  0
 24 60  1  6
 25 61  1  0
 26 27  1  0
 26 62  1  1
 27 28  1  0
 27 33  1  0
 27 63  1  1
 28 29  1  0
 28 64  1  0
 28 65  1  0
 29 30  1  0
 29 66  1  1
 30 31  1  0
 30 32  1  0
 31 67  1  0
 31 68  1  0
 31 69  1  0
 32 70  1  0
 32 71  1  0
 32 72  1  0
 33 34  1  0
 33 35  1  0
 34 73  1  0
 34 74  1  0
 34 75  1  0
 35 76  1  0
 35 77  1  0
 35 78  1  0
M  END
>  <i_m_ct_stereo_status>  (249) 
1

>  <s_m_source_file>  (249) 
/var/tmp/pbs.5076255.sched01/tmpinim70aj/80j3ziidn5.sdf

>  <i_m_source_file_index>  (249) 
24

>  <i_lp_mmshare_version>  (249) 
48012

>  <i_f3d_flags>  (249) 
0

>  <s_epik_input>  (249) 
W09IXVtDQEBIXTFbQ0BIXShbT0hdKVtDQEhdKEMyKFtDSDNdKVtDSDNdKVtDQEhdKFtPSF0pW0NAQEhdM1tDQEBIXShDNChbQ0gzXSlbQ0gzXSlbQ0gyXVtDQEhdMltDQEhdMUMoW0NIM10pKFtDSDNdKS9bQ0hdPUM0L1tDQEBIXShbQ0BAXTM1W0NIM10pW0NAQEhdKFtPSF0pW0NASF0oW0NIMl01KW42W2NIXVtjSF1ubjY=

>  <s_epik_cmdline>  (249) 
J2VwaWtfcHl0aG9uJywgJy1waHQnLCAnMi4wJywgJy1waCcsICc3LjAnLCAnLXRuJywgJzgnLCAnLW1hJywgJzIwMCcsICctaW1hZScsICc8aW5maWxlLm1hZT4nLCAnLW9tYWUnLCAnPG91dGZpbGUubWFlPic=

>  <r_lp_tautomer_probability>  (249) 
1

>  <r_epik_Ionization_Penalty>  (249) 
0.000146968

>  <r_epik_Ionization_Penalty_Charging>  (249) 
0

>  <r_epik_Ionization_Penalty_Neutral>  (249) 
0.000146968

>  <r_epik_State_Penalty>  (249) 
-0

>  <r_epik_Charging_Adjusted_Penalty>  (249) 
0

>  <i_epik_Tot_Q>  (249) 
0

>  <i_epik_Tot_abs_Q>  (249) 
0

>  <s_lp_Force_Field>  (249) 
OPLS3e

>  <r_lp_Energy>  (249) 
182.461

>  <b_lp_Chiralities_Consistent>  (249) 
1

>  <s_lp_Variant>  (249) 
79:0-2

>  <s_i_glide_gridfile>  (249) 
pfpi4k_grid

>  <i_i_glide_lignum>  (249) 
24

>  <i_i_glide_rotatable_bonds>  (249) 
5

>  <r_i_docking_score>  (249) 
-3.48502

>  <r_i_glide_ligand_efficiency>  (249) 
-0.0995721

>  <r_i_glide_ligand_efficiency_sa>  (249) 
-0.325707

>  <r_i_glide_ligand_efficiency_ln>  (249) 
-0.76504

>  <r_i_glide_gscore>  (249) 
-3.48502

>  <r_i_glide_lipo>  (249) 
-0.0662123

>  <r_i_glide_hbond>  (249) 
-0.0198062

>  <r_i_glide_metal>  (249) 
-0

>  <r_i_glide_rewards>  (249) 
-0.0977815

>  <r_i_glide_evdw>  (249) 
-28.8064

>  <r_i_glide_ecoul>  (249) 
-12.6658

>  <r_i_glide_erotb>  (249) 
0.0861371

>  <r_i_glide_esite>  (249) 
-0.0471722

>  <r_i_glide_emodel>  (249) 
-49.071

>  <r_i_glide_energy>  (249) 
-41.4722

>  <r_i_glide_einternal>  (249) 
2.36532

>  <r_i_glide_intrahb_reward>  (249) 
-0

>  <i_i_glide_confnum>  (249) 
1

>  <i_i_glide_posenum>  (249) 
14

>  <r_i_glide_eff_state_penalty>  (249) 
0

>  <ligand_id>  (249) 
79

>  <original_smiles>  (249) 
CC1(C)C=C2C3C(O)C(n4ccnn4)CC3(C)C3C(O)C4C(O)C(O)C1C(CC3C2(C)C)C4(C)C

>  <smiles>  (249) 
[H]OC1([H])C2([H])C3=C([H])C(C([H])([H])[H])(C([H])([H])[H])C4([H])C([H])(O[H])C([H])(O[H])C5([H])C([H])(O[H])C([H])(C([H])(C([H])([H])C4([H])C5(C([H])([H])[H])C([H])([H])[H])C3(C([H])([H])[H])C([H])([H])[H])C2(C([H])([H])[H])C([H])([H])C1([H])n1nnc([H])c1[H]

$$$$
79:1:1
     RDKit          3D

 78 83  0  0  1  0  0  0  0  0999 V2000
    2.6161    4.7884    6.1048 C   0  0  0  0  0  0  0  0  0  0  0  0
    2.3723    3.4479    5.3456 C   0  0  0  0  0  0  0  0  0  0  0  0
    3.0663    3.7311    4.0036 C   0  0  0  0  0  0  0  0  0  0  0  0
    3.1302    2.3948    6.2014 C   0  0  0  0  0  0  0  0  0  0  0  0
    3.2494    1.0342    6.1754 C   0  0  0  0  0  0  0  0  0  0  0  0
    3.3555    0.0638    4.9903 C   0  0  2  0  0  0  0  0  0  0  0  0
    4.1101    0.5169    3.7144 C   0  0  1  0  0  0  0  0  0  0  0  0
    5.3101   -0.2126    3.5316 O   0  0  0  0  0  0  0  0  0  0  0  0
    3.1217    0.3406    2.5375 C   0  0  1  0  0  0  0  0  0  0  0  0
    3.4651   -0.6354    1.4902 N   0  0  0  0  0  0  0  0  0  0  0  0
    3.0138   -1.9239    1.2629 C   0  0  0  0  0  0  0  0  0  0  0  0
    3.6649   -2.3091    0.1286 C   0  0  0  0  0  0  0  0  0  0  0  0
    4.4687   -1.2659   -0.3154 N   0  0  0  0  0  0  0  0  0  0  0  0
    4.3648   -0.2761    0.5242 N   0  0  0  0  0  0  0  0  0  0  0  0
    1.7867    0.0632    3.2358 C   0  0  0  0  0  0  0  0  0  0  0  0
    1.9893   -0.5734    4.6203 C   0  0  1  0  0  0  0  0  0  0  0  0
    2.1188   -2.1132    4.3854 C   0  0  0  0  0  0  0  0  0  0  0  0
    0.8216   -0.2994    5.6880 C   0  0  2  0  0  0  0  0  0  0  0  0
   -0.6371   -0.1679    5.0864 C   0  0  1  0  0  0  0  0  0  0  0  0
   -1.5124   -1.0752    5.7449 O   0  0  0  0  0  0  0  0  0  0  0  0
   -1.3816    1.2040    4.8639 C   0  0  2  0  0  0  0  0  0  0  0  0
   -0.9489    1.9832    3.5886 C   0  0  1  0  0  0  0  0  0  0  0  0
   -2.1089    2.4670    2.9261 O   0  0  0  0  0  0  0  0  0  0  0  0
    0.1238    3.1085    3.7964 C   0  0  1  0  0  0  0  0  0  0  0  0
   -0.3157    4.3656    3.2927 O   0  0  0  0  0  0  0  0  0  0  0  0
    0.7625    3.2595    5.2431 C   0  0  1  0  0  0  0  0  0  0  0  0
   -0.0869    2.6363    6.4513 C   0  0  2  0  0  0  0  0  0  0  0  0
    0.5891    1.7129    7.4932 C   0  0  0  0  0  0  0  0  0  0  0  0
    1.1971    0.3214    7.1160 C   0  0  2  0  0  0  0  0  0  0  0  0
    2.7411    0.2795    7.4212 C   0  0  0  0  0  0  0  0  0  0  0  0
    3.2412   -1.1869    7.6011 C   0  0  0  0  0  0  0  0  0  0  0  0
    3.1902    0.8761    8.7982 C   0  0  0  0  0  0  0  0  0  0  0  0
   -1.5168    2.1472    6.0843 C   0  0  0  0  0  0  0  0  0  0  0  0
   -2.4368    3.3567    5.7875 C   0  0  0  0  0  0  0  0  0  0  0  0
   -2.2679    1.4523    7.2450 C   0  0  0  0  0  0  0  0  0  0  0  0
    2.2343    5.6492    5.5515 H   0  0  0  0  0  0  0  0  0  0  0  0
    3.6815    4.9718    6.2583 H   0  0  0  0  0  0  0  0  0  0  0  0
    2.1420    4.8047    7.0878 H   0  0  0  0  0  0  0  0  0  0  0  0
    2.6740    4.6305    3.5241 H   0  0  0  0  0  0  0  0  0  0  0  0
    2.9423    2.9366    3.2871 H   0  0  0  0  0  0  0  0  0  0  0  0
    4.1381    3.8759    4.1427 H   0  0  0  0  0  0  0  0  0  0  0  0
    3.1490    2.7934    7.1918 H   0  0  0  0  0  0  0  0  0  0  0  0
    3.9956   -0.7366    5.3447 H   0  0  0  0  0  0  0  0  0  0  0  0
    4.4262    1.5512    3.8272 H   0  0  0  0  0  0  0  0  0  0  0  0
    5.9001    0.0319    4.2285 H   0  0  0  0  0  0  0  0  0  0  0  0
    3.0390    1.2822    1.9963 H   0  0  0  0  0  0  0  0  0  0  0  0
    2.2646   -2.4540    1.8552 H   0  0  0  0  0  0  0  0  0  0  0  0
    3.5709   -3.2359   -0.4068 H   0  0  0  0  0  0  0  0  0  0  0  0
    1.4362    1.0402    3.4776 H   0  0  0  0  0  0  0  0  0  0  0  0
    1.0568   -0.4154    2.5847 H   0  0  0  0  0  0  0  0  0  0  0  0
    1.3418   -2.4571    3.7054 H   0  0  0  0  0  0  0  0  0  0  0  0
    2.0099   -2.7468    5.2674 H   0  0  0  0  0  0  0  0  0  0  0  0
    3.0900   -2.3690    3.9620 H   0  0  0  0  0  0  0  0  0  0  0  0
    0.7302   -1.3087    6.0731 H   0  0  0  0  0  0  0  0  0  0  0  0
   -0.6028   -0.6319    4.1018 H   0  0  0  0  0  0  0  0  0  0  0  0
   -1.1692   -1.9505    5.6278 H   0  0  0  0  0  0  0  0  0  0  0  0
   -2.3976    0.8776    4.6381 H   0  0  0  0  0  0  0  0  0  0  0  0
   -0.5706    1.2709    2.8582 H   0  0  0  0  0  0  0  0  0  0  0  0
   -2.6486    1.7212    2.6918 H   0  0  0  0  0  0  0  0  0  0  0  0
    0.8838    2.9226    3.0501 H   0  0  0  0  0  0  0  0  0  0  0  0
   -0.2053    4.3523    2.3204 H   0  0  0  0  0  0  0  0  0  0  0  0
    0.4539    4.2924    5.4085 H   0  0  0  0  0  0  0  0  0  0  0  0
   -0.2811    3.4996    7.0898 H   0  0  0  0  0  0  0  0  0  0  0  0
    1.2914    2.3557    7.9955 H   0  0  0  0  0  0  0  0  0  0  0  0
   -0.0655    1.5536    8.3476 H   0  0  0  0  0  0  0  0  0  0  0  0
    0.7568   -0.3484    7.8566 H   0  0  0  0  0  0  0  0  0  0  0  0
    2.8955   -1.6127    8.5436 H   0  0  0  0  0  0  0  0  0  0  0  0
    4.3306   -1.2423    7.6012 H   0  0  0  0  0  0  0  0  0  0  0  0
    2.8862   -1.8749    6.8540 H   0  0  0  0  0  0  0  0  0  0  0  0
    2.7166    0.3359    9.6183 H   0  0  0  0  0  0  0  0  0  0  0  0
    2.9913    1.9227    8.9990 H   0  0  0  0  0  0  0  0  0  0  0  0
    4.2672    0.7587    8.9260 H   0  0  0  0  0  0  0  0  0  0  0  0
   -2.0008    4.0724    5.0977 H   0  0  0  0  0  0  0  0  0  0  0  0
   -2.6549    3.9150    6.6992 H   0  0  0  0  0  0  0  0  0  0  0  0
   -3.3892    3.0367    5.3647 H   0  0  0  0  0  0  0  0  0  0  0  0
   -2.3956    2.1118    8.1079 H   0  0  0  0  0  0  0  0  0  0  0  0
   -1.7625    0.5512    7.5849 H   0  0  0  0  0  0  0  0  0  0  0  0
   -3.2600    1.1473    6.9188 H   0  0  0  0  0  0  0  0  0  0  0  0
  1  2  1  0
  1 36  1  0
  1 37  1  0
  1 38  1  0
  2 26  1  0
  2  3  1  0
  2  4  1  0
  3 39  1  0
  3 40  1  0
  3 41  1  0
  4  5  2  3
  4 42  1  0
  5 30  1  0
  5  6  1  0
  6 16  1  0
  6  7  1  0
  6 43  1  1
  7  8  1  0
  7  9  1  0
  7 44  1  1
  8 45  1  0
  9 10  1  0
  9 15  1  0
  9 46  1  6
 10 14  1  0
 10 11  1  0
 11 12  2  0
 11 47  1  0
 12 13  1  0
 12 48  1  0
 13 14  2  0
 15 16  1  0
 15 49  1  0
 15 50  1  0
 16 17  1  6
 16 18  1  0
 17 51  1  0
 17 52  1  0
 17 53  1  0
 18 29  1  0
 18 19  1  0
 18 54  1  1
 19 20  1  0
 19 21  1  0
 19 55  1  6
 20 56  1  0
 21 33  1  0
 21 22  1  0
 21 57  1  6
 22 23  1  0
 22 24  1  0
 22 58  1  6
 23 59  1  0
 24 25  1  0
 24 26  1  0
 24 60  1  6
 25 61  1  0
 26 27  1  0
 26 62  1  1
 27 28  1  0
 27 33  1  0
 27 63  1  1
 28 29  1  0
 28 64  1  0
 28 65  1  0
 29 30  1  0
 29 66  1  1
 30 31  1  0
 30 32  1  0
 31 67  1  0
 31 68  1  0
 31 69  1  0
 32 70  1  0
 32 71  1  0
 32 72  1  0
 33 34  1  0
 33 35  1  0
 34 73  1  0
 34 74  1  0
 34 75  1  0
 35 76  1  0
 35 77  1  0
 35 78  1  0
M  END
>  <i_m_ct_stereo_status>  (250) 
1

>  <s_m_source_file>  (250) 
/var/tmp/pbs.5076255.sched01/tmpinim70aj/80j3ziidn5.sdf

>  <i_m_source_file_index>  (250) 
24

>  <i_lp_mmshare_version>  (250) 
48012

>  <i_f3d_flags>  (250) 
0

>  <s_epik_input>  (250) 
W09IXVtDQEBIXTFbQ0BIXShbT0hdKVtDQEhdKEMyKFtDSDNdKVtDSDNdKVtDQEhdKFtPSF0pW0NAQEhdM1tDQEBIXShDNChbQ0gzXSlbQ0gzXSlbQ0gyXVtDQEhdMltDQEhdMUMoW0NIM10pKFtDSDNdKS9bQ0hdPUM0L1tDQEBIXShbQ0BAXTM1W0NIM10pW0NAQEhdKFtPSF0pW0NASF0oW0NIMl01KW42W2NIXVtjSF1ubjY=

>  <s_epik_cmdline>  (250) 
J2VwaWtfcHl0aG9uJywgJy1waHQnLCAnMi4wJywgJy1waCcsICc3LjAnLCAnLXRuJywgJzgnLCAnLW1hJywgJzIwMCcsICctaW1hZScsICc8aW5maWxlLm1hZT4nLCAnLW9tYWUnLCAnPG91dGZpbGUubWFlPic=

>  <r_lp_tautomer_probability>  (250) 
1

>  <r_epik_Ionization_Penalty>  (250) 
0.000146968

>  <r_epik_Ionization_Penalty_Charging>  (250) 
0

>  <r_epik_Ionization_Penalty_Neutral>  (250) 
0.000146968

>  <r_epik_State_Penalty>  (250) 
-0

>  <r_epik_Charging_Adjusted_Penalty>  (250) 
0

>  <i_epik_Tot_Q>  (250) 
0

>  <i_epik_Tot_abs_Q>  (250) 
0

>  <s_lp_Force_Field>  (250) 
OPLS3e

>  <r_lp_Energy>  (250) 
182.461

>  <b_lp_Chiralities_Consistent>  (250) 
1

>  <s_lp_Variant>  (250) 
79:0-2

>  <s_i_glide_gridfile>  (250) 
pfpi4k_grid

>  <i_i_glide_lignum>  (250) 
24

>  <i_i_glide_rotatable_bonds>  (250) 
5

>  <r_i_docking_score>  (250) 
-3.39051

>  <r_i_glide_ligand_efficiency>  (250) 
-0.0968717

>  <r_i_glide_ligand_efficiency_sa>  (250) 
-0.316874

>  <r_i_glide_ligand_efficiency_ln>  (250) 
-0.744292

>  <r_i_glide_gscore>  (250) 
-3.39051

>  <r_i_glide_lipo>  (250) 
-0.0693236

>  <r_i_glide_hbond>  (250) 
-0.0129205

>  <r_i_glide_metal>  (250) 
-0

>  <r_i_glide_rewards>  (250) 
-0.0977815

>  <r_i_glide_evdw>  (250) 
-28.8244

>  <r_i_glide_ecoul>  (250) 
-12.0753

>  <r_i_glide_erotb>  (250) 
0.0861371

>  <r_i_glide_esite>  (250) 
-0.0441066

>  <r_i_glide_emodel>  (250) 
-48.1223

>  <r_i_glide_energy>  (250) 
-40.8997

>  <r_i_glide_einternal>  (250) 
2.47284

>  <r_i_glide_intrahb_reward>  (250) 
-0

>  <i_i_glide_confnum>  (250) 
2

>  <i_i_glide_posenum>  (250) 
7

>  <r_i_glide_eff_state_penalty>  (250) 
0

>  <ligand_id>  (250) 
79

>  <original_smiles>  (250) 
CC1(C)C=C2C3C(O)C(n4ccnn4)CC3(C)C3C(O)C4C(O)C(O)C1C(CC3C2(C)C)C4(C)C

>  <smiles>  (250) 
[H]OC1([H])C2([H])C3=C([H])C(C([H])([H])[H])(C([H])([H])[H])C4([H])C([H])(O[H])C([H])(O[H])C5([H])C([H])(O[H])C([H])(C([H])(C([H])([H])C4([H])C5(C([H])([H])[H])C([H])([H])[H])C3(C([H])([H])[H])C([H])([H])[H])C2(C([H])([H])[H])C([H])([H])C1([H])n1nnc([H])c1[H]

$$$$
79:1:2
     RDKit          3D

 78 83  0  0  1  0  0  0  0  0999 V2000
    2.5396    4.8292    6.1461 C   0  0  0  0  0  0  0  0  0  0  0  0
    2.3016    3.4940    5.3785 C   0  0  0  0  0  0  0  0  0  0  0  0
    3.0121    3.7801    4.0489 C   0  0  0  0  0  0  0  0  0  0  0  0
    3.0388    2.4381    6.2385 C   0  0  0  0  0  0  0  0  0  0  0  0
    3.1560    1.0732    6.2083 C   0  0  0  0  0  0  0  0  0  0  0  0
    3.2620    0.1029    5.0266 C   0  0  2  0  0  0  0  0  0  0  0  0
    4.0301    0.5469    3.7596 C   0  0  1  0  0  0  0  0  0  0  0  0
    5.2218   -0.1948    3.6037 O   0  0  0  0  0  0  0  0  0  0  0  0
    3.0686    0.3746    2.5632 C   0  0  1  0  0  0  0  0  0  0  0  0
    3.4344   -0.6039    1.5371 N   0  0  0  0  0  0  0  0  0  0  0  0
    2.9202   -1.8581    1.2409 C   0  0  0  0  0  0  0  0  0  0  0  0
    3.5963   -2.2623    0.1274 C   0  0  0  0  0  0  0  0  0  0  0  0
    4.4721   -1.2369   -0.2335 N   0  0  0  0  0  0  0  0  0  0  0  0
    4.3912   -0.2699    0.6285 N   0  0  0  0  0  0  0  0  0  0  0  0
    1.7234    0.1215    3.2530 C   0  0  0  0  0  0  0  0  0  0  0  0
    1.8975   -0.5216    4.6414 C   0  0  1  0  0  0  0  0  0  0  0  0
    2.0289   -2.0620    4.4131 C   0  0  0  0  0  0  0  0  0  0  0  0
    0.7192   -0.2369    5.6920 C   0  0  2  0  0  0  0  0  0  0  0  0
   -0.7242   -0.0992    5.0693 C   0  0  1  0  0  0  0  0  0  0  0  0
   -1.6436   -0.9842    5.7026 O   0  0  0  0  0  0  0  0  0  0  0  0
   -1.4491    1.2772    4.8457 C   0  0  2  0  0  0  0  0  0  0  0  0
   -0.9997    2.0555    3.5844 C   0  0  1  0  0  0  0  0  0  0  0  0
   -2.1622    2.5610    2.9399 O   0  0  0  0  0  0  0  0  0  0  0  0
    0.0725    3.1714    3.8045 C   0  0  1  0  0  0  0  0  0  0  0  0
   -0.3561    4.4330    3.2968 O   0  0  0  0  0  0  0  0  0  0  0  0
    0.6953    3.3141    5.2570 C   0  0  1  0  0  0  0  0  0  0  0  0
   -0.1677    2.6937    6.4535 C   0  0  2  0  0  0  0  0  0  0  0  0
    0.4834    1.7652    7.5023 C   0  0  0  0  0  0  0  0  0  0  0  0
    1.0836    0.3737    7.1253 C   0  0  2  0  0  0  0  0  0  0  0  0
    2.6232    0.3267    7.4475 C   0  0  0  0  0  0  0  0  0  0  0  0
    3.1133   -1.1392    7.6417 C   0  0  0  0  0  0  0  0  0  0  0  0
    3.0593    0.9080    8.8332 C   0  0  0  0  0  0  0  0  0  0  0  0
   -1.5896    2.2127    6.0691 C   0  0  0  0  0  0  0  0  0  0  0  0
   -2.5077    3.4166    5.7744 C   0  0  0  0  0  0  0  0  0  0  0  0
   -2.3602    1.5270    7.2162 C   0  0  0  0  0  0  0  0  0  0  0  0
    2.1720    5.6959    5.5886 H   0  0  0  0  0  0  0  0  0  0  0  0
    3.6039    5.0058    6.3121 H   0  0  0  0  0  0  0  0  0  0  0  0
    2.0578    4.8424    7.1247 H   0  0  0  0  0  0  0  0  0  0  0  0
    2.6313    4.6818    3.5655 H   0  0  0  0  0  0  0  0  0  0  0  0
    2.8959    2.9877    3.3280 H   0  0  0  0  0  0  0  0  0  0  0  0
    4.0826    3.9158    4.2093 H   0  0  0  0  0  0  0  0  0  0  0  0
    3.0558    2.8351    7.2302 H   0  0  0  0  0  0  0  0  0  0  0  0
    3.8909   -0.7005    5.3946 H   0  0  0  0  0  0  0  0  0  0  0  0
    4.3603    1.5800    3.8857 H   0  0  0  0  0  0  0  0  0  0  0  0
    5.8085    0.0564    4.2977 H   0  0  0  0  0  0  0  0  0  0  0  0
    3.0019    1.3314    2.0328 H   0  0  0  0  0  0  0  0  0  0  0  0
    2.0979   -2.3611    1.7525 H   0  0  0  0  0  0  0  0  0  0  0  0
    3.4642   -3.1525   -0.4334 H   0  0  0  0  0  0  0  0  0  0  0  0
    1.3870    1.1071    3.5051 H   0  0  0  0  0  0  0  0  0  0  0  0
    0.9920   -0.3453    2.5980 H   0  0  0  0  0  0  0  0  0  0  0  0
    1.2173   -2.4067    3.7823 H   0  0  0  0  0  0  0  0  0  0  0  0
    1.9246   -2.6944    5.2945 H   0  0  0  0  0  0  0  0  0  0  0  0
    2.9932   -2.3149    3.9667 H   0  0  0  0  0  0  0  0  0  0  0  0
    0.6086   -1.2455    6.0685 H   0  0  0  0  0  0  0  0  0  0  0  0
   -0.6746   -0.5667    4.0881 H   0  0  0  0  0  0  0  0  0  0  0  0
   -2.4391   -0.9757    5.1905 H   0  0  0  0  0  0  0  0  0  0  0  0
   -2.4695    0.9707    4.5990 H   0  0  0  0  0  0  0  0  0  0  0  0
   -0.6262    1.3479    2.8475 H   0  0  0  0  0  0  0  0  0  0  0  0
   -2.6915    1.8327    2.6525 H   0  0  0  0  0  0  0  0  0  0  0  0
    0.8372    2.9825    3.0656 H   0  0  0  0  0  0  0  0  0  0  0  0
   -0.2069    4.4250    2.3305 H   0  0  0  0  0  0  0  0  0  0  0  0
    0.3864    4.3496    5.4211 H   0  0  0  0  0  0  0  0  0  0  0  0
   -0.3647    3.5579    7.0884 H   0  0  0  0  0  0  0  0  0  0  0  0
    1.1835    2.4026    8.0137 H   0  0  0  0  0  0  0  0  0  0  0  0
   -0.1832    1.6070    8.3484 H   0  0  0  0  0  0  0  0  0  0  0  0
    0.6334   -0.2997    7.8572 H   0  0  0  0  0  0  0  0  0  0  0  0
    2.7516   -1.5658    8.5771 H   0  0  0  0  0  0  0  0  0  0  0  0
    4.2032   -1.2028    7.6527 H   0  0  0  0  0  0  0  0  0  0  0  0
    2.7611   -1.8256    6.8935 H   0  0  0  0  0  0  0  0  0  0  0  0
    2.5751    0.3682    9.6465 H   0  0  0  0  0  0  0  0  0  0  0  0
    2.8685    1.9533    9.0354 H   0  0  0  0  0  0  0  0  0  0  0  0
    4.1340    0.7821    8.9715 H   0  0  0  0  0  0  0  0  0  0  0  0
   -2.0617    4.1294    5.0927 H   0  0  0  0  0  0  0  0  0  0  0  0
   -2.7321    3.9773    6.6824 H   0  0  0  0  0  0  0  0  0  0  0  0
   -3.4568    3.1054    5.3388 H   0  0  0  0  0  0  0  0  0  0  0  0
   -2.4927    2.1783    8.0855 H   0  0  0  0  0  0  0  0  0  0  0  0
   -1.8613    0.6286    7.5594 H   0  0  0  0  0  0  0  0  0  0  0  0
   -3.3499    1.2275    6.8842 H   0  0  0  0  0  0  0  0  0  0  0  0
  1  2  1  0
  1 36  1  0
  1 37  1  0
  1 38  1  0
  2 26  1  0
  2  3  1  0
  2  4  1  0
  3 39  1  0
  3 40  1  0
  3 41  1  0
  4  5  2  3
  4 42  1  0
  5 30  1  0
  5  6  1  0
  6 16  1  0
  6  7  1  0
  6 43  1  1
  7  8  1  0
  7  9  1  0
  7 44  1  1
  8 45  1  0
  9 10  1  0
  9 15  1  0
  9 46  1  6
 10 14  1  0
 10 11  1  0
 11 12  2  0
 11 47  1  0
 12 13  1  0
 12 48  1  0
 13 14  2  0
 15 16  1  0
 15 49  1  0
 15 50  1  0
 16 17  1  6
 16 18  1  0
 17 51  1  0
 17 52  1  0
 17 53  1  0
 18 29  1  0
 18 19  1  0
 18 54  1  1
 19 20  1  0
 19 21  1  0
 19 55  1  6
 20 56  1  0
 21 33  1  0
 21 22  1  0
 21 57  1  6
 22 23  1  0
 22 24  1  0
 22 58  1  6
 23 59  1  0
 24 25  1  0
 24 26  1  0
 24 60  1  6
 25 61  1  0
 26 27  1  0
 26 62  1  1
 27 28  1  0
 27 33  1  0
 27 63  1  1
 28 29  1  0
 28 64  1  0
 28 65  1  0
 29 30  1  0
 29 66  1  1
 30 31  1  0
 30 32  1  0
 31 67  1  0
 31 68  1  0
 31 69  1  0
 32 70  1  0
 32 71  1  0
 32 72  1  0
 33 34  1  0
 33 35  1  0
 34 73  1  0
 34 74  1  0
 34 75  1  0
 35 76  1  0
 35 77  1  0
 35 78  1  0
M  END
>  <i_m_ct_stereo_status>  (251) 
1

>  <s_m_source_file>  (251) 
/var/tmp/pbs.5076255.sched01/tmpinim70aj/80j3ziidn5.sdf

>  <i_m_source_file_index>  (251) 
24

>  <i_lp_mmshare_version>  (251) 
48012

>  <i_f3d_flags>  (251) 
0

>  <s_epik_input>  (251) 
W09IXVtDQEBIXTFbQ0BIXShbT0hdKVtDQEhdKEMyKFtDSDNdKVtDSDNdKVtDQEhdKFtPSF0pW0NAQEhdM1tDQEBIXShDNChbQ0gzXSlbQ0gzXSlbQ0gyXVtDQEhdMltDQEhdMUMoW0NIM10pKFtDSDNdKS9bQ0hdPUM0L1tDQEBIXShbQ0BAXTM1W0NIM10pW0NAQEhdKFtPSF0pW0NASF0oW0NIMl01KW42W2NIXVtjSF1ubjY=

>  <s_epik_cmdline>  (251) 
J2VwaWtfcHl0aG9uJywgJy1waHQnLCAnMi4wJywgJy1waCcsICc3LjAnLCAnLXRuJywgJzgnLCAnLW1hJywgJzIwMCcsICctaW1hZScsICc8aW5maWxlLm1hZT4nLCAnLW9tYWUnLCAnPG91dGZpbGUubWFlPic=

>  <r_lp_tautomer_probability>  (251) 
1

>  <r_epik_Ionization_Penalty>  (251) 
0.000146968

>  <r_epik_Ionization_Penalty_Charging>  (251) 
0

>  <r_epik_Ionization_Penalty_Neutral>  (251) 
0.000146968

>  <r_epik_State_Penalty>  (251) 
-0

>  <r_epik_Charging_Adjusted_Penalty>  (251) 
0

>  <i_epik_Tot_Q>  (251) 
0

>  <i_epik_Tot_abs_Q>  (251) 
0

>  <s_lp_Force_Field>  (251) 
OPLS3e

>  <r_lp_Energy>  (251) 
182.461

>  <b_lp_Chiralities_Consistent>  (251) 
1

>  <s_lp_Variant>  (251) 
79:0-2

>  <s_i_glide_gridfile>  (251) 
pfpi4k_grid

>  <i_i_glide_lignum>  (251) 
24

>  <i_i_glide_rotatable_bonds>  (251) 
5

>  <r_i_docking_score>  (251) 
-3.31206

>  <r_i_glide_ligand_efficiency>  (251) 
-0.0946302

>  <r_i_glide_ligand_efficiency_sa>  (251) 
-0.309542

>  <r_i_glide_ligand_efficiency_ln>  (251) 
-0.72707

>  <r_i_glide_gscore>  (251) 
-3.31206

>  <r_i_glide_lipo>  (251) 
-0.0610594

>  <r_i_glide_hbond>  (251) 
-0.0207849

>  <r_i_glide_metal>  (251) 
-0

>  <r_i_glide_rewards>  (251) 
-0.0977815

>  <r_i_glide_evdw>  (251) 
-29.1623

>  <r_i_glide_ecoul>  (251) 
-11.4644

>  <r_i_glide_erotb>  (251) 
0.0861371

>  <r_i_glide_esite>  (251) 
-0.0408007

>  <r_i_glide_emodel>  (251) 
-47.6791

>  <r_i_glide_energy>  (251) 
-40.6267

>  <r_i_glide_einternal>  (251) 
2.52778

>  <r_i_glide_intrahb_reward>  (251) 
-0

>  <i_i_glide_confnum>  (251) 
4

>  <i_i_glide_posenum>  (251) 
19

>  <r_i_glide_eff_state_penalty>  (251) 
0

>  <ligand_id>  (251) 
79

>  <original_smiles>  (251) 
CC1(C)C=C2C3C(O)C(n4ccnn4)CC3(C)C3C(O)C4C(O)C(O)C1C(CC3C2(C)C)C4(C)C

>  <smiles>  (251) 
[H]OC1([H])C2([H])C3=C([H])C(C([H])([H])[H])(C([H])([H])[H])C4([H])C([H])(O[H])C([H])(O[H])C5([H])C([H])(O[H])C([H])(C([H])(C([H])([H])C4([H])C5(C([H])([H])[H])C([H])([H])[H])C3(C([H])([H])[H])C([H])([H])[H])C2(C([H])([H])[H])C([H])([H])C1([H])n1nnc([H])c1[H]

$$$$
80:0:0
     RDKit          3D

 45 49  0  0  1  0  0  0  0  0999 V2000
    3.6475   -6.8228    4.5854 C   0  0  0  0  0  0  0  0  0  0  0  0
    3.7711   -5.8286    3.4427 C   0  0  0  0  0  0  0  0  0  0  0  0
    3.7834   -6.0321    2.1236 C   0  0  0  0  0  0  0  0  0  0  0  0
    3.9725   -4.7543    1.3033 C   0  0  2  0  0  0  0  0  0  0  0  0
    3.2759   -4.8676   -0.0777 C   0  0  2  0  0  0  0  0  0  0  0  0
    4.5905   -5.4305   -0.6222 C   0  0  0  0  0  0  0  0  0  0  0  0
    5.3325   -4.7625    0.5495 C   0  0  2  0  0  0  0  0  0  0  0  0
    6.4761   -5.6287    1.1142 C   0  0  0  0  0  0  0  0  0  0  0  0
    5.8765   -3.3431    0.2710 C   0  0  2  0  0  0  0  0  0  0  0  0
    5.9230   -2.5118    1.5765 C   0  0  1  0  0  0  0  0  0  0  0  0
    6.5992   -1.1402    1.4113 C   0  0  0  0  0  0  0  0  0  0  0  0
    4.5526   -2.3632    2.2634 C   0  0  0  0  0  0  0  0  0  0  0  0
    3.6666   -3.6418    2.3563 C   0  0  1  0  0  0  0  0  0  0  0  0
    2.1790   -3.2269    2.3532 C   0  0  0  0  0  0  0  0  0  0  0  0
    3.8846   -4.4014    3.6774 C   0  0  0  0  0  0  0  0  0  0  0  0
    4.0601   -3.8510    4.7688 O   0  0  0  0  0  0  0  0  0  0  0  0
    5.1761   -2.6528   -0.9141 C   0  0  2  0  0  0  0  0  0  0  0  0
    3.6535   -2.5167   -0.8555 C   0  0  0  0  0  0  0  0  0  0  0  0
    2.8609   -3.7059   -0.7988 O   0  0  0  0  0  0  0  0  0  0  0  0
    5.8506   -2.7060   -2.2650 C   0  0  0  0  0  0  0  0  0  0  0  0
    5.8415   -1.5075   -1.4784 O   0  0  0  0  0  0  0  0  0  0  0  0
    2.7655   -6.6013    5.1856 H   0  0  0  0  0  0  0  0  0  0  0  0
    4.5183   -6.7432    5.2329 H   0  0  0  0  0  0  0  0  0  0  0  0
    3.5728   -7.8519    4.2384 H   0  0  0  0  0  0  0  0  0  0  0  0
    3.6965   -7.0048    1.6687 H   0  0  0  0  0  0  0  0  0  0  0  0
    2.4787   -5.6100   -0.1063 H   0  0  0  0  0  0  0  0  0  0  0  0
    4.6012   -6.5172   -0.5813 H   0  0  0  0  0  0  0  0  0  0  0  0
    4.8765   -5.0968   -1.6202 H   0  0  0  0  0  0  0  0  0  0  0  0
    7.3506   -5.6237    0.4596 H   0  0  0  0  0  0  0  0  0  0  0  0
    6.1762   -6.6761    1.2001 H   0  0  0  0  0  0  0  0  0  0  0  0
    6.7883   -5.3046    2.1069 H   0  0  0  0  0  0  0  0  0  0  0  0
    6.9186   -3.4389   -0.0359 H   0  0  0  0  0  0  0  0  0  0  0  0
    6.5583   -3.0677    2.2639 H   0  0  0  0  0  0  0  0  0  0  0  0
    5.9624   -0.4631    0.8455 H   0  0  0  0  0  0  0  0  0  0  0  0
    7.5535   -1.2223    0.8906 H   0  0  0  0  0  0  0  0  0  0  0  0
    6.7841   -0.6717    2.3785 H   0  0  0  0  0  0  0  0  0  0  0  0
    4.7299   -1.9633    3.2600 H   0  0  0  0  0  0  0  0  0  0  0  0
    4.0026   -1.5528    1.8030 H   0  0  0  0  0  0  0  0  0  0  0  0
    1.9011   -2.7330    1.4249 H   0  0  0  0  0  0  0  0  0  0  0  0
    1.9626   -2.5281    3.1657 H   0  0  0  0  0  0  0  0  0  0  0  0
    1.5180   -4.0881    2.4784 H   0  0  0  0  0  0  0  0  0  0  0  0
    3.3402   -1.8042   -0.1008 H   0  0  0  0  0  0  0  0  0  0  0  0
    3.3412   -2.0139   -1.7721 H   0  0  0  0  0  0  0  0  0  0  0  0
    6.8251   -3.1768   -2.3613 H   0  0  0  0  0  0  0  0  0  0  0  0
    5.2269   -2.6839   -3.1513 H   0  0  0  0  0  0  0  0  0  0  0  0
  1  2  1  0
  1 22  1  0
  1 23  1  0
  1 24  1  0
  2 15  1  0
  2  3  2  0
  4  3  1  1
  3 25  1  0
  4  7  1  0
  4 13  1  0
  4  5  1  0
  5 19  1  0
  5  6  1  0
  5 26  1  1
  6  7  1  0
  6 27  1  0
  6 28  1  0
  7  8  1  1
  7  9  1  0
  8 29  1  0
  8 30  1  0
  8 31  1  0
  9 10  1  0
  9 17  1  0
  9 32  1  6
 10 11  1  0
 10 12  1  0
 10 33  1  1
 11 34  1  0
 11 35  1  0
 11 36  1  0
 12 13  1  0
 12 37  1  0
 12 38  1  0
 13 14  1  1
 13 15  1  0
 14 39  1  0
 14 40  1  0
 14 41  1  0
 15 16  2  0
 17 21  1  1
 17 18  1  0
 17 20  1  0
 18 19  1  0
 18 42  1  0
 18 43  1  0
 20 21  1  0
 20 44  1  0
 20 45  1  0
M  END
>  <i_m_ct_stereo_status>  (252) 
1

>  <s_m_source_file>  (252) 
/var/tmp/pbs.5076255.sched01/tmpinim70aj/80j3ziidn5.sdf

>  <i_m_source_file_index>  (252) 
25

>  <i_lp_mmshare_version>  (252) 
48012

>  <i_f3d_flags>  (252) 
0

>  <s_epik_input>  (252) 
W0NIM11DKD1bQ0hdMSlDKD1PKVtDQEBdMihbQ0gzXSlbQ0gyXVtDQEhdKFtDSDNdKVtDQEhdKFtDQF0zKFtDSDJdTzQpW0NIMl1PMylbQ0BdNShbQ0gzXSlbQ0gyXVtDQEhdNFtDQF0xMjU=

>  <s_epik_cmdline>  (252) 
J2VwaWtfcHl0aG9uJywgJy1waHQnLCAnMi4wJywgJy1waCcsICc3LjAnLCAnLXRuJywgJzgnLCAnLW1hJywgJzIwMCcsICctaW1hZScsICc8aW5maWxlLm1hZT4nLCAnLW9tYWUnLCAnPG91dGZpbGUubWFlPic=

>  <r_lp_tautomer_probability>  (252) 
1

>  <r_epik_Ionization_Penalty>  (252) 
7.16072e-12

>  <r_epik_Ionization_Penalty_Charging>  (252) 
0

>  <r_epik_Ionization_Penalty_Neutral>  (252) 
7.16072e-12

>  <r_epik_State_Penalty>  (252) 
-0

>  <r_epik_Charging_Adjusted_Penalty>  (252) 
0

>  <i_epik_Tot_Q>  (252) 
0

>  <i_epik_Tot_abs_Q>  (252) 
0

>  <s_lp_Force_Field>  (252) 
OPLS3e

>  <r_lp_Energy>  (252) 
45.8994

>  <b_lp_Chiralities_Consistent>  (252) 
1

>  <s_lp_Variant>  (252) 
80:0-1

>  <s_i_glide_gridfile>  (252) 
pfpi4k_grid

>  <i_i_glide_lignum>  (252) 
25

>  <i_i_glide_rotatable_bonds>  (252) 
0

>  <r_i_docking_score>  (252) 
-2.92617

>  <r_i_glide_ligand_efficiency>  (252) 
-0.139341

>  <r_i_glide_ligand_efficiency_sa>  (252) 
-0.384432

>  <r_i_glide_ligand_efficiency_ln>  (252) 
-0.723489

>  <r_i_glide_gscore>  (252) 
-2.92617

>  <r_i_glide_lipo>  (252) 
-0.494122

>  <r_i_glide_hbond>  (252) 
-0.0807611

>  <r_i_glide_metal>  (252) 
-0

>  <r_i_glide_rewards>  (252) 
-1.44285

>  <r_i_glide_evdw>  (252) 
-15.9885

>  <r_i_glide_ecoul>  (252) 
-0.726694

>  <r_i_glide_erotb>  (252) 
0

>  <r_i_glide_esite>  (252) 
0

>  <r_i_glide_emodel>  (252) 
-19.9193

>  <r_i_glide_energy>  (252) 
-16.7152

>  <r_i_glide_einternal>  (252) 
0

>  <r_i_glide_intrahb_reward>  (252) 
-0

>  <i_i_glide_confnum>  (252) 
2

>  <i_i_glide_posenum>  (252) 
12

>  <r_i_glide_eff_state_penalty>  (252) 
0

>  <ligand_id>  (252) 
80

>  <original_smiles>  (252) 
CC1=CC23C4CC2(C)C(C(C)CC3(C)C1=O)C1(CO4)CO1

>  <smiles>  (252) 
[H]C1=C(C([H])([H])[H])C(=O)C2(C([H])([H])[H])C([H])([H])C([H])(C([H])([H])[H])C3([H])C4(OC4([H])[H])C([H])([H])OC4([H])C([H])([H])C3(C([H])([H])[H])C142

$$$$
80:0:1
     RDKit          3D

 45 49  0  0  1  0  0  0  0  0999 V2000
    4.2842   -1.8841    4.7276 C   0  0  0  0  0  0  0  0  0  0  0  0
    4.3645   -1.9804    3.2094 C   0  0  0  0  0  0  0  0  0  0  0  0
    3.6034   -2.6589    2.3441 C   0  0  0  0  0  0  0  0  0  0  0  0
    4.0767   -2.4951    0.8885 C   0  0  2  0  0  0  0  0  0  0  0  0
    2.8998   -2.5940   -0.0881 C   0  0  2  0  0  0  0  0  0  0  0  0
    3.1016   -4.0970   -0.1101 C   0  0  0  0  0  0  0  0  0  0  0  0
    4.5617   -3.8528    0.3160 C   0  0  2  0  0  0  0  0  0  0  0  0
    5.0828   -4.9084    1.3039 C   0  0  0  0  0  0  0  0  0  0  0  0
    5.6137   -3.6838   -0.8104 C   0  0  2  0  0  0  0  0  0  0  0  0
    6.7688   -2.7698   -0.3537 C   0  0  1  0  0  0  0  0  0  0  0  0
    7.9148   -2.6923   -1.3752 C   0  0  0  0  0  0  0  0  0  0  0  0
    6.2971   -1.3644    0.0610 C   0  0  0  0  0  0  0  0  0  0  0  0
    5.0395   -1.2815    0.9735 C   0  0  1  0  0  0  0  0  0  0  0  0
    4.3043    0.0326    0.6967 C   0  0  0  0  0  0  0  0  0  0  0  0
    5.3378   -1.2460    2.4646 C   0  0  0  0  0  0  0  0  0  0  0  0
    6.2148   -0.5192    2.9091 O   0  0  0  0  0  0  0  0  0  0  0  0
    4.9906   -3.2892   -2.1519 C   0  0  2  0  0  0  0  0  0  0  0  0
    4.1583   -2.0382   -2.2071 C   0  0  0  0  0  0  0  0  0  0  0  0
    3.0100   -2.0275   -1.4008 O   0  0  0  0  0  0  0  0  0  0  0  0
    4.7093   -4.3361   -3.1923 C   0  0  0  0  0  0  0  0  0  0  0  0
    5.8161   -3.4505   -3.3282 O   0  0  0  0  0  0  0  0  0  0  0  0
    4.1534   -0.8438    5.0295 H   0  0  0  0  0  0  0  0  0  0  0  0
    5.2181   -2.2328    5.1576 H   0  0  0  0  0  0  0  0  0  0  0  0
    3.4703   -2.4686    5.1431 H   0  0  0  0  0  0  0  0  0  0  0  0
    2.7487   -3.2424    2.6448 H   0  0  0  0  0  0  0  0  0  0  0  0
    1.9620   -2.3287    0.4035 H   0  0  0  0  0  0  0  0  0  0  0  0
    2.5070   -4.5829    0.6465 H   0  0  0  0  0  0  0  0  0  0  0  0
    2.9595   -4.5502   -1.0815 H   0  0  0  0  0  0  0  0  0  0  0  0
    5.3137   -5.8490    0.7970 H   0  0  0  0  0  0  0  0  0  0  0  0
    4.3201   -5.1547    2.0533 H   0  0  0  0  0  0  0  0  0  0  0  0
    5.9641   -4.5692    1.8504 H   0  0  0  0  0  0  0  0  0  0  0  0
    6.0508   -4.6528   -0.9813 H   0  0  0  0  0  0  0  0  0  0  0  0
    7.2095   -3.2249    0.5299 H   0  0  0  0  0  0  0  0  0  0  0  0
    7.6096   -2.1367   -2.2630 H   0  0  0  0  0  0  0  0  0  0  0  0
    8.2218   -3.6828   -1.7176 H   0  0  0  0  0  0  0  0  0  0  0  0
    8.7990   -2.2024   -0.9574 H   0  0  0  0  0  0  0  0  0  0  0  0
    7.1386   -0.8954    0.5767 H   0  0  0  0  0  0  0  0  0  0  0  0
    6.2063   -0.7158   -0.7870 H   0  0  0  0  0  0  0  0  0  0  0  0
    3.9959    0.0301   -0.3294 H   0  0  0  0  0  0  0  0  0  0  0  0
    4.9687    0.8814    0.8688 H   0  0  0  0  0  0  0  0  0  0  0  0
    3.4302    0.1854    1.3341 H   0  0  0  0  0  0  0  0  0  0  0  0
    4.7486   -1.1249   -2.1212 H   0  0  0  0  0  0  0  0  0  0  0  0
    3.7665   -1.9507   -3.2256 H   0  0  0  0  0  0  0  0  0  0  0  0
    4.9725   -5.3610   -2.9621 H   0  0  0  0  0  0  0  0  0  0  0  0
    3.8802   -4.1906   -3.8700 H   0  0  0  0  0  0  0  0  0  0  0  0
  1  2  1  0
  1 22  1  0
  1 23  1  0
  1 24  1  0
  2 15  1  0
  2  3  2  0
  4  3  1  1
  3 25  1  0
  4  7  1  0
  4 13  1  0
  4  5  1  0
  5 19  1  0
  5  6  1  0
  5 26  1  1
  6  7  1  0
  6 27  1  0
  6 28  1  0
  7  8  1  1
  7  9  1  0
  8 29  1  0
  8 30  1  0
  8 31  1  0
  9 10  1  0
  9 17  1  0
  9 32  1  6
 10 11  1  0
 10 12  1  0
 10 33  1  1
 11 34  1  0
 11 35  1  0
 11 36  1  0
 12 13  1  0
 12 37  1  0
 12 38  1  0
 13 14  1  6
 13 15  1  0
 14 39  1  0
 14 40  1  0
 14 41  1  0
 15 16  2  0
 17 21  1  6
 17 18  1  0
 17 20  1  0
 18 19  1  0
 18 42  1  0
 18 43  1  0
 20 21  1  0
 20 44  1  0
 20 45  1  0
M  END
>  <i_m_ct_stereo_status>  (253) 
1

>  <s_m_source_file>  (253) 
/var/tmp/pbs.5076255.sched01/tmpinim70aj/80j3ziidn5.sdf

>  <i_m_source_file_index>  (253) 
25

>  <i_lp_mmshare_version>  (253) 
48012

>  <i_f3d_flags>  (253) 
0

>  <s_epik_input>  (253) 
W0NIM11DKD1bQ0hdMSlDKD1PKVtDQEBdMihbQ0gzXSlbQ0gyXVtDQEhdKFtDSDNdKVtDQEhdKFtDQF0zKFtDSDJdTzQpW0NIMl1PMylbQ0BdNShbQ0gzXSlbQ0gyXVtDQEhdNFtDQF0xMjU=

>  <s_epik_cmdline>  (253) 
J2VwaWtfcHl0aG9uJywgJy1waHQnLCAnMi4wJywgJy1waCcsICc3LjAnLCAnLXRuJywgJzgnLCAnLW1hJywgJzIwMCcsICctaW1hZScsICc8aW5maWxlLm1hZT4nLCAnLW9tYWUnLCAnPG91dGZpbGUubWFlPic=

>  <r_lp_tautomer_probability>  (253) 
1

>  <r_epik_Ionization_Penalty>  (253) 
7.16072e-12

>  <r_epik_Ionization_Penalty_Charging>  (253) 
0

>  <r_epik_Ionization_Penalty_Neutral>  (253) 
7.16072e-12

>  <r_epik_State_Penalty>  (253) 
-0

>  <r_epik_Charging_Adjusted_Penalty>  (253) 
0

>  <i_epik_Tot_Q>  (253) 
0

>  <i_epik_Tot_abs_Q>  (253) 
0

>  <s_lp_Force_Field>  (253) 
OPLS3e

>  <r_lp_Energy>  (253) 
45.8994

>  <b_lp_Chiralities_Consistent>  (253) 
1

>  <s_lp_Variant>  (253) 
80:0-1

>  <s_i_glide_gridfile>  (253) 
pfpi4k_grid

>  <i_i_glide_lignum>  (253) 
25

>  <i_i_glide_rotatable_bonds>  (253) 
0

>  <r_i_docking_score>  (253) 
-2.84147

>  <r_i_glide_ligand_efficiency>  (253) 
-0.135308

>  <r_i_glide_ligand_efficiency_sa>  (253) 
-0.373305

>  <r_i_glide_ligand_efficiency_ln>  (253) 
-0.702548

>  <r_i_glide_gscore>  (253) 
-2.84147

>  <r_i_glide_lipo>  (253) 
-0.457774

>  <r_i_glide_hbond>  (253) 
0

>  <r_i_glide_metal>  (253) 
-0

>  <r_i_glide_rewards>  (253) 
-1.59262

>  <r_i_glide_evdw>  (253) 
-14.1781

>  <r_i_glide_ecoul>  (253) 
-0.547806

>  <r_i_glide_erotb>  (253) 
0

>  <r_i_glide_esite>  (253) 
0

>  <r_i_glide_emodel>  (253) 
-17.6016

>  <r_i_glide_energy>  (253) 
-14.7259

>  <r_i_glide_einternal>  (253) 
0

>  <r_i_glide_intrahb_reward>  (253) 
-0

>  <i_i_glide_confnum>  (253) 
2

>  <i_i_glide_posenum>  (253) 
3

>  <r_i_glide_eff_state_penalty>  (253) 
0

>  <ligand_id>  (253) 
80

>  <original_smiles>  (253) 
CC1=CC23C4CC2(C)C(C(C)CC3(C)C1=O)C1(CO4)CO1

>  <smiles>  (253) 
[H]C1=C(C([H])([H])[H])C(=O)C2(C([H])([H])[H])C([H])([H])C([H])(C([H])([H])[H])C3([H])C4(OC4([H])[H])C([H])([H])OC4([H])C([H])([H])C3(C([H])([H])[H])C142

$$$$
80:0:2
     RDKit          3D

 45 49  0  0  1  0  0  0  0  0999 V2000
    5.6830   -5.2602    4.7638 C   0  0  0  0  0  0  0  0  0  0  0  0
    5.1656   -4.6206    3.4809 C   0  0  0  0  0  0  0  0  0  0  0  0
    5.6061   -4.7491    2.2316 C   0  0  0  0  0  0  0  0  0  0  0  0
    4.8158   -3.9183    1.2072 C   0  0  2  0  0  0  0  0  0  0  0  0
    4.8090   -4.5844   -0.1831 C   0  0  2  0  0  0  0  0  0  0  0  0
    6.0828   -3.8266   -0.4986 C   0  0  0  0  0  0  0  0  0  0  0  0
    5.6766   -2.8047    0.5723 C   0  0  2  0  0  0  0  0  0  0  0  0
    6.8580   -2.2946    1.3629 C   0  0  0  0  0  0  0  0  0  0  0  0
    4.8705   -1.5799    0.1202 C   0  0  2  0  0  0  0  0  0  0  0  0
    3.9562   -1.0854    1.2823 C   0  0  1  0  0  0  0  0  0  0  0  0
    3.2261    0.2109    0.9447 C   0  0  0  0  0  0  0  0  0  0  0  0
    2.9555   -2.1415    1.7684 C   0  0  0  0  0  0  0  0  0  0  0  0
    3.5176   -3.5641    2.0036 C   0  0  1  0  0  0  0  0  0  0  0  0
    2.3928   -4.6026    1.7903 C   0  0  0  0  0  0  0  0  0  0  0  0
    3.9925   -3.7600    3.4560 C   0  0  0  0  0  0  0  0  0  0  0  0
    3.4077   -3.2951    4.4395 O   0  0  0  0  0  0  0  0  0  0  0  0
    4.1845   -1.8033   -1.2204 C   0  0  2  0  0  0  0  0  0  0  0  0
    3.2366   -2.9684   -1.3160 C   0  0  0  0  0  0  0  0  0  0  0  0
    3.8213   -4.2578   -1.1454 O   0  0  0  0  0  0  0  0  0  0  0  0
    4.8962   -1.3354   -2.4729 C   0  0  0  0  0  0  0  0  0  0  0  0
    3.7544   -0.6600   -1.9440 O   0  0  0  0  0  0  0  0  0  0  0  0
    4.9049   -5.8603    5.2303 H   0  0  0  0  0  0  0  0  0  0  0  0
    5.9413   -4.4665    5.4629 H   0  0  0  0  0  0  0  0  0  0  0  0
    6.5617   -5.8823    4.6089 H   0  0  0  0  0  0  0  0  0  0  0  0
    6.4456   -5.3623    1.9716 H   0  0  0  0  0  0  0  0  0  0  0  0
    4.9928   -5.6602   -0.1490 H   0  0  0  0  0  0  0  0  0  0  0  0
    6.9779   -4.3986   -0.2336 H   0  0  0  0  0  0  0  0  0  0  0  0
    6.1647   -3.4520   -1.5179 H   0  0  0  0  0  0  0  0  0  0  0  0
    7.4639   -1.5569    0.8227 H   0  0  0  0  0  0  0  0  0  0  0  0
    7.5139   -3.1240    1.6110 H   0  0  0  0  0  0  0  0  0  0  0  0
    6.5156   -1.8619    2.2994 H   0  0  0  0  0  0  0  0  0  0  0  0
    5.5591   -0.7468   -0.0568 H   0  0  0  0  0  0  0  0  0  0  0  0
    4.5998   -0.8191    2.1197 H   0  0  0  0  0  0  0  0  0  0  0  0
    2.4273   -0.0068    0.2557 H   0  0  0  0  0  0  0  0  0  0  0  0
    3.9262    0.9122    0.4974 H   0  0  0  0  0  0  0  0  0  0  0  0
    2.7629    0.6700    1.8133 H   0  0  0  0  0  0  0  0  0  0  0  0
    2.5518   -1.7489    2.6869 H   0  0  0  0  0  0  0  0  0  0  0  0
    2.0635   -2.1676    1.1122 H   0  0  0  0  0  0  0  0  0  0  0  0
    2.0473   -4.5841    0.7575 H   0  0  0  0  0  0  0  0  0  0  0  0
    1.5444   -4.3909    2.4424 H   0  0  0  0  0  0  0  0  0  0  0  0
    2.7314   -5.6133    2.0053 H   0  0  0  0  0  0  0  0  0  0  0  0
    2.3267   -2.8472   -0.7501 H   0  0  0  0  0  0  0  0  0  0  0  0
    2.8719   -3.0102   -2.3331 H   0  0  0  0  0  0  0  0  0  0  0  0
    5.8116   -0.7739   -2.3499 H   0  0  0  0  0  0  0  0  0  0  0  0
    4.7169   -1.8443   -3.4114 H   0  0  0  0  0  0  0  0  0  0  0  0
  1  2  1  0
  1 22  1  0
  1 23  1  0
  1 24  1  0
  2 15  1  0
  2  3  2  0
  4  3  1  1
  3 25  1  0
  4  7  1  0
  4 13  1  0
  4  5  1  0
  5 19  1  0
  5  6  1  0
  5 26  1  1
  6  7  1  0
  6 27  1  0
  6 28  1  0
  7  8  1  1
  7  9  1  0
  8 29  1  0
  8 30  1  0
  8 31  1  0
  9 10  1  0
  9 17  1  0
  9 32  1  6
 10 11  1  0
 10 12  1  0
 10 33  1  1
 11 34  1  0
 11 35  1  0
 11 36  1  0
 12 13  1  0
 12 37  1  0
 12 38  1  0
 13 14  1  6
 13 15  1  0
 14 39  1  0
 14 40  1  0
 14 41  1  0
 15 16  2  0
 17 21  1  1
 17 18  1  0
 17 20  1  0
 18 19  1  0
 18 42  1  0
 18 43  1  0
 20 21  1  0
 20 44  1  0
 20 45  1  0
M  END
>  <i_m_ct_stereo_status>  (254) 
1

>  <s_m_source_file>  (254) 
/var/tmp/pbs.5076255.sched01/tmpinim70aj/80j3ziidn5.sdf

>  <i_m_source_file_index>  (254) 
25

>  <i_lp_mmshare_version>  (254) 
48012

>  <i_f3d_flags>  (254) 
0

>  <s_epik_input>  (254) 
W0NIM11DKD1bQ0hdMSlDKD1PKVtDQEBdMihbQ0gzXSlbQ0gyXVtDQEhdKFtDSDNdKVtDQEhdKFtDQF0zKFtDSDJdTzQpW0NIMl1PMylbQ0BdNShbQ0gzXSlbQ0gyXVtDQEhdNFtDQF0xMjU=

>  <s_epik_cmdline>  (254) 
J2VwaWtfcHl0aG9uJywgJy1waHQnLCAnMi4wJywgJy1waCcsICc3LjAnLCAnLXRuJywgJzgnLCAnLW1hJywgJzIwMCcsICctaW1hZScsICc8aW5maWxlLm1hZT4nLCAnLW9tYWUnLCAnPG91dGZpbGUubWFlPic=

>  <r_lp_tautomer_probability>  (254) 
1

>  <r_epik_Ionization_Penalty>  (254) 
7.16072e-12

>  <r_epik_Ionization_Penalty_Charging>  (254) 
0

>  <r_epik_Ionization_Penalty_Neutral>  (254) 
7.16072e-12

>  <r_epik_State_Penalty>  (254) 
-0

>  <r_epik_Charging_Adjusted_Penalty>  (254) 
0

>  <i_epik_Tot_Q>  (254) 
0

>  <i_epik_Tot_abs_Q>  (254) 
0

>  <s_lp_Force_Field>  (254) 
OPLS3e

>  <r_lp_Energy>  (254) 
45.8994

>  <b_lp_Chiralities_Consistent>  (254) 
1

>  <s_lp_Variant>  (254) 
80:0-1

>  <s_i_glide_gridfile>  (254) 
pfpi4k_grid

>  <i_i_glide_lignum>  (254) 
25

>  <i_i_glide_rotatable_bonds>  (254) 
0

>  <r_i_docking_score>  (254) 
-1.9064

>  <r_i_glide_ligand_efficiency>  (254) 
-0.0907811

>  <r_i_glide_ligand_efficiency_sa>  (254) 
-0.250458

>  <r_i_glide_ligand_efficiency_ln>  (254) 
-0.471354

>  <r_i_glide_gscore>  (254) 
-1.9064

>  <r_i_glide_lipo>  (254) 
-0.222079

>  <r_i_glide_hbond>  (254) 
0

>  <r_i_glide_metal>  (254) 
-0

>  <r_i_glide_rewards>  (254) 
-1.44285

>  <r_i_glide_evdw>  (254) 
-11.0964

>  <r_i_glide_ecoul>  (254) 
2.08902

>  <r_i_glide_erotb>  (254) 
0

>  <r_i_glide_esite>  (254) 
0

>  <r_i_glide_emodel>  (254) 
-10.5831

>  <r_i_glide_energy>  (254) 
-9.00743

>  <r_i_glide_einternal>  (254) 
0

>  <r_i_glide_intrahb_reward>  (254) 
-0

>  <i_i_glide_confnum>  (254) 
2

>  <i_i_glide_posenum>  (254) 
14

>  <r_i_glide_eff_state_penalty>  (254) 
0

>  <ligand_id>  (254) 
80

>  <original_smiles>  (254) 
CC1=CC23C4CC2(C)C(C(C)CC3(C)C1=O)C1(CO4)CO1

>  <smiles>  (254) 
[H]C1=C(C([H])([H])[H])C(=O)C2(C([H])([H])[H])C([H])([H])C([H])(C([H])([H])[H])C3([H])C4(OC4([H])[H])C([H])([H])OC4([H])C([H])([H])C3(C([H])([H])[H])C142

$$$$
81:0:0
     RDKit          3D

 56 60  0  0  1  0  0  0  0  0999 V2000
    0.6064  -11.5706    4.6793 C   0  0  0  0  0  0  0  0  0  0  0  0
    1.7458  -10.6433    4.5210 N   0  0  1  0  0  0  0  0  0  0  0  0
    2.3512  -10.6733    3.1732 C   0  0  2  0  0  0  0  0  0  0  0  0
    3.7488  -10.0369    3.2737 C   0  0  0  0  0  0  0  0  0  0  0  0
    4.0607   -9.3278    4.6136 C   0  0  0  0  0  0  0  0  0  0  0  0
    2.8708   -8.4910    5.1198 C   0  0  0  0  0  0  0  0  0  0  0  0
    1.5114   -9.2339    4.9640 C   0  0  1  0  0  0  0  0  0  0  0  0
    0.5230   -8.5099    3.9987 C   0  0  1  0  0  0  0  0  0  0  0  0
    0.1949   -7.1910    4.4069 O   0  0  0  0  0  0  0  0  0  0  0  0
    0.9511   -8.5498    2.5129 C   0  0  1  0  0  0  0  0  0  0  0  0
    2.0613   -7.6979    2.2547 O   0  0  0  0  0  0  0  0  0  0  0  0
    2.0223   -6.7090    1.3540 C   0  0  0  0  0  0  0  0  0  0  0  0
    0.9903   -6.2570    0.8518 O   0  0  0  0  0  0  0  0  0  0  0  0
    3.4189   -6.1902    0.9349 C   0  0  0  0  0  0  0  0  0  0  0  0
    4.6156   -7.0237    1.4174 C   0  0  0  0  0  0  0  0  0  0  0  0
    4.9350   -8.2375    0.7726 C   0  0  0  0  0  0  0  0  0  0  0  0
    6.0015   -9.0408    1.2355 C   0  0  0  0  0  0  0  0  0  0  0  0
    6.8153   -8.5889    2.2879 C   0  0  0  0  0  0  0  0  0  0  0  0
    6.5411   -7.3522    2.9015 C   0  0  0  0  0  0  0  0  0  0  0  0
    5.4363   -6.5824    2.4819 C   0  0  0  0  0  0  0  0  0  0  0  0
    5.1105   -5.2854    3.2029 C   0  0  0  0  0  0  0  0  0  0  0  0
    4.4223   -4.2751    2.3042 C   0  0  0  0  0  0  0  0  0  0  0  0
    4.6303   -2.8997    2.5210 C   0  0  0  0  0  0  0  0  0  0  0  0
    4.0044   -1.9553    1.6839 C   0  0  0  0  0  0  0  0  0  0  0  0
    3.1661   -2.3884    0.6389 C   0  0  0  0  0  0  0  0  0  0  0  0
    2.9728   -3.7585    0.4096 C   0  0  0  0  0  0  0  0  0  0  0  0
    3.6005   -4.7102    1.2396 C   0  0  0  0  0  0  0  0  0  0  0  0
    1.4162   -9.9786    2.1313 C   0  0  0  0  0  0  0  0  0  0  0  0
   -0.1869  -11.2865    4.0011 H   0  0  0  0  0  0  0  0  0  0  0  0
    0.2071  -11.5568    5.6934 H   0  0  0  0  0  0  0  0  0  0  0  0
    0.8870  -12.5985    4.4311 H   0  0  0  0  0  0  0  0  0  0  0  0
    2.4940  -11.7157    2.8639 H   0  0  0  0  0  0  0  0  0  0  0  0
    4.5350  -10.7457    3.0022 H   0  0  0  0  0  0  0  0  0  0  0  0
    3.7602   -9.2975    2.5147 H   0  0  0  0  0  0  0  0  0  0  0  0
    4.3500  -10.0622    5.3742 H   0  0  0  0  0  0  0  0  0  0  0  0
    4.9106   -8.6706    4.4952 H   0  0  0  0  0  0  0  0  0  0  0  0
    3.0348   -8.2236    6.1644 H   0  0  0  0  0  0  0  0  0  0  0  0
    2.8514   -7.5263    4.6062 H   0  0  0  0  0  0  0  0  0  0  0  0
    1.0567   -9.2797    5.9561 H   0  0  0  0  0  0  0  0  0  0  0  0
   -0.4277   -9.0383    4.0616 H   0  0  0  0  0  0  0  0  0  0  0  0
    0.0750   -7.1873    5.3461 H   0  0  0  0  0  0  0  0  0  0  0  0
    0.0902   -8.2843    1.8904 H   0  0  0  0  0  0  0  0  0  0  0  0
    3.4283   -6.2702   -0.1543 H   0  0  0  0  0  0  0  0  0  0  0  0
    4.3127   -8.6049   -0.0320 H   0  0  0  0  0  0  0  0  0  0  0  0
    6.1822  -10.0089    0.7827 H   0  0  0  0  0  0  0  0  0  0  0  0
    7.6137   -9.2203    2.6671 H   0  0  0  0  0  0  0  0  0  0  0  0
    7.1318   -7.0460    3.7552 H   0  0  0  0  0  0  0  0  0  0  0  0
    4.4729   -5.4966    4.0596 H   0  0  0  0  0  0  0  0  0  0  0  0
    6.0328   -4.8633    3.5964 H   0  0  0  0  0  0  0  0  0  0  0  0
    5.2772   -2.5653    3.3213 H   0  0  0  0  0  0  0  0  0  0  0  0
    4.1644   -0.9016    1.8397 H   0  0  0  0  0  0  0  0  0  0  0  0
    2.6689   -1.6651    0.0029 H   0  0  0  0  0  0  0  0  0  0  0  0
    2.3413   -4.0886   -0.4019 H   0  0  0  0  0  0  0  0  0  0  0  0
    1.9036   -9.9353    1.1538 H   0  0  0  0  0  0  0  0  0  0  0  0
    0.5300  -10.5887    1.9860 H   0  0  0  0  0  0  0  0  0  0  0  0
    2.4523  -11.0054    5.1406 H   0  0  0  0  0  0  0  0  0  0  0  0
  1  2  1  0
  1 29  1  0
  1 30  1  0
  1 31  1  0
  2  7  1  0
  2  3  1  0
  2 56  1  1
  3 28  1  0
  3  4  1  0
  3 32  1  6
  4  5  1  0
  4 33  1  0
  4 34  1  0
  5  6  1  0
  5 35  1  0
  5 36  1  0
  6  7  1  0
  6 37  1  0
  6 38  1  0
  7  8  1  0
  7 39  1  1
  8  9  1  0
  8 10  1  0
  8 40  1  6
  9 41  1  0
 10 11  1  0
 10 28  1  0
 10 42  1  6
 11 12  1  0
 12 13  2  0
 12 14  1  0
 14 27  1  0
 14 15  1  0
 14 43  1  0
 15 20  1  0
 15 16  2  0
 16 17  1  0
 16 44  1  0
 17 18  2  0
 17 45  1  0
 18 19  1  0
 18 46  1  0
 19 20  2  0
 19 47  1  0
 20 21  1  0
 21 22  1  0
 21 48  1  0
 21 49  1  0
 22 27  2  0
 22 23  1  0
 23 24  2  0
 23 50  1  0
 24 25  1  0
 24 51  1  0
 25 26  2  0
 25 52  1  0
 26 27  1  0
 26 53  1  0
 28 54  1  0
 28 55  1  0
M  CHG  1   2   1
M  END
>  <i_m_ct_stereo_status>  (255) 
1

>  <s_m_source_file>  (255) 
/var/tmp/pbs.5076255.sched01/tmpinim70aj/80j3ziidn5.sdf

>  <i_m_source_file_index>  (255) 
26

>  <i_lp_mmshare_version>  (255) 
48012

>  <i_f3d_flags>  (255) 
0

>  <s_epik_input>  (255) 
W0NIMl0xW0NIMl1bQ0gyXVtDSF0oTihbQ0gzXSlbQ0BIXTEyKVtDQEBIXShbT0hdKVtDQEhdKFtDSDJdMilPQyg9TylbQ0hdM2MoW2NIXVtjSF1bY0hdW2NIXTQpYzRbQ0gyXWMoYzM1KVtjSF1bY0hdW2NIXVtjSF01

>  <s_epik_cmdline>  (255) 
J2VwaWtfcHl0aG9uJywgJy1waHQnLCAnMi4wJywgJy1waCcsICc3LjAnLCAnLXRuJywgJzgnLCAnLW1hJywgJzIwMCcsICctaW1hZScsICc8aW5maWxlLm1hZT4nLCAnLW9tYWUnLCAnPG91dGZpbGUubWFlPic=

>  <r_epik_Ionization_Penalty>  (255) 
0.141076

>  <r_epik_Ionization_Penalty_Charging>  (255) 
0.141074

>  <r_epik_Ionization_Penalty_Neutral>  (255) 
1.91762e-06

>  <r_epik_State_Penalty>  (255) 
0.13039

>  <r_epik_Charging_Adjusted_Penalty>  (255) 
0.271464

>  <i_epik_Tot_Q>  (255) 
1

>  <i_epik_Tot_abs_Q>  (255) 
1

>  <s_epik_Chemistry_Notes>  (255) 
This compound has an ester and may undergo hydrolysis at high or low pH.

>  <s_lp_Force_Field>  (255) 
OPLS3e

>  <r_lp_Energy>  (255) 
62.5289

>  <b_lp_Chiralities_Consistent>  (255) 
1

>  <s_lp_Variant>  (255) 
81:0-1

>  <s_i_glide_gridfile>  (255) 
pfpi4k_grid

>  <i_i_glide_lignum>  (255) 
26

>  <i_i_glide_rotatable_bonds>  (255) 
4

>  <r_i_docking_score>  (255) 
-3.35175

>  <r_i_glide_ligand_efficiency>  (255) 
-0.119705

>  <r_i_glide_ligand_efficiency_sa>  (255) 
-0.363496

>  <r_i_glide_ligand_efficiency_ln>  (255) 
-0.773682

>  <r_i_glide_gscore>  (255) 
-3.35175

>  <r_i_glide_lipo>  (255) 
-0.450017

>  <r_i_glide_hbond>  (255) 
-0.16

>  <r_i_glide_metal>  (255) 
-0

>  <r_i_glide_rewards>  (255) 
-0.828518

>  <r_i_glide_evdw>  (255) 
-24.4108

>  <r_i_glide_ecoul>  (255) 
-6.96288

>  <r_i_glide_erotb>  (255) 
0.405856

>  <r_i_glide_esite>  (255) 
-0.054096

>  <r_i_glide_emodel>  (255) 
-37.466

>  <r_i_glide_energy>  (255) 
-31.3737

>  <r_i_glide_einternal>  (255) 
4.52643

>  <r_i_glide_intrahb_reward>  (255) 
-0

>  <i_i_glide_confnum>  (255) 
3

>  <i_i_glide_posenum>  (255) 
2

>  <r_i_glide_eff_state_penalty>  (255) 
0

>  <ligand_id>  (255) 
81

>  <original_smiles>  (255) 
CN1C2CCCC1C(O)C(OC(=O)C1c3ccccc3Cc3ccccc31)C2

>  <smiles>  (255) 
[H]OC1([H])C([H])(OC(=O)C2([H])c3c([H])c([H])c([H])c([H])c3C([H])([H])c3c([H])c([H])c([H])c([H])c32)C([H])([H])C2([H])C([H])([H])C([H])([H])C([H])([H])C1([H])[N+]2([H])C([H])([H])[H]

$$$$
81:0:1
     RDKit          3D

 56 60  0  0  1  0  0  0  0  0999 V2000
    1.2173  -12.0278    3.2709 C   0  0  0  0  0  0  0  0  0  0  0  0
    1.7822  -10.8995    4.0377 N   0  0  1  0  0  0  0  0  0  0  0  0
    2.6604   -9.9940    3.2553 C   0  0  2  0  0  0  0  0  0  0  0  0
    3.4976   -9.1003    4.2130 C   0  0  0  0  0  0  0  0  0  0  0  0
    3.0480   -9.2056    5.6928 C   0  0  0  0  0  0  0  0  0  0  0  0
    1.5112   -9.2414    5.8696 C   0  0  0  0  0  0  0  0  0  0  0  0
    0.7907  -10.1251    4.8218 C   0  0  1  0  0  0  0  0  0  0  0  0
   -0.1280   -9.3280    3.8529 C   0  0  1  0  0  0  0  0  0  0  0  0
   -1.1835   -8.6517    4.5018 O   0  0  0  0  0  0  0  0  0  0  0  0
    0.6339   -8.4175    2.8608 C   0  0  1  0  0  0  0  0  0  0  0  0
    1.1482   -7.2851    3.5452 O   0  0  0  0  0  0  0  0  0  0  0  0
    1.3461   -6.1128    2.9310 C   0  0  0  0  0  0  0  0  0  0  0  0
    0.9855   -5.8583    1.7816 O   0  0  0  0  0  0  0  0  0  0  0  0
    2.1319   -5.1160    3.7988 C   0  0  0  0  0  0  0  0  0  0  0  0
    1.2913   -4.4923    4.9120 C   0  0  0  0  0  0  0  0  0  0  0  0
    1.0241   -5.2145    6.0933 C   0  0  0  0  0  0  0  0  0  0  0  0
    0.2815   -4.6360    7.1399 C   0  0  0  0  0  0  0  0  0  0  0  0
   -0.1760   -3.3129    7.0247 C   0  0  0  0  0  0  0  0  0  0  0  0
    0.0893   -2.5807    5.8533 C   0  0  0  0  0  0  0  0  0  0  0  0
    0.8243   -3.1661    4.8030 C   0  0  0  0  0  0  0  0  0  0  0  0
    1.1110   -2.3566    3.5579 C   0  0  0  0  0  0  0  0  0  0  0  0
    2.3905   -2.7650    2.8520 C   0  0  0  0  0  0  0  0  0  0  0  0
    3.0957   -1.8232    2.0800 C   0  0  0  0  0  0  0  0  0  0  0  0
    4.2800   -2.1920    1.4161 C   0  0  0  0  0  0  0  0  0  0  0  0
    4.7577   -3.5126    1.5109 C   0  0  0  0  0  0  0  0  0  0  0  0
    4.0560   -4.4557    2.2822 C   0  0  0  0  0  0  0  0  0  0  0  0
    2.8740   -4.0866    2.9588 C   0  0  0  0  0  0  0  0  0  0  0  0
    1.8225   -9.1861    2.2264 C   0  0  0  0  0  0  0  0  0  0  0  0
    0.5437  -11.7136    2.4780 H   0  0  0  0  0  0  0  0  0  0  0  0
    0.6339  -12.6609    3.9400 H   0  0  0  0  0  0  0  0  0  0  0  0
    2.0259  -12.6084    2.8113 H   0  0  0  0  0  0  0  0  0  0  0  0
    3.3643  -10.6097    2.6955 H   0  0  0  0  0  0  0  0  0  0  0  0
    4.5562   -9.3666    4.1397 H   0  0  0  0  0  0  0  0  0  0  0  0
    3.4761   -8.0600    3.8838 H   0  0  0  0  0  0  0  0  0  0  0  0
    3.4611  -10.1243    6.1143 H   0  0  0  0  0  0  0  0  0  0  0  0
    3.4714   -8.3862    6.2722 H   0  0  0  0  0  0  0  0  0  0  0  0
    1.2643   -9.5888    6.8774 H   0  0  0  0  0  0  0  0  0  0  0  0
    1.1050   -8.2353    5.8236 H   0  0  0  0  0  0  0  0  0  0  0  0
    0.1930  -10.8436    5.3793 H   0  0  0  0  0  0  0  0  0  0  0  0
   -0.6725  -10.0446    3.2437 H   0  0  0  0  0  0  0  0  0  0  0  0
   -1.7299   -9.3178    4.9170 H   0  0  0  0  0  0  0  0  0  0  0  0
   -0.0590   -8.0991    2.0808 H   0  0  0  0  0  0  0  0  0  0  0  0
    2.9024   -5.6944    4.3049 H   0  0  0  0  0  0  0  0  0  0  0  0
    1.4077   -6.2105    6.2233 H   0  0  0  0  0  0  0  0  0  0  0  0
    0.0892   -5.1938    8.0460 H   0  0  0  0  0  0  0  0  0  0  0  0
   -0.7058   -2.8547    7.8466 H   0  0  0  0  0  0  0  0  0  0  0  0
   -0.2511   -1.5592    5.7659 H   0  0  0  0  0  0  0  0  0  0  0  0
    0.2679   -2.4876    2.8833 H   0  0  0  0  0  0  0  0  0  0  0  0
    1.1574   -1.2947    3.8069 H   0  0  0  0  0  0  0  0  0  0  0  0
    2.7259   -0.8130    1.9875 H   0  0  0  0  0  0  0  0  0  0  0  0
    4.8199   -1.4609    0.8327 H   0  0  0  0  0  0  0  0  0  0  0  0
    5.6604   -3.8005    0.9895 H   0  0  0  0  0  0  0  0  0  0  0  0
    4.4263   -5.4686    2.3468 H   0  0  0  0  0  0  0  0  0  0  0  0
    2.4640   -8.5167    1.6486 H   0  0  0  0  0  0  0  0  0  0  0  0
    1.4147   -9.8716    1.4856 H   0  0  0  0  0  0  0  0  0  0  0  0
    2.3752  -11.3256    4.7353 H   0  0  0  0  0  0  0  0  0  0  0  0
  1  2  1  0
  1 29  1  0
  1 30  1  0
  1 31  1  0
  2  7  1  0
  2  3  1  0
  2 56  1  1
  3 28  1  0
  3  4  1  0
  3 32  1  6
  4  5  1  0
  4 33  1  0
  4 34  1  0
  5  6  1  0
  5 35  1  0
  5 36  1  0
  6  7  1  0
  6 37  1  0
  6 38  1  0
  7  8  1  0
  7 39  1  1
  8  9  1  0
  8 10  1  0
  8 40  1  6
  9 41  1  0
 10 11  1  0
 10 28  1  0
 10 42  1  6
 11 12  1  0
 12 13  2  0
 12 14  1  0
 14 27  1  0
 14 15  1  0
 14 43  1  0
 15 20  1  0
 15 16  2  0
 16 17  1  0
 16 44  1  0
 17 18  2  0
 17 45  1  0
 18 19  1  0
 18 46  1  0
 19 20  2  0
 19 47  1  0
 20 21  1  0
 21 22  1  0
 21 48  1  0
 21 49  1  0
 22 27  2  0
 22 23  1  0
 23 24  2  0
 23 50  1  0
 24 25  1  0
 24 51  1  0
 25 26  2  0
 25 52  1  0
 26 27  1  0
 26 53  1  0
 28 54  1  0
 28 55  1  0
M  CHG  1   2   1
M  END
>  <i_m_ct_stereo_status>  (256) 
1

>  <s_m_source_file>  (256) 
/var/tmp/pbs.5076255.sched01/tmpinim70aj/80j3ziidn5.sdf

>  <i_m_source_file_index>  (256) 
26

>  <i_lp_mmshare_version>  (256) 
48012

>  <i_f3d_flags>  (256) 
0

>  <s_epik_input>  (256) 
W0NIMl0xW0NIMl1bQ0gyXVtDSF0oTihbQ0gzXSlbQ0BIXTEyKVtDQEBIXShbT0hdKVtDQEhdKFtDSDJdMilPQyg9TylbQ0hdM2MoW2NIXVtjSF1bY0hdW2NIXTQpYzRbQ0gyXWMoYzM1KVtjSF1bY0hdW2NIXVtjSF01

>  <s_epik_cmdline>  (256) 
J2VwaWtfcHl0aG9uJywgJy1waHQnLCAnMi4wJywgJy1waCcsICc3LjAnLCAnLXRuJywgJzgnLCAnLW1hJywgJzIwMCcsICctaW1hZScsICc8aW5maWxlLm1hZT4nLCAnLW9tYWUnLCAnPG91dGZpbGUubWFlPic=

>  <r_epik_Ionization_Penalty>  (256) 
0.141076

>  <r_epik_Ionization_Penalty_Charging>  (256) 
0.141074

>  <r_epik_Ionization_Penalty_Neutral>  (256) 
1.91762e-06

>  <r_epik_State_Penalty>  (256) 
0.13039

>  <r_epik_Charging_Adjusted_Penalty>  (256) 
0.271464

>  <i_epik_Tot_Q>  (256) 
1

>  <i_epik_Tot_abs_Q>  (256) 
1

>  <s_epik_Chemistry_Notes>  (256) 
This compound has an ester and may undergo hydrolysis at high or low pH.

>  <s_lp_Force_Field>  (256) 
OPLS3e

>  <r_lp_Energy>  (256) 
62.5289

>  <b_lp_Chiralities_Consistent>  (256) 
1

>  <s_lp_Variant>  (256) 
81:0-1

>  <s_i_glide_gridfile>  (256) 
pfpi4k_grid

>  <i_i_glide_lignum>  (256) 
26

>  <i_i_glide_rotatable_bonds>  (256) 
4

>  <r_i_docking_score>  (256) 
-3.2707

>  <r_i_glide_ligand_efficiency>  (256) 
-0.116811

>  <r_i_glide_ligand_efficiency_sa>  (256) 
-0.354706

>  <r_i_glide_ligand_efficiency_ln>  (256) 
-0.754974

>  <r_i_glide_gscore>  (256) 
-3.2707

>  <r_i_glide_lipo>  (256) 
-0.160098

>  <r_i_glide_hbond>  (256) 
-0.127995

>  <r_i_glide_metal>  (256) 
-0

>  <r_i_glide_rewards>  (256) 
-0.828518

>  <r_i_glide_evdw>  (256) 
-18.9011

>  <r_i_glide_ecoul>  (256) 
-10.5715

>  <r_i_glide_erotb>  (256) 
0.405856

>  <r_i_glide_esite>  (256) 
-0.0291681

>  <r_i_glide_emodel>  (256) 
-38.3195

>  <r_i_glide_energy>  (256) 
-29.4726

>  <r_i_glide_einternal>  (256) 
1.56403

>  <r_i_glide_intrahb_reward>  (256) 
-0

>  <i_i_glide_confnum>  (256) 
4

>  <i_i_glide_posenum>  (256) 
34

>  <r_i_glide_eff_state_penalty>  (256) 
0

>  <ligand_id>  (256) 
81

>  <original_smiles>  (256) 
CN1C2CCCC1C(O)C(OC(=O)C1c3ccccc3Cc3ccccc31)C2

>  <smiles>  (256) 
[H]OC1([H])C([H])(OC(=O)C2([H])c3c([H])c([H])c([H])c([H])c3C([H])([H])c3c([H])c([H])c([H])c([H])c32)C([H])([H])C2([H])C([H])([H])C([H])([H])C([H])([H])C1([H])[N+]2([H])C([H])([H])[H]

$$$$
81:0:2
     RDKit          3D

 56 60  0  0  1  0  0  0  0  0999 V2000
    4.7698   -0.5197   -0.5379 C   0  0  0  0  0  0  0  0  0  0  0  0
    4.8340   -1.4001    0.6508 N   0  0  1  0  0  0  0  0  0  0  0  0
    3.5110   -1.7738    1.2064 C   0  0  2  0  0  0  0  0  0  0  0  0
    3.6686   -2.3637    2.6380 C   0  0  0  0  0  0  0  0  0  0  0  0
    5.1437   -2.6332    3.0159 C   0  0  0  0  0  0  0  0  0  0  0  0
    5.9547   -3.2478    1.8511 C   0  0  0  0  0  0  0  0  0  0  0  0
    5.6729   -2.6053    0.4731 C   0  0  1  0  0  0  0  0  0  0  0  0
    4.9932   -3.5769   -0.5210 C   0  0  1  0  0  0  0  0  0  0  0  0
    5.8003   -4.6914   -0.7182 O   0  0  0  0  0  0  0  0  0  0  0  0
    3.5573   -3.9970   -0.1506 C   0  0  1  0  0  0  0  0  0  0  0  0
    3.5583   -4.9216    0.9273 O   0  0  0  0  0  0  0  0  0  0  0  0
    2.5579   -5.7969    1.1263 C   0  0  0  0  0  0  0  0  0  0  0  0
    1.5313   -5.8763    0.4429 O   0  0  0  0  0  0  0  0  0  0  0  0
    2.7824   -6.6632    2.3801 C   0  0  0  0  0  0  0  0  0  0  0  0
    4.0629   -7.4934    2.3088 C   0  0  0  0  0  0  0  0  0  0  0  0
    5.3083   -6.9107    2.6137 C   0  0  0  0  0  0  0  0  0  0  0  0
    6.4961   -7.6631    2.5412 C   0  0  0  0  0  0  0  0  0  0  0  0
    6.4389   -9.0358    2.2439 C   0  0  0  0  0  0  0  0  0  0  0  0
    5.1957   -9.6396    1.9756 C   0  0  0  0  0  0  0  0  0  0  0  0
    4.0091   -8.8700    1.9923 C   0  0  0  0  0  0  0  0  0  0  0  0
    2.6780   -9.5368    1.7236 C   0  0  0  0  0  0  0  0  0  0  0  0
    1.5092   -8.8623    2.4264 C   0  0  0  0  0  0  0  0  0  0  0  0
    0.3718   -9.6140    2.7743 C   0  0  0  0  0  0  0  0  0  0  0  0
   -0.7288   -8.9861    3.3808 C   0  0  0  0  0  0  0  0  0  0  0  0
   -0.6949   -7.6095    3.6658 C   0  0  0  0  0  0  0  0  0  0  0  0
    0.4447   -6.8573    3.3428 C   0  0  0  0  0  0  0  0  0  0  0  0
    1.5517   -7.4808    2.7259 C   0  0  0  0  0  0  0  0  0  0  0  0
    2.7790   -2.7322    0.2364 C   0  0  0  0  0  0  0  0  0  0  0  0
    4.2837   -0.9705   -1.4056 H   0  0  0  0  0  0  0  0  0  0  0  0
    5.7840   -0.2558   -0.8463 H   0  0  0  0  0  0  0  0  0  0  0  0
    4.2185    0.3796   -0.2717 H   0  0  0  0  0  0  0  0  0  0  0  0
    2.9132   -0.8644    1.2992 H   0  0  0  0  0  0  0  0  0  0  0  0
    3.2235   -1.6861    3.3736 H   0  0  0  0  0  0  0  0  0  0  0  0
    3.0804   -3.2770    2.7447 H   0  0  0  0  0  0  0  0  0  0  0  0
    5.6029   -1.6871    3.3105 H   0  0  0  0  0  0  0  0  0  0  0  0
    5.1941   -3.2815    3.8894 H   0  0  0  0  0  0  0  0  0  0  0  0
    7.0179   -3.1903    2.0708 H   0  0  0  0  0  0  0  0  0  0  0  0
    5.7720   -4.3106    1.7786 H   0  0  0  0  0  0  0  0  0  0  0  0
    6.6339   -2.3055    0.0483 H   0  0  0  0  0  0  0  0  0  0  0  0
    4.9433   -3.1050   -1.5026 H   0  0  0  0  0  0  0  0  0  0  0  0
    5.3802   -5.2519   -1.3771 H   0  0  0  0  0  0  0  0  0  0  0  0
    3.0820   -4.4594   -1.0180 H   0  0  0  0  0  0  0  0  0  0  0  0
    2.9279   -5.9701    3.2094 H   0  0  0  0  0  0  0  0  0  0  0  0
    5.3521   -5.8792    2.9304 H   0  0  0  0  0  0  0  0  0  0  0  0
    7.4472   -7.1975    2.7489 H   0  0  0  0  0  0  0  0  0  0  0  0
    7.3401   -9.6327    2.2533 H   0  0  0  0  0  0  0  0  0  0  0  0
    5.1419  -10.7023    1.7773 H   0  0  0  0  0  0  0  0  0  0  0  0
    2.4979   -9.5342    0.6470 H   0  0  0  0  0  0  0  0  0  0  0  0
    2.7259  -10.5865    2.0290 H   0  0  0  0  0  0  0  0  0  0  0  0
    0.3399  -10.6690    2.5551 H   0  0  0  0  0  0  0  0  0  0  0  0
   -1.5942   -9.5648    3.6462 H   0  0  0  0  0  0  0  0  0  0  0  0
   -1.5456   -7.1464    4.1462 H   0  0  0  0  0  0  0  0  0  0  0  0
    0.4706   -5.7983    3.5616 H   0  0  0  0  0  0  0  0  0  0  0  0
    1.8118   -2.9842    0.6612 H   0  0  0  0  0  0  0  0  0  0  0  0
    2.5979   -2.2162   -0.7043 H   0  0  0  0  0  0  0  0  0  0  0  0
    5.2885   -0.8659    1.3776 H   0  0  0  0  0  0  0  0  0  0  0  0
  1  2  1  0
  1 29  1  0
  1 30  1  0
  1 31  1  0
  2  7  1  0
  2  3  1  0
  2 56  1  1
  3 28  1  0
  3  4  1  0
  3 32  1  1
  4  5  1  0
  4 33  1  0
  4 34  1  0
  5  6  1  0
  5 35  1  0
  5 36  1  0
  6  7  1  0
  6 37  1  0
  6 38  1  0
  7  8  1  0
  7 39  1  6
  8  9  1  0
  8 10  1  0
  8 40  1  6
  9 41  1  0
 10 11  1  0
 10 28  1  0
 10 42  1  6
 11 12  1  0
 12 13  2  0
 12 14  1  0
 14 27  1  0
 14 15  1  0
 14 43  1  0
 15 20  1  0
 15 16  2  0
 16 17  1  0
 16 44  1  0
 17 18  2  0
 17 45  1  0
 18 19  1  0
 18 46  1  0
 19 20  2  0
 19 47  1  0
 20 21  1  0
 21 22  1  0
 21 48  1  0
 21 49  1  0
 22 27  2  0
 22 23  1  0
 23 24  2  0
 23 50  1  0
 24 25  1  0
 24 51  1  0
 25 26  2  0
 25 52  1  0
 26 27  1  0
 26 53  1  0
 28 54  1  0
 28 55  1  0
M  CHG  1   2   1
M  END
>  <i_m_ct_stereo_status>  (257) 
1

>  <s_m_source_file>  (257) 
/var/tmp/pbs.5076255.sched01/tmpinim70aj/80j3ziidn5.sdf

>  <i_m_source_file_index>  (257) 
26

>  <i_lp_mmshare_version>  (257) 
48012

>  <i_f3d_flags>  (257) 
0

>  <s_epik_input>  (257) 
W0NIMl0xW0NIMl1bQ0gyXVtDSF0oTihbQ0gzXSlbQ0BIXTEyKVtDQEBIXShbT0hdKVtDQEhdKFtDSDJdMilPQyg9TylbQ0hdM2MoW2NIXVtjSF1bY0hdW2NIXTQpYzRbQ0gyXWMoYzM1KVtjSF1bY0hdW2NIXVtjSF01

>  <s_epik_cmdline>  (257) 
J2VwaWtfcHl0aG9uJywgJy1waHQnLCAnMi4wJywgJy1waCcsICc3LjAnLCAnLXRuJywgJzgnLCAnLW1hJywgJzIwMCcsICctaW1hZScsICc8aW5maWxlLm1hZT4nLCAnLW9tYWUnLCAnPG91dGZpbGUubWFlPic=

>  <r_epik_Ionization_Penalty>  (257) 
0.141076

>  <r_epik_Ionization_Penalty_Charging>  (257) 
0.141074

>  <r_epik_Ionization_Penalty_Neutral>  (257) 
1.91762e-06

>  <r_epik_State_Penalty>  (257) 
0.13039

>  <r_epik_Charging_Adjusted_Penalty>  (257) 
0.271464

>  <i_epik_Tot_Q>  (257) 
1

>  <i_epik_Tot_abs_Q>  (257) 
1

>  <s_epik_Chemistry_Notes>  (257) 
This compound has an ester and may undergo hydrolysis at high or low pH.

>  <s_lp_Force_Field>  (257) 
OPLS3e

>  <r_lp_Energy>  (257) 
62.5289

>  <b_lp_Chiralities_Consistent>  (257) 
1

>  <s_lp_Variant>  (257) 
81:0-1

>  <s_i_glide_gridfile>  (257) 
pfpi4k_grid

>  <i_i_glide_lignum>  (257) 
26

>  <i_i_glide_rotatable_bonds>  (257) 
4

>  <r_i_docking_score>  (257) 
-3.11902

>  <r_i_glide_ligand_efficiency>  (257) 
-0.111394

>  <r_i_glide_ligand_efficiency_sa>  (257) 
-0.338256

>  <r_i_glide_ligand_efficiency_ln>  (257) 
-0.719961

>  <r_i_glide_gscore>  (257) 
-3.11902

>  <r_i_glide_lipo>  (257) 
-0.283909

>  <r_i_glide_hbond>  (257) 
-0.149258

>  <r_i_glide_metal>  (257) 
-0

>  <r_i_glide_rewards>  (257) 
-0.828518

>  <r_i_glide_evdw>  (257) 
-21.9811

>  <r_i_glide_ecoul>  (257) 
-7.61723

>  <r_i_glide_erotb>  (257) 
0.405856

>  <r_i_glide_esite>  (257) 
-0.0215487

>  <r_i_glide_emodel>  (257) 
-37.8372

>  <r_i_glide_energy>  (257) 
-29.5984

>  <r_i_glide_einternal>  (257) 
1.04291

>  <r_i_glide_intrahb_reward>  (257) 
-0

>  <i_i_glide_confnum>  (257) 
3

>  <i_i_glide_posenum>  (257) 
24

>  <r_i_glide_eff_state_penalty>  (257) 
0

>  <ligand_id>  (257) 
81

>  <original_smiles>  (257) 
CN1C2CCCC1C(O)C(OC(=O)C1c3ccccc3Cc3ccccc31)C2

>  <smiles>  (257) 
[H]OC1([H])C([H])(OC(=O)C2([H])c3c([H])c([H])c([H])c([H])c3C([H])([H])c3c([H])c([H])c([H])c([H])c32)C([H])([H])C2([H])C([H])([H])C([H])([H])C([H])([H])C1([H])[N+]2([H])C([H])([H])[H]

$$$$
81:1:0
     RDKit          3D

 55 59  0  0  1  0  0  0  0  0999 V2000
    5.0904   -1.3077   -1.7335 C   0  0  0  0  0  0  0  0  0  0  0  0
    5.1439   -1.7447   -0.3340 N   0  0  0  0  0  0  0  0  0  0  0  0
    3.8734   -1.6737    0.3842 C   0  0  2  0  0  0  0  0  0  0  0  0
    4.1205   -1.7123    1.9181 C   0  0  0  0  0  0  0  0  0  0  0  0
    5.0458   -2.8564    2.4142 C   0  0  0  0  0  0  0  0  0  0  0  0
    6.1631   -3.1738    1.3873 C   0  0  0  0  0  0  0  0  0  0  0  0
    5.7360   -3.0539   -0.1000 C   0  0  1  0  0  0  0  0  0  0  0  0
    4.8466   -4.2119   -0.6398 C   0  0  1  0  0  0  0  0  0  0  0  0
    5.4090   -5.4581   -0.3106 O   0  0  0  0  0  0  0  0  0  0  0  0
    3.3541   -4.1610   -0.2237 C   0  0  1  0  0  0  0  0  0  0  0  0
    3.2350   -4.8251    1.0341 O   0  0  0  0  0  0  0  0  0  0  0  0
    2.2370   -5.6791    1.3108 C   0  0  0  0  0  0  0  0  0  0  0  0
    1.2402   -5.8806    0.6044 O   0  0  0  0  0  0  0  0  0  0  0  0
    2.4639   -6.3613    2.6688 C   0  0  0  0  0  0  0  0  0  0  0  0
    3.6499   -7.3300    2.6295 C   0  0  0  0  0  0  0  0  0  0  0  0
    4.9594   -6.9093    2.9664 C   0  0  0  0  0  0  0  0  0  0  0  0
    6.0233   -7.8311    2.9481 C   0  0  0  0  0  0  0  0  0  0  0  0
    5.7899   -9.1753    2.6139 C   0  0  0  0  0  0  0  0  0  0  0  0
    4.4876   -9.6008    2.2839 C   0  0  0  0  0  0  0  0  0  0  0  0
    3.4202   -8.6770    2.2956 C   0  0  0  0  0  0  0  0  0  0  0  0
    2.0115   -9.1432    1.9674 C   0  0  0  0  0  0  0  0  0  0  0  0
    0.9734   -8.3961    2.7903 C   0  0  0  0  0  0  0  0  0  0  0  0
   -0.2157   -9.0457    3.1945 C   0  0  0  0  0  0  0  0  0  0  0  0
   -1.1699   -8.3333    3.9477 C   0  0  0  0  0  0  0  0  0  0  0  0
   -0.9494   -6.9971    4.3058 C   0  0  0  0  0  0  0  0  0  0  0  0
    0.2383   -6.3457    3.9051 C   0  0  0  0  0  0  0  0  0  0  0  0
    1.1956   -7.0530    3.1442 C   0  0  0  0  0  0  0  0  0  0  0  0
    2.8416   -2.7107   -0.1354 C   0  0  0  0  0  0  0  0  0  0  0  0
    4.2819   -1.7627   -2.2975 H   0  0  0  0  0  0  0  0  0  0  0  0
    6.0198   -1.5280   -2.2556 H   0  0  0  0  0  0  0  0  0  0  0  0
    4.9449   -0.2311   -1.7766 H   0  0  0  0  0  0  0  0  0  0  0  0
    3.4358   -0.6969    0.1819 H   0  0  0  0  0  0  0  0  0  0  0  0
    4.5947   -0.7766    2.1901 H   0  0  0  0  0  0  0  0  0  0  0  0
    3.1681   -1.7312    2.4425 H   0  0  0  0  0  0  0  0  0  0  0  0
    5.4988   -2.5826    3.3727 H   0  0  0  0  0  0  0  0  0  0  0  0
    4.4659   -3.7595    2.6577 H   0  0  0  0  0  0  0  0  0  0  0  0
    6.9677   -2.4651    1.5422 H   0  0  0  0  0  0  0  0  0  0  0  0
    6.5917   -4.1547    1.5826 H   0  0  0  0  0  0  0  0  0  0  0  0
    6.6578   -3.1066   -0.6742 H   0  0  0  0  0  0  0  0  0  0  0  0
    4.8472   -4.1239   -1.7308 H   0  0  0  0  0  0  0  0  0  0  0  0
    4.9156   -6.1254   -0.7857 H   0  0  0  0  0  0  0  0  0  0  0  0
    2.7612   -4.6743   -0.9923 H   0  0  0  0  0  0  0  0  0  0  0  0
    2.7065   -5.5943    3.3958 H   0  0  0  0  0  0  0  0  0  0  0  0
    5.1575   -5.8863    3.2450 H   0  0  0  0  0  0  0  0  0  0  0  0
    7.0281   -7.5184    3.2097 H   0  0  0  0  0  0  0  0  0  0  0  0
    6.5998   -9.8957    2.6139 H   0  0  0  0  0  0  0  0  0  0  0  0
    4.3032  -10.6412    2.0459 H   0  0  0  0  0  0  0  0  0  0  0  0
    1.8271   -8.9479    0.9142 H   0  0  0  0  0  0  0  0  0  0  0  0
    1.9194  -10.2156    2.1136 H   0  0  0  0  0  0  0  0  0  0  0  0
   -0.3884  -10.0766    2.9294 H   0  0  0  0  0  0  0  0  0  0  0  0
   -2.0677   -8.8474    4.2689 H   0  0  0  0  0  0  0  0  0  0  0  0
   -1.6900   -6.4641    4.8881 H   0  0  0  0  0  0  0  0  0  0  0  0
    0.4021   -5.3103    4.1701 H   0  0  0  0  0  0  0  0  0  0  0  0
    1.9130   -2.6618    0.4265 H   0  0  0  0  0  0  0  0  0  0  0  0
    2.5734   -2.4304   -1.1494 H   0  0  0  0  0  0  0  0  0  0  0  0
  1  2  1  0
  1 29  1  0
  1 30  1  0
  1 31  1  0
  2  7  1  0
  2  3  1  0
  3 28  1  0
  3  4  1  0
  3 32  1  1
  4  5  1  0
  4 33  1  0
  4 34  1  0
  5  6  1  0
  5 35  1  0
  5 36  1  0
  6  7  1  0
  6 37  1  0
  6 38  1  0
  7  8  1  0
  7 39  1  6
  8  9  1  0
  8 10  1  0
  8 40  1  6
  9 41  1  0
 10 11  1  0
 10 28  1  0
 10 42  1  6
 11 12  1  0
 12 13  2  0
 12 14  1  0
 14 27  1  0
 14 15  1  0
 14 43  1  0
 15 20  1  0
 15 16  2  0
 16 17  1  0
 16 44  1  0
 17 18  2  0
 17 45  1  0
 18 19  1  0
 18 46  1  0
 19 20  2  0
 19 47  1  0
 20 21  1  0
 21 22  1  0
 21 48  1  0
 21 49  1  0
 22 27  2  0
 22 23  1  0
 23 24  2  0
 23 50  1  0
 24 25  1  0
 24 51  1  0
 25 26  2  0
 25 52  1  0
 26 27  1  0
 26 53  1  0
 28 54  1  0
 28 55  1  0
M  END
>  <i_m_ct_stereo_status>  (258) 
1

>  <s_m_source_file>  (258) 
/var/tmp/pbs.5076255.sched01/tmpinim70aj/80j3ziidn5.sdf

>  <i_m_source_file_index>  (258) 
27

>  <i_lp_mmshare_version>  (258) 
48012

>  <i_f3d_flags>  (258) 
0

>  <s_epik_input>  (258) 
W0NIMl0xW0NIMl1bQ0gyXVtDSF0oTihbQ0gzXSlbQ0BIXTEyKVtDQEBIXShbT0hdKVtDQEhdKFtDSDJdMilPQyg9TylbQ0hdM2MoW2NIXVtjSF1bY0hdW2NIXTQpYzRbQ0gyXWMoYzM1KVtjSF1bY0hdW2NIXVtjSF01

>  <s_epik_cmdline>  (258) 
J2VwaWtfcHl0aG9uJywgJy1waHQnLCAnMi4wJywgJy1waCcsICc3LjAnLCAnLXRuJywgJzgnLCAnLW1hJywgJzIwMCcsICctaW1hZScsICc8aW5maWxlLm1hZT4nLCAnLW9tYWUnLCAnPG91dGZpbGUubWFlPic=

>  <r_epik_Ionization_Penalty>  (258) 
0.919379

>  <r_epik_Ionization_Penalty_Charging>  (258) 
0

>  <r_epik_Ionization_Penalty_Neutral>  (258) 
0.919379

>  <r_epik_State_Penalty>  (258) 
0.960904

>  <r_epik_Charging_Adjusted_Penalty>  (258) 
0.960904

>  <i_epik_Tot_Q>  (258) 
0

>  <i_epik_Tot_abs_Q>  (258) 
0

>  <s_epik_Chemistry_Notes>  (258) 
This compound has an ester and may undergo hydrolysis at high or low pH.

>  <s_lp_Force_Field>  (258) 
OPLS3e

>  <r_lp_Energy>  (258) 
45.3994

>  <b_lp_Chiralities_Consistent>  (258) 
1

>  <s_lp_Variant>  (258) 
81:0-2

>  <s_i_glide_gridfile>  (258) 
pfpi4k_grid

>  <i_i_glide_lignum>  (258) 
27

>  <i_i_glide_rotatable_bonds>  (258) 
4

>  <r_i_docking_score>  (258) 
-3.25778

>  <r_i_glide_ligand_efficiency>  (258) 
-0.116349

>  <r_i_glide_ligand_efficiency_sa>  (258) 
-0.353305

>  <r_i_glide_ligand_efficiency_ln>  (258) 
-0.751991

>  <r_i_glide_gscore>  (258) 
-3.25778

>  <r_i_glide_lipo>  (258) 
-0.290436

>  <r_i_glide_hbond>  (258) 
-0.16

>  <r_i_glide_metal>  (258) 
-0

>  <r_i_glide_rewards>  (258) 
-0.83539

>  <r_i_glide_evdw>  (258) 
-26.434

>  <r_i_glide_ecoul>  (258) 
-6.8372

>  <r_i_glide_erotb>  (258) 
0.407799

>  <r_i_glide_esite>  (258) 
-0.0324722

>  <r_i_glide_emodel>  (258) 
-38.7541

>  <r_i_glide_energy>  (258) 
-33.2712

>  <r_i_glide_einternal>  (258) 
1.76881

>  <r_i_glide_intrahb_reward>  (258) 
-0

>  <i_i_glide_confnum>  (258) 
6

>  <i_i_glide_posenum>  (258) 
8

>  <r_i_glide_eff_state_penalty>  (258) 
0

>  <ligand_id>  (258) 
81

>  <original_smiles>  (258) 
CN1C2CCCC1C(O)C(OC(=O)C1c3ccccc3Cc3ccccc31)C2

>  <smiles>  (258) 
[H]OC1([H])C([H])(OC(=O)C2([H])c3c([H])c([H])c([H])c([H])c3C([H])([H])c3c([H])c([H])c([H])c([H])c32)C([H])([H])C2([H])N(C([H])([H])[H])C1([H])C([H])([H])C([H])([H])C2([H])[H]

$$$$
81:1:1
     RDKit          3D

 55 59  0  0  1  0  0  0  0  0999 V2000
    5.0504   -1.2684   -1.6908 C   0  0  0  0  0  0  0  0  0  0  0  0
    5.0940   -1.7226   -0.3115 N   0  0  0  0  0  0  0  0  0  0  0  0
    3.8184   -1.6600    0.3990 C   0  0  2  0  0  0  0  0  0  0  0  0
    4.0705   -1.6607    1.9219 C   0  0  0  0  0  0  0  0  0  0  0  0
    5.0109   -2.7890    2.3745 C   0  0  0  0  0  0  0  0  0  0  0  0
    6.1503   -3.1191    1.3885 C   0  0  0  0  0  0  0  0  0  0  0  0
    5.7146   -3.0257   -0.0899 C   0  0  1  0  0  0  0  0  0  0  0  0
    4.8384   -4.1975   -0.6339 C   0  0  1  0  0  0  0  0  0  0  0  0
    5.4182   -5.4582   -0.3683 O   0  0  0  0  0  0  0  0  0  0  0  0
    3.3394   -4.1867   -0.2194 C   0  0  1  0  0  0  0  0  0  0  0  0
    3.2205   -4.9003    1.0108 O   0  0  0  0  0  0  0  0  0  0  0  0
    2.1882   -5.6791    1.3347 C   0  0  0  0  0  0  0  0  0  0  0  0
    1.2004   -5.8655    0.6256 O   0  0  0  0  0  0  0  0  0  0  0  0
    2.3751   -6.3670    2.7153 C   0  0  0  0  0  0  0  0  0  0  0  0
    1.0862   -7.0049    3.1686 C   0  0  0  0  0  0  0  0  0  0  0  0
    0.7598   -8.3145    2.7795 C   0  0  0  0  0  0  0  0  0  0  0  0
   -0.4361   -8.9114    3.2376 C   0  0  0  0  0  0  0  0  0  0  0  0
   -1.2930   -8.1867    4.0927 C   0  0  0  0  0  0  0  0  0  0  0  0
   -0.9747   -6.8721    4.4843 C   0  0  0  0  0  0  0  0  0  0  0  0
    0.2101   -6.2740    4.0271 C   0  0  0  0  0  0  0  0  0  0  0  0
    0.5884   -4.8709    4.4571 C   0  0  0  0  0  0  0  0  0  0  0  0
    2.0730   -4.7229    4.6564 C   0  0  0  0  0  0  0  0  0  0  0  0
    2.5937   -3.8815    5.6526 C   0  0  0  0  0  0  0  0  0  0  0  0
    3.9858   -3.7532    5.8247 C   0  0  0  0  0  0  0  0  0  0  0  0
    4.8624   -4.5130    5.0195 C   0  0  0  0  0  0  0  0  0  0  0  0
    4.3358   -5.3952    4.0343 C   0  0  0  0  0  0  0  0  0  0  0  0
    2.9564   -5.4711    3.8102 C   0  0  0  0  0  0  0  0  0  0  0  0
    2.8070   -2.7325   -0.1152 C   0  0  0  0  0  0  0  0  0  0  0  0
    4.2483   -1.7339   -2.2592 H   0  0  0  0  0  0  0  0  0  0  0  0
    5.9936   -1.4700   -2.1965 H   0  0  0  0  0  0  0  0  0  0  0  0
    4.8864   -0.1907   -1.7047 H   0  0  0  0  0  0  0  0  0  0  0  0
    3.3546   -0.6923    0.1933 H   0  0  0  0  0  0  0  0  0  0  0  0
    4.4905   -0.7047    2.2273 H   0  0  0  0  0  0  0  0  0  0  0  0
    3.1292   -1.7743    2.4459 H   0  0  0  0  0  0  0  0  0  0  0  0
    5.4341   -2.5510    3.3622 H   0  0  0  0  0  0  0  0  0  0  0  0
    4.3823   -3.6496    2.4723 H   0  0  0  0  0  0  0  0  0  0  0  0
    6.9817   -2.4363    1.5510 H   0  0  0  0  0  0  0  0  0  0  0  0
    6.5315   -4.1107    1.6052 H   0  0  0  0  0  0  0  0  0  0  0  0
    6.6443   -3.0650   -0.6643 H   0  0  0  0  0  0  0  0  0  0  0  0
    4.8438   -4.1062   -1.7222 H   0  0  0  0  0  0  0  0  0  0  0  0
    4.9257   -6.1211   -0.8203 H   0  0  0  0  0  0  0  0  0  0  0  0
    2.7594   -4.6881   -1.0025 H   0  0  0  0  0  0  0  0  0  0  0  0
    3.1028   -7.1628    2.5447 H   0  0  0  0  0  0  0  0  0  0  0  0
    1.4267   -8.8677    2.1308 H   0  0  0  0  0  0  0  0  0  0  0  0
   -0.6762   -9.9167    2.9531 H   0  0  0  0  0  0  0  0  0  0  0  0
   -2.1813   -8.6578    4.4653 H   0  0  0  0  0  0  0  0  0  0  0  0
   -1.6270   -6.3349    5.1537 H   0  0  0  0  0  0  0  0  0  0  0  0
    0.2561   -4.1551    3.7008 H   0  0  0  0  0  0  0  0  0  0  0  0
    0.0710   -4.6015    5.3820 H   0  0  0  0  0  0  0  0  0  0  0  0
    1.9335   -3.2573    6.2392 H   0  0  0  0  0  0  0  0  0  0  0  0
    4.3886   -3.0320    6.5266 H   0  0  0  0  0  0  0  0  0  0  0  0
    5.9257   -4.3936    5.1309 H   0  0  0  0  0  0  0  0  0  0  0  0
    5.0292   -5.9501    3.4227 H   0  0  0  0  0  0  0  0  0  0  0  0
    1.8725   -2.6844    0.4371 H   0  0  0  0  0  0  0  0  0  0  0  0
    2.5370   -2.4528   -1.1336 H   0  0  0  0  0  0  0  0  0  0  0  0
  1  2  1  0
  1 29  1  0
  1 30  1  0
  1 31  1  0
  2  7  1  0
  2  3  1  0
  3 28  1  0
  3  4  1  0
  3 32  1  6
  4  5  1  0
  4 33  1  0
  4 34  1  0
  5  6  1  0
  5 35  1  0
  5 36  1  0
  6  7  1  0
  6 37  1  0
  6 38  1  0
  7  8  1  0
  7 39  1  6
  8  9  1  0
  8 10  1  0
  8 40  1  6
  9 41  1  0
 10 11  1  0
 10 28  1  0
 10 42  1  6
 11 12  1  0
 12 13  2  0
 12 14  1  0
 14 27  1  0
 14 15  1  0
 14 43  1  0
 15 20  1  0
 15 16  2  0
 16 17  1  0
 16 44  1  0
 17 18  2  0
 17 45  1  0
 18 19  1  0
 18 46  1  0
 19 20  2  0
 19 47  1  0
 20 21  1  0
 21 22  1  0
 21 48  1  0
 21 49  1  0
 22 27  2  0
 22 23  1  0
 23 24  2  0
 23 50  1  0
 24 25  1  0
 24 51  1  0
 25 26  2  0
 25 52  1  0
 26 27  1  0
 26 53  1  0
 28 54  1  0
 28 55  1  0
M  END
>  <i_m_ct_stereo_status>  (259) 
1

>  <s_m_source_file>  (259) 
/var/tmp/pbs.5076255.sched01/tmpinim70aj/80j3ziidn5.sdf

>  <i_m_source_file_index>  (259) 
27

>  <i_lp_mmshare_version>  (259) 
48012

>  <i_f3d_flags>  (259) 
0

>  <s_epik_input>  (259) 
W0NIMl0xW0NIMl1bQ0gyXVtDSF0oTihbQ0gzXSlbQ0BIXTEyKVtDQEBIXShbT0hdKVtDQEhdKFtDSDJdMilPQyg9TylbQ0hdM2MoW2NIXVtjSF1bY0hdW2NIXTQpYzRbQ0gyXWMoYzM1KVtjSF1bY0hdW2NIXVtjSF01

>  <s_epik_cmdline>  (259) 
J2VwaWtfcHl0aG9uJywgJy1waHQnLCAnMi4wJywgJy1waCcsICc3LjAnLCAnLXRuJywgJzgnLCAnLW1hJywgJzIwMCcsICctaW1hZScsICc8aW5maWxlLm1hZT4nLCAnLW9tYWUnLCAnPG91dGZpbGUubWFlPic=

>  <r_epik_Ionization_Penalty>  (259) 
0.919379

>  <r_epik_Ionization_Penalty_Charging>  (259) 
0

>  <r_epik_Ionization_Penalty_Neutral>  (259) 
0.919379

>  <r_epik_State_Penalty>  (259) 
0.960904

>  <r_epik_Charging_Adjusted_Penalty>  (259) 
0.960904

>  <i_epik_Tot_Q>  (259) 
0

>  <i_epik_Tot_abs_Q>  (259) 
0

>  <s_epik_Chemistry_Notes>  (259) 
This compound has an ester and may undergo hydrolysis at high or low pH.

>  <s_lp_Force_Field>  (259) 
OPLS3e

>  <r_lp_Energy>  (259) 
45.3994

>  <b_lp_Chiralities_Consistent>  (259) 
1

>  <s_lp_Variant>  (259) 
81:0-2

>  <s_i_glide_gridfile>  (259) 
pfpi4k_grid

>  <i_i_glide_lignum>  (259) 
27

>  <i_i_glide_rotatable_bonds>  (259) 
4

>  <r_i_docking_score>  (259) 
-2.94858

>  <r_i_glide_ligand_efficiency>  (259) 
-0.105306

>  <r_i_glide_ligand_efficiency_sa>  (259) 
-0.319772

>  <r_i_glide_ligand_efficiency_ln>  (259) 
-0.680619

>  <r_i_glide_gscore>  (259) 
-2.94858

>  <r_i_glide_lipo>  (259) 
-0.218957

>  <r_i_glide_hbond>  (259) 
-0.16

>  <r_i_glide_metal>  (259) 
-0

>  <r_i_glide_rewards>  (259) 
-0.83539

>  <r_i_glide_evdw>  (259) 
-22.6144

>  <r_i_glide_ecoul>  (259) 
-6.51542

>  <r_i_glide_erotb>  (259) 
0.407799

>  <r_i_glide_esite>  (259) 
-0.0339958

>  <r_i_glide_emodel>  (259) 
-32.917

>  <r_i_glide_energy>  (259) 
-29.1298

>  <r_i_glide_einternal>  (259) 
1.87847

>  <r_i_glide_intrahb_reward>  (259) 
-0

>  <i_i_glide_confnum>  (259) 
6

>  <i_i_glide_posenum>  (259) 
20

>  <r_i_glide_eff_state_penalty>  (259) 
0

>  <ligand_id>  (259) 
81

>  <original_smiles>  (259) 
CN1C2CCCC1C(O)C(OC(=O)C1c3ccccc3Cc3ccccc31)C2

>  <smiles>  (259) 
[H]OC1([H])C([H])(OC(=O)C2([H])c3c([H])c([H])c([H])c([H])c3C([H])([H])c3c([H])c([H])c([H])c([H])c32)C([H])([H])C2([H])N(C([H])([H])[H])C1([H])C([H])([H])C([H])([H])C2([H])[H]

$$$$
81:1:2
     RDKit          3D

 55 59  0  0  1  0  0  0  0  0999 V2000
    4.8568   -1.7074   -1.8172 C   0  0  0  0  0  0  0  0  0  0  0  0
    5.0153   -2.1226   -0.4192 N   0  0  0  0  0  0  0  0  0  0  0  0
    3.8269   -1.9486    0.4120 C   0  0  2  0  0  0  0  0  0  0  0  0
    4.2213   -1.9664    1.9173 C   0  0  0  0  0  0  0  0  0  0  0  0
    5.1294   -3.1497    2.3549 C   0  0  0  0  0  0  0  0  0  0  0  0
    6.1111   -3.5713    1.2367 C   0  0  0  0  0  0  0  0  0  0  0  0
    5.5367   -3.4633   -0.1998 C   0  0  1  0  0  0  0  0  0  0  0  0
    4.5218   -4.5685   -0.6077 C   0  0  1  0  0  0  0  0  0  0  0  0
    5.0118   -5.8597   -0.3235 O   0  0  0  0  0  0  0  0  0  0  0  0
    3.0743   -4.4104   -0.0608 C   0  0  1  0  0  0  0  0  0  0  0  0
    3.0013   -4.9884    1.2439 O   0  0  0  0  0  0  0  0  0  0  0  0
    2.1007   -5.9387    1.5768 C   0  0  0  0  0  0  0  0  0  0  0  0
    1.1194   -6.2937    0.8975 O   0  0  0  0  0  0  0  0  0  0  0  0
    2.4156   -6.5023    2.9678 C   0  0  0  0  0  0  0  0  0  0  0  0
    2.0757   -7.9813    3.0492 C   0  0  0  0  0  0  0  0  0  0  0  0
    3.0290   -8.9628    2.6933 C   0  0  0  0  0  0  0  0  0  0  0  0
    2.6849  -10.3260    2.7691 C   0  0  0  0  0  0  0  0  0  0  0  0
    1.4024  -10.7117    3.2054 C   0  0  0  0  0  0  0  0  0  0  0  0
    0.4489   -9.7369    3.5537 C   0  0  0  0  0  0  0  0  0  0  0  0
    0.7949   -8.3712    3.4856 C   0  0  0  0  0  0  0  0  0  0  0  0
   -0.2199   -7.3139    3.8736 C   0  0  0  0  0  0  0  0  0  0  0  0
    0.4501   -6.1112    4.5134 C   0  0  0  0  0  0  0  0  0  0  0  0
   -0.1943   -5.4122    5.5591 C   0  0  0  0  0  0  0  0  0  0  0  0
    0.4373   -4.3013    6.1581 C   0  0  0  0  0  0  0  0  0  0  0  0
    1.7084   -3.8971    5.7269 C   0  0  0  0  0  0  0  0  0  0  0  0
    2.3614   -4.6045    4.6933 C   0  0  0  0  0  0  0  0  0  0  0  0
    1.7278   -5.7053    4.0782 C   0  0  0  0  0  0  0  0  0  0  0  0
    2.6705   -2.9202    0.0238 C   0  0  0  0  0  0  0  0  0  0  0  0
    3.9688   -2.1177   -2.2890 H   0  0  0  0  0  0  0  0  0  0  0  0
    5.7163   -1.9989   -2.4190 H   0  0  0  0  0  0  0  0  0  0  0  0
    4.7805   -0.6222   -1.8724 H   0  0  0  0  0  0  0  0  0  0  0  0
    3.4358   -0.9497    0.2257 H   0  0  0  0  0  0  0  0  0  0  0  0
    4.7764   -1.0580    2.1139 H   0  0  0  0  0  0  0  0  0  0  0  0
    3.3273   -1.9104    2.5365 H   0  0  0  0  0  0  0  0  0  0  0  0
    5.6811   -2.8869    3.2630 H   0  0  0  0  0  0  0  0  0  0  0  0
    4.5417   -4.0235    2.6689 H   0  0  0  0  0  0  0  0  0  0  0  0
    6.9736   -2.9190    1.2918 H   0  0  0  0  0  0  0  0  0  0  0  0
    6.4822   -4.5784    1.4209 H   0  0  0  0  0  0  0  0  0  0  0  0
    6.3887   -3.5940   -0.8606 H   0  0  0  0  0  0  0  0  0  0  0  0
    4.4393   -4.4943   -1.6930 H   0  0  0  0  0  0  0  0  0  0  0  0
    4.4784   -6.4754   -0.8203 H   0  0  0  0  0  0  0  0  0  0  0  0
    2.3821   -4.9196   -0.7521 H   0  0  0  0  0  0  0  0  0  0  0  0
    3.4866   -6.4169    3.1411 H   0  0  0  0  0  0  0  0  0  0  0  0
    4.0176   -8.6780    2.3541 H   0  0  0  0  0  0  0  0  0  0  0  0
    3.4064  -11.0879    2.4818 H   0  0  0  0  0  0  0  0  0  0  0  0
    1.1437  -11.7615    3.2651 H   0  0  0  0  0  0  0  0  0  0  0  0
   -0.5421  -10.0347    3.8819 H   0  0  0  0  0  0  0  0  0  0  0  0
   -0.7319   -6.9842    2.9731 H   0  0  0  0  0  0  0  0  0  0  0  0
   -0.9709   -7.7329    4.5380 H   0  0  0  0  0  0  0  0  0  0  0  0
   -1.1681   -5.7265    5.8949 H   0  0  0  0  0  0  0  0  0  0  0  0
   -0.0661   -3.7681    6.9603 H   0  0  0  0  0  0  0  0  0  0  0  0
    2.1937   -3.0514    6.1985 H   0  0  0  0  0  0  0  0  0  0  0  0
    3.3524   -4.2904    4.4102 H   0  0  0  0  0  0  0  0  0  0  0  0
    1.8176   -2.7688    0.6814 H   0  0  0  0  0  0  0  0  0  0  0  0
    2.3088   -2.6578   -0.9701 H   0  0  0  0  0  0  0  0  0  0  0  0
  1  2  1  0
  1 29  1  0
  1 30  1  0
  1 31  1  0
  2  7  1  0
  2  3  1  0
  3 28  1  0
  3  4  1  0
  3 32  1  6
  4  5  1  0
  4 33  1  0
  4 34  1  0
  5  6  1  0
  5 35  1  0
  5 36  1  0
  6  7  1  0
  6 37  1  0
  6 38  1  0
  7  8  1  0
  7 39  1  6
  8  9  1  0
  8 10  1  0
  8 40  1  6
  9 41  1  0
 10 11  1  0
 10 28  1  0
 10 42  1  6
 11 12  1  0
 12 13  2  0
 12 14  1  0
 14 27  1  0
 14 15  1  0
 14 43  1  0
 15 20  1  0
 15 16  2  0
 16 17  1  0
 16 44  1  0
 17 18  2  0
 17 45  1  0
 18 19  1  0
 18 46  1  0
 19 20  2  0
 19 47  1  0
 20 21  1  0
 21 22  1  0
 21 48  1  0
 21 49  1  0
 22 27  2  0
 22 23  1  0
 23 24  2  0
 23 50  1  0
 24 25  1  0
 24 51  1  0
 25 26  2  0
 25 52  1  0
 26 27  1  0
 26 53  1  0
 28 54  1  0
 28 55  1  0
M  END
>  <i_m_ct_stereo_status>  (260) 
1

>  <s_m_source_file>  (260) 
/var/tmp/pbs.5076255.sched01/tmpinim70aj/80j3ziidn5.sdf

>  <i_m_source_file_index>  (260) 
27

>  <i_lp_mmshare_version>  (260) 
48012

>  <i_f3d_flags>  (260) 
0

>  <s_epik_input>  (260) 
W0NIMl0xW0NIMl1bQ0gyXVtDSF0oTihbQ0gzXSlbQ0BIXTEyKVtDQEBIXShbT0hdKVtDQEhdKFtDSDJdMilPQyg9TylbQ0hdM2MoW2NIXVtjSF1bY0hdW2NIXTQpYzRbQ0gyXWMoYzM1KVtjSF1bY0hdW2NIXVtjSF01

>  <s_epik_cmdline>  (260) 
J2VwaWtfcHl0aG9uJywgJy1waHQnLCAnMi4wJywgJy1waCcsICc3LjAnLCAnLXRuJywgJzgnLCAnLW1hJywgJzIwMCcsICctaW1hZScsICc8aW5maWxlLm1hZT4nLCAnLW9tYWUnLCAnPG91dGZpbGUubWFlPic=

>  <r_epik_Ionization_Penalty>  (260) 
0.919379

>  <r_epik_Ionization_Penalty_Charging>  (260) 
0

>  <r_epik_Ionization_Penalty_Neutral>  (260) 
0.919379

>  <r_epik_State_Penalty>  (260) 
0.960904

>  <r_epik_Charging_Adjusted_Penalty>  (260) 
0.960904

>  <i_epik_Tot_Q>  (260) 
0

>  <i_epik_Tot_abs_Q>  (260) 
0

>  <s_epik_Chemistry_Notes>  (260) 
This compound has an ester and may undergo hydrolysis at high or low pH.

>  <s_lp_Force_Field>  (260) 
OPLS3e

>  <r_lp_Energy>  (260) 
45.3994

>  <b_lp_Chiralities_Consistent>  (260) 
1

>  <s_lp_Variant>  (260) 
81:0-2

>  <s_i_glide_gridfile>  (260) 
pfpi4k_grid

>  <i_i_glide_lignum>  (260) 
27

>  <i_i_glide_rotatable_bonds>  (260) 
4

>  <r_i_docking_score>  (260) 
-2.90631

>  <r_i_glide_ligand_efficiency>  (260) 
-0.103797

>  <r_i_glide_ligand_efficiency_sa>  (260) 
-0.315188

>  <r_i_glide_ligand_efficiency_ln>  (260) 
-0.670861

>  <r_i_glide_gscore>  (260) 
-2.90631

>  <r_i_glide_lipo>  (260) 
-0.35264

>  <r_i_glide_hbond>  (260) 
-0.156915

>  <r_i_glide_metal>  (260) 
-0

>  <r_i_glide_rewards>  (260) 
-0.83539

>  <r_i_glide_evdw>  (260) 
-25.8299

>  <r_i_glide_ecoul>  (260) 
-4.32381

>  <r_i_glide_erotb>  (260) 
0.407799

>  <r_i_glide_esite>  (260) 
-0.0290973

>  <r_i_glide_emodel>  (260) 
-34.7777

>  <r_i_glide_energy>  (260) 
-30.1537

>  <r_i_glide_einternal>  (260) 
1.9933

>  <r_i_glide_intrahb_reward>  (260) 
-0

>  <i_i_glide_confnum>  (260) 
6

>  <i_i_glide_posenum>  (260) 
2

>  <r_i_glide_eff_state_penalty>  (260) 
0

>  <ligand_id>  (260) 
81

>  <original_smiles>  (260) 
CN1C2CCCC1C(O)C(OC(=O)C1c3ccccc3Cc3ccccc31)C2

>  <smiles>  (260) 
[H]OC1([H])C([H])(OC(=O)C2([H])c3c([H])c([H])c([H])c([H])c3C([H])([H])c3c([H])c([H])c([H])c([H])c32)C([H])([H])C2([H])N(C([H])([H])[H])C1([H])C([H])([H])C([H])([H])C2([H])[H]

$$$$
82:0:0
     RDKit          3D

 98104  0  0  1  0  0  0  0  0999 V2000
   -2.5224    3.1030    2.9551 C   0  0  0  0  0  0  0  0  0  0  0  0
   -1.0323    2.9192    3.3118 C   0  0  2  0  0  0  0  0  0  0  0  0
   -0.6169    1.4363    3.3754 C   0  0  0  0  0  0  0  0  0  0  0  0
    0.8869    1.2197    3.7467 C   0  0  1  0  0  0  0  0  0  0  0  0
    1.2938    2.1572    4.8824 C   0  0  0  0  0  0  0  0  0  0  0  0
    0.5824    3.2358    5.2820 C   0  0  0  0  0  0  0  0  0  0  0  0
   -0.6625    3.6358    4.6142 C   0  0  0  0  0  0  0  0  0  0  0  0
   -1.3817    4.5268    5.0544 O   0  0  0  0  0  0  0  0  0  0  0  0
    2.5798    1.7903    5.5689 C   0  0  0  0  0  0  0  0  0  0  0  0
    2.4367    0.4294    6.2541 C   0  0  0  0  0  0  0  0  0  0  0  0
    1.6623   -0.6853    5.4595 C   0  0  2  0  0  0  0  0  0  0  0  0
    0.2717   -0.8226    6.1635 C   0  0  0  0  0  0  0  0  0  0  0  0
    2.4091   -2.0872    5.6122 C   0  0  2  0  0  0  0  0  0  0  0  0
    2.7776   -2.4323    7.0746 C   0  0  0  0  0  0  0  0  0  0  0  0
    2.9823   -3.9349    7.2861 C   0  0  1  0  0  0  0  0  0  0  0  0
    1.6963   -4.4735    7.5465 O   0  0  0  0  0  0  0  0  0  0  0  0
    3.8013   -4.7204    6.1899 C   0  0  1  0  0  0  0  0  0  0  0  0
    3.2228   -6.1720    5.9935 C   0  0  2  0  0  0  0  0  0  0  0  0
    2.8983   -7.0430    7.1530 N   0  0  2  0  0  0  0  0  0  0  0  0
    3.9814   -7.2527    8.1483 C   0  0  0  0  0  0  0  0  0  0  0  0
    2.3742   -8.3008    6.5514 C   0  0  0  0  0  0  0  0  0  0  0  0
    2.4121   -8.0839    5.0226 C   0  0  0  0  0  0  0  0  0  0  0  0
    3.6098   -7.1122    4.8225 C   0  0  2  0  0  0  0  0  0  0  0  0
    4.9009   -7.9756    4.8468 C   0  0  0  0  0  0  0  0  0  0  0  0
    4.9401   -8.9188    3.6045 C   0  0  0  0  0  0  0  0  0  0  0  0
    4.5519   -8.3048    2.2164 C   0  0  1  0  0  0  0  0  0  0  0  0
    4.1959   -9.4156    1.2094 C   0  0  0  0  0  0  0  0  0  0  0  0
    3.5216   -7.1191    2.2408 C   0  0  1  0  0  0  0  0  0  0  0  0
    2.0475   -7.4644    1.9403 C   0  0  0  0  0  0  0  0  0  0  0  0
    3.7462   -6.2928    3.5231 C   0  0  1  0  0  0  0  0  0  0  0  0
    3.3152   -4.8081    3.6282 C   0  0  0  0  0  0  0  0  0  0  0  0
    4.0402   -3.9775    4.7828 C   0  0  2  0  0  0  0  0  0  0  0  0
    5.5764   -4.1164    4.5348 C   0  0  0  0  0  0  0  0  0  0  0  0
    3.6528   -2.3879    4.7013 C   0  0  2  0  0  0  0  0  0  0  0  0
    4.8793   -1.4820    5.0758 C   0  0  0  0  0  0  0  0  0  0  0  0
    3.2876   -1.9317    3.2501 C   0  0  0  0  0  0  0  0  0  0  0  0
    2.7138   -0.5042    3.1178 C   0  0  1  0  0  0  0  0  0  0  0  0
    2.5693   -0.2293    1.7320 O   0  0  0  0  0  0  0  0  0  0  0  0
    1.3885   -0.2927    3.9308 C   0  0  2  0  0  0  0  0  0  0  0  0
    0.3330   -1.2552    3.3059 C   0  0  0  0  0  0  0  0  0  0  0  0
   -2.7700    4.1551    2.8058 H   0  0  0  0  0  0  0  0  0  0  0  0
   -3.1852    2.7055    3.7257 H   0  0  0  0  0  0  0  0  0  0  0  0
   -2.7654    2.5837    2.0319 H   0  0  0  0  0  0  0  0  0  0  0  0
   -0.4429    3.3916    2.5292 H   0  0  0  0  0  0  0  0  0  0  0  0
   -1.2729    0.9407    4.0910 H   0  0  0  0  0  0  0  0  0  0  0  0
   -0.8241    0.9995    2.3967 H   0  0  0  0  0  0  0  0  0  0  0  0
    1.4219    1.6413    2.8941 H   0  0  0  0  0  0  0  0  0  0  0  0
    0.9285    3.8483    6.1015 H   0  0  0  0  0  0  0  0  0  0  0  0
    3.3856    1.7918    4.8353 H   0  0  0  0  0  0  0  0  0  0  0  0
    2.8426    2.5482    6.3081 H   0  0  0  0  0  0  0  0  0  0  0  0
    3.4210    0.1187    6.5892 H   0  0  0  0  0  0  0  0  0  0  0  0
    1.9276    0.6171    7.2004 H   0  0  0  0  0  0  0  0  0  0  0  0
   -0.2733   -1.7073    5.8383 H   0  0  0  0  0  0  0  0  0  0  0  0
   -0.3663    0.0413    5.9790 H   0  0  0  0  0  0  0  0  0  0  0  0
    0.3419   -0.9054    7.2449 H   0  0  0  0  0  0  0  0  0  0  0  0
    1.6669   -2.8259    5.3172 H   0  0  0  0  0  0  0  0  0  0  0  0
    3.6805   -1.9161    7.3900 H   0  0  0  0  0  0  0  0  0  0  0  0
    2.0294   -2.0717    7.7821 H   0  0  0  0  0  0  0  0  0  0  0  0
    3.5170   -4.0339    8.2323 H   0  0  0  0  0  0  0  0  0  0  0  0
    1.1428   -4.2961    6.7995 H   0  0  0  0  0  0  0  0  0  0  0  0
    4.7807   -4.8498    6.6521 H   0  0  0  0  0  0  0  0  0  0  0  0
    2.2127   -5.8767    5.6941 H   0  0  0  0  0  0  0  0  0  0  0  0
    4.8910   -7.6448    7.6998 H   0  0  0  0  0  0  0  0  0  0  0  0
    3.6472   -7.9579    8.9124 H   0  0  0  0  0  0  0  0  0  0  0  0
    4.2186   -6.3142    8.6485 H   0  0  0  0  0  0  0  0  0  0  0  0
    2.9887   -9.1623    6.8164 H   0  0  0  0  0  0  0  0  0  0  0  0
    1.3567   -8.5151    6.8846 H   0  0  0  0  0  0  0  0  0  0  0  0
    2.4775   -9.0347    4.4912 H   0  0  0  0  0  0  0  0  0  0  0  0
    1.4793   -7.6173    4.6920 H   0  0  0  0  0  0  0  0  0  0  0  0
    5.7925   -7.3527    4.8691 H   0  0  0  0  0  0  0  0  0  0  0  0
    4.9735   -8.5924    5.7391 H   0  0  0  0  0  0  0  0  0  0  0  0
    5.9493   -9.3240    3.5268 H   0  0  0  0  0  0  0  0  0  0  0  0
    4.3232   -9.7964    3.7933 H   0  0  0  0  0  0  0  0  0  0  0  0
    5.4775   -7.8646    1.8407 H   0  0  0  0  0  0  0  0  0  0  0  0
    3.3061   -9.9676    1.5145 H   0  0  0  0  0  0  0  0  0  0  0  0
    5.0093  -10.1382    1.1351 H   0  0  0  0  0  0  0  0  0  0  0  0
    4.0167   -9.0206    0.2100 H   0  0  0  0  0  0  0  0  0  0  0  0
    3.8105   -6.4679    1.4125 H   0  0  0  0  0  0  0  0  0  0  0  0
    1.6896   -8.3375    2.4861 H   0  0  0  0  0  0  0  0  0  0  0  0
    1.9112   -7.6787    0.8827 H   0  0  0  0  0  0  0  0  0  0  0  0
    1.3998   -6.6180    2.1779 H   0  0  0  0  0  0  0  0  0  0  0  0
    4.8061   -6.1498    3.3652 H   0  0  0  0  0  0  0  0  0  0  0  0
    3.5610   -4.4004    2.6487 H   0  0  0  0  0  0  0  0  0  0  0  0
    2.2332   -4.7418    3.7411 H   0  0  0  0  0  0  0  0  0  0  0  0
    5.8167   -3.7996    3.5190 H   0  0  0  0  0  0  0  0  0  0  0  0
    5.9553   -5.1269    4.6769 H   0  0  0  0  0  0  0  0  0  0  0  0
    6.1887   -3.5575    5.2450 H   0  0  0  0  0  0  0  0  0  0  0  0
    5.6883   -1.5783    4.3507 H   0  0  0  0  0  0  0  0  0  0  0  0
    5.3020   -1.6959    6.0566 H   0  0  0  0  0  0  0  0  0  0  0  0
    4.6704   -0.4194    5.0486 H   0  0  0  0  0  0  0  0  0  0  0  0
    4.1707   -2.0191    2.6162 H   0  0  0  0  0  0  0  0  0  0  0  0
    2.5533   -2.5849    2.7964 H   0  0  0  0  0  0  0  0  0  0  0  0
    3.4635    0.2079    3.4346 H   0  0  0  0  0  0  0  0  0  0  0  0
    1.8462   -0.7245    1.3710 H   0  0  0  0  0  0  0  0  0  0  0  0
    0.5612   -2.3089    3.4511 H   0  0  0  0  0  0  0  0  0  0  0  0
    0.2419   -1.0874    2.2343 H   0  0  0  0  0  0  0  0  0  0  0  0
   -0.6671   -1.1317    3.7142 H   0  0  0  0  0  0  0  0  0  0  0  0
    2.1366   -6.5916    7.6420 H   0  0  0  0  0  0  0  0  0  0  0  0
  1  2  1  0
  1 41  1  0
  1 42  1  0
  1 43  1  0
  2  7  1  0
  2  3  1  0
  2 44  1  6
  3  4  1  0
  3 45  1  0
  3 46  1  0
  4 39  1  0
  4  5  1  0
  4 47  1  6
  5  6  2  0
  5  9  1  0
  6  7  1  0
  6 48  1  0
  7  8  2  0
  9 10  1  0
  9 49  1  0
  9 50  1  0
 10 11  1  0
 10 51  1  0
 10 52  1  0
 11 39  1  0
 11 12  1  1
 11 13  1  0
 12 53  1  0
 12 54  1  0
 12 55  1  0
 13 34  1  0
 13 14  1  0
 13 56  1  6
 14 15  1  0
 14 57  1  0
 14 58  1  0
 15 16  1  0
 15 17  1  0
 15 59  1  1
 16 60  1  0
 17 32  1  0
 17 18  1  0
 17 61  1  1
 18 23  1  0
 18 19  1  0
 18 62  1  6
 19 20  1  0
 19 21  1  0
 19 98  1  1
 20 63  1  0
 20 64  1  0
 20 65  1  0
 21 22  1  0
 21 66  1  0
 21 67  1  0
 23 22  1  6
 22 68  1  0
 22 69  1  0
 23 30  1  0
 23 24  1  0
 24 25  1  0
 24 70  1  0
 24 71  1  0
 25 26  1  0
 25 72  1  0
 25 73  1  0
 26 27  1  0
 26 28  1  0
 26 74  1  6
 27 75  1  0
 27 76  1  0
 27 77  1  0
 28 29  1  0
 28 30  1  0
 28 78  1  6
 29 79  1  0
 29 80  1  0
 29 81  1  0
 30 31  1  0
 30 82  1  6
 31 32  1  0
 31 83  1  0
 31 84  1  0
 32 33  1  6
 32 34  1  0
 33 85  1  0
 33 86  1  0
 33 87  1  0
 34 35  1  1
 34 36  1  0
 35 88  1  0
 35 89  1  0
 35 90  1  0
 36 37  1  0
 36 91  1  0
 36 92  1  0
 37 38  1  0
 37 39  1  0
 37 93  1  1
 38 94  1  0
 39 40  1  6
 40 95  1  0
 40 96  1  0
 40 97  1  0
M  CHG  1  19   1
M  END
>  <i_m_ct_stereo_status>  (261) 
1

>  <s_m_source_file>  (261) 
/var/tmp/pbs.5076255.sched01/tmpinim70aj/80j3ziidn5.sdf

>  <i_m_source_file_index>  (261) 
28

>  <i_lp_mmshare_version>  (261) 
48012

>  <i_f3d_flags>  (261) 
0

>  <s_epik_input>  (261) 
W0NIM11bQ0BIXShbQ0gyXTEpQyg9TylbQ0hdPUMoW0NIMl1bQ0gyXTIpW0NASF0xW0NAQF0oW0NIM10pKFtDQEBIXShbQ0gyXTMpW09IXSlbQ0BAXTIoW0NIM10pW0NASF0oW0NIMl1bQ0BIXTRbT0hdKVtDQEBdMyhbQ0gzXSlbQ0BAXShbQ0gzXSkoW0NAQEhdNFtDQEBIXShbQ0BdNTY3KU4oW0NIM10pW0NIMl1bQ0gyXTUpW0NIMl1bQ0BASF03W0NASF0oW0NIM10pW0NASF0oW0NIM10pW0NIMl1bQ0gyXTY=

>  <s_epik_cmdline>  (261) 
J2VwaWtfcHl0aG9uJywgJy1waHQnLCAnMi4wJywgJy1waCcsICc3LjAnLCAnLXRuJywgJzgnLCAnLW1hJywgJzIwMCcsICctaW1hZScsICc8aW5maWxlLm1hZT4nLCAnLW9tYWUnLCAnPG91dGZpbGUubWFlPic=

>  <r_epik_Ionization_Penalty>  (261) 
0.000496014

>  <r_epik_Ionization_Penalty_Charging>  (261) 
0.000495354

>  <r_epik_Ionization_Penalty_Neutral>  (261) 
6.60266e-07

>  <r_epik_State_Penalty>  (261) 
0.000307992

>  <r_epik_Charging_Adjusted_Penalty>  (261) 
0.000803346

>  <i_epik_Tot_Q>  (261) 
1

>  <i_epik_Tot_abs_Q>  (261) 
1

>  <s_lp_Force_Field>  (261) 
OPLS3e

>  <r_lp_Energy>  (261) 
162.914

>  <b_lp_Chiralities_Consistent>  (261) 
1

>  <s_lp_Variant>  (261) 
82:0-1

>  <s_i_glide_gridfile>  (261) 
pfpi4k_grid

>  <i_i_glide_lignum>  (261) 
28

>  <i_i_glide_rotatable_bonds>  (261) 
2

>  <r_i_docking_score>  (261) 
-2.32855

>  <r_i_glide_ligand_efficiency>  (261) 
-0.0582137

>  <r_i_glide_ligand_efficiency_sa>  (261) 
-0.199088

>  <r_i_glide_ligand_efficiency_ln>  (261) 
-0.496611

>  <r_i_glide_gscore>  (261) 
-2.32855

>  <r_i_glide_lipo>  (261) 
-0.0447048

>  <r_i_glide_hbond>  (261) 
-0.00781123

>  <r_i_glide_metal>  (261) 
-0

>  <r_i_glide_rewards>  (261) 
-0.5

>  <r_i_glide_evdw>  (261) 
-19.8509

>  <r_i_glide_ecoul>  (261) 
-5.00671

>  <r_i_glide_erotb>  (261) 
0

>  <r_i_glide_esite>  (261) 
-0.0324772

>  <r_i_glide_emodel>  (261) 
-34.677

>  <r_i_glide_energy>  (261) 
-24.8577

>  <r_i_glide_einternal>  (261) 
0.0931562

>  <r_i_glide_intrahb_reward>  (261) 
-0.5

>  <i_i_glide_confnum>  (261) 
2

>  <i_i_glide_posenum>  (261) 
19

>  <r_i_glide_eff_state_penalty>  (261) 
0

>  <ligand_id>  (261) 
82

>  <original_smiles>  (261) 
CC1CC2C(=CC1=O)CCC1(C)C3CC(O)C4C5N(C)CCC56CCC(C)C(C)C6CC4(C)C3(C)CC(O)C21C

>  <smiles>  (261) 
[H]OC1([H])C([H])([H])C2([H])C3(C([H])([H])[H])C([H])([H])C([H])([H])C4=C([H])C(=O)C([H])(C([H])([H])[H])C([H])([H])C4([H])C3(C([H])([H])[H])C([H])(O[H])C([H])([H])C2(C([H])([H])[H])C2(C([H])([H])[H])C([H])([H])C3([H])C([H])(C([H])([H])[H])C([H])(C([H])([H])[H])C([H])([H])C([H])([H])C34C([H])([H])C([H])([H])[N+]([H])(C([H])([H])[H])C4([H])C12[H]

$$$$
82:0:1
     RDKit          3D

 98104  0  0  1  0  0  0  0  0999 V2000
   -0.7746    3.1609    3.4726 C   0  0  0  0  0  0  0  0  0  0  0  0
    0.0946    2.4907    4.5577 C   0  0  2  0  0  0  0  0  0  0  0  0
    0.3958    1.0139    4.2139 C   0  0  0  0  0  0  0  0  0  0  0  0
    1.2629    0.2873    5.2900 C   0  0  1  0  0  0  0  0  0  0  0  0
    0.7917    0.6504    6.6898 C   0  0  0  0  0  0  0  0  0  0  0  0
   -0.0432    1.6775    6.9881 C   0  0  0  0  0  0  0  0  0  0  0  0
   -0.5390    2.5964    5.9467 C   0  0  0  0  0  0  0  0  0  0  0  0
   -1.4180    3.4300    6.1660 O   0  0  0  0  0  0  0  0  0  0  0  0
    1.3015   -0.2468    7.7809 C   0  0  0  0  0  0  0  0  0  0  0  0
    0.7947   -1.6735    7.5745 C   0  0  0  0  0  0  0  0  0  0  0  0
    0.7576   -2.2050    6.0920 C   0  0  2  0  0  0  0  0  0  0  0  0
   -0.7448   -2.1888    5.6635 C   0  0  0  0  0  0  0  0  0  0  0  0
    1.2490   -3.7202    6.0568 C   0  0  2  0  0  0  0  0  0  0  0  0
    0.5495   -4.6184    7.1081 C   0  0  0  0  0  0  0  0  0  0  0  0
    0.6042   -6.1009    6.7258 C   0  0  1  0  0  0  0  0  0  0  0  0
   -0.4883   -6.2908    5.8382 O   0  0  0  0  0  0  0  0  0  0  0  0
    1.9679   -6.6706    6.1759 C   0  0  1  0  0  0  0  0  0  0  0  0
    1.6875   -7.7776    5.0832 C   0  0  2  0  0  0  0  0  0  0  0  0
    0.7153   -8.8544    5.2914 N   0  0  2  0  0  0  0  0  0  0  0  0
    0.8492   -9.6598    6.5048 C   0  0  0  0  0  0  0  0  0  0  0  0
    0.7352   -9.6507    4.0530 C   0  0  0  0  0  0  0  0  0  0  0  0
    1.7731   -8.9640    3.1255 C   0  0  0  0  0  0  0  0  0  0  0  0
    2.7853   -8.3352    4.1326 C   0  0  2  0  0  0  0  0  0  0  0  0
    3.7484   -9.4720    4.5670 C   0  0  0  0  0  0  0  0  0  0  0  0
    4.6228   -9.9160    3.3622 C   0  0  0  0  0  0  0  0  0  0  0  0
    5.2604   -8.7988    2.4736 C   0  0  1  0  0  0  0  0  0  0  0  0
    5.6847   -9.3838    1.1136 C   0  0  0  0  0  0  0  0  0  0  0  0
    4.4508   -7.4582    2.3579 C   0  0  1  0  0  0  0  0  0  0  0  0
    3.5651   -7.2802    1.1106 C   0  0  0  0  0  0  0  0  0  0  0  0
    3.7315   -7.1977    3.6988 C   0  0  1  0  0  0  0  0  0  0  0  0
    3.3208   -5.7682    4.1367 C   0  0  0  0  0  0  0  0  0  0  0  0
    3.0634   -5.5963    5.7013 C   0  0  2  0  0  0  0  0  0  0  0  0
    4.3817   -6.0476    6.4212 C   0  0  0  0  0  0  0  0  0  0  0  0
    2.7818   -4.0322    6.0823 C   0  0  2  0  0  0  0  0  0  0  0  0
    3.4266   -3.6638    7.4673 C   0  0  0  0  0  0  0  0  0  0  0  0
    3.4645   -3.0359    5.0868 C   0  0  0  0  0  0  0  0  0  0  0  0
    3.0905   -1.5470    5.2598 C   0  0  1  0  0  0  0  0  0  0  0  0
    3.8849   -0.8188    4.3468 O   0  0  0  0  0  0  0  0  0  0  0  0
    1.5548   -1.2714    5.0668 C   0  0  2  0  0  0  0  0  0  0  0  0
    1.2097   -1.6521    3.5882 C   0  0  0  0  0  0  0  0  0  0  0  0
   -0.8885    4.2264    3.6612 H   0  0  0  0  0  0  0  0  0  0  0  0
   -1.7763    2.7208    3.4173 H   0  0  0  0  0  0  0  0  0  0  0  0
   -0.3152    3.0465    2.4916 H   0  0  0  0  0  0  0  0  0  0  0  0
    1.0401    3.0298    4.6023 H   0  0  0  0  0  0  0  0  0  0  0  0
   -0.5617    0.5054    4.0858 H   0  0  0  0  0  0  0  0  0  0  0  0
    0.8971    0.9907    3.2499 H   0  0  0  0  0  0  0  0  0  0  0  0
    2.2234    0.8095    5.2348 H   0  0  0  0  0  0  0  0  0  0  0  0
   -0.3396    1.8863    7.9991 H   0  0  0  0  0  0  0  0  0  0  0  0
    2.3955   -0.2027    7.7888 H   0  0  0  0  0  0  0  0  0  0  0  0
    0.9768    0.1203    8.7591 H   0  0  0  0  0  0  0  0  0  0  0  0
    1.2845   -2.3401    8.2723 H   0  0  0  0  0  0  0  0  0  0  0  0
   -0.2260   -1.6703    7.9636 H   0  0  0  0  0  0  0  0  0  0  0  0
   -0.9039   -2.7222    4.7304 H   0  0  0  0  0  0  0  0  0  0  0  0
   -1.1197   -1.1740    5.5190 H   0  0  0  0  0  0  0  0  0  0  0  0
   -1.4080   -2.6510    6.3821 H   0  0  0  0  0  0  0  0  0  0  0  0
    0.8988   -4.0939    5.0866 H   0  0  0  0  0  0  0  0  0  0  0  0
    1.0118   -4.5128    8.0922 H   0  0  0  0  0  0  0  0  0  0  0  0
   -0.4822   -4.3307    7.2923 H   0  0  0  0  0  0  0  0  0  0  0  0
    0.3635   -6.6433    7.6399 H   0  0  0  0  0  0  0  0  0  0  0  0
   -0.3400   -5.7741    5.0761 H   0  0  0  0  0  0  0  0  0  0  0  0
    2.3906   -7.1937    7.0282 H   0  0  0  0  0  0  0  0  0  0  0  0
    1.1525   -7.1228    4.3830 H   0  0  0  0  0  0  0  0  0  0  0  0
    1.8299  -10.1224    6.6087 H   0  0  0  0  0  0  0  0  0  0  0  0
    0.1023  -10.4631    6.5045 H   0  0  0  0  0  0  0  0  0  0  0  0
    0.6683   -9.0480    7.3963 H   0  0  0  0  0  0  0  0  0  0  0  0
    1.0443  -10.6839    4.2251 H   0  0  0  0  0  0  0  0  0  0  0  0
   -0.2422   -9.6848    3.5518 H   0  0  0  0  0  0  0  0  0  0  0  0
    2.2015   -9.6717    2.4096 H   0  0  0  0  0  0  0  0  0  0  0  0
    1.2919   -8.1798    2.5346 H   0  0  0  0  0  0  0  0  0  0  0  0
    4.3888   -9.1523    5.3887 H   0  0  0  0  0  0  0  0  0  0  0  0
    3.2282  -10.3409    4.9527 H   0  0  0  0  0  0  0  0  0  0  0  0
    5.4441  -10.5242    3.7678 H   0  0  0  0  0  0  0  0  0  0  0  0
    4.0770  -10.6108    2.7270 H   0  0  0  0  0  0  0  0  0  0  0  0
    6.1839   -8.5262    2.9779 H   0  0  0  0  0  0  0  0  0  0  0  0
    4.8217   -9.7360    0.5483 H   0  0  0  0  0  0  0  0  0  0  0  0
    6.3535  -10.2331    1.2455 H   0  0  0  0  0  0  0  0  0  0  0  0
    6.2039   -8.6510    0.5112 H   0  0  0  0  0  0  0  0  0  0  0  0
    5.2026   -6.6628    2.2612 H   0  0  0  0  0  0  0  0  0  0  0  0
    2.9551   -8.1569    0.9282 H   0  0  0  0  0  0  0  0  0  0  0  0
    4.1766   -7.1009    0.2264 H   0  0  0  0  0  0  0  0  0  0  0  0
    2.9103   -6.4174    1.2247 H   0  0  0  0  0  0  0  0  0  0  0  0
    4.6242   -7.3044    4.3060 H   0  0  0  0  0  0  0  0  0  0  0  0
    4.1426   -5.1482    3.8004 H   0  0  0  0  0  0  0  0  0  0  0  0
    2.4303   -5.4580    3.5834 H   0  0  0  0  0  0  0  0  0  0  0  0
    5.2502   -5.4949    6.0517 H   0  0  0  0  0  0  0  0  0  0  0  0
    4.5828   -7.1153    6.3096 H   0  0  0  0  0  0  0  0  0  0  0  0
    4.3365   -5.9498    7.5094 H   0  0  0  0  0  0  0  0  0  0  0  0
    4.5154   -3.7292    7.4390 H   0  0  0  0  0  0  0  0  0  0  0  0
    3.0904   -4.2955    8.2895 H   0  0  0  0  0  0  0  0  0  0  0  0
    3.2604   -2.6336    7.7737 H   0  0  0  0  0  0  0  0  0  0  0  0
    4.5498   -3.1385    5.1738 H   0  0  0  0  0  0  0  0  0  0  0  0
    3.2399   -3.2832    4.0615 H   0  0  0  0  0  0  0  0  0  0  0  0
    3.4145   -1.2105    6.2313 H   0  0  0  0  0  0  0  0  0  0  0  0
    3.6425   -1.0549    3.4751 H   0  0  0  0  0  0  0  0  0  0  0  0
    1.3050   -2.7202    3.3884 H   0  0  0  0  0  0  0  0  0  0  0  0
    1.8456   -1.1415    2.8638 H   0  0  0  0  0  0  0  0  0  0  0  0
    0.1948   -1.4106    3.3000 H   0  0  0  0  0  0  0  0  0  0  0  0
   -0.2057   -8.4122    5.3331 H   0  0  0  0  0  0  0  0  0  0  0  0
  1  2  1  0
  1 41  1  0
  1 42  1  0
  1 43  1  0
  2  7  1  0
  2  3  1  0
  2 44  1  1
  3  4  1  0
  3 45  1  0
  3 46  1  0
  4 39  1  0
  4  5  1  0
  4 47  1  1
  5  6  2  0
  5  9  1  0
  6  7  1  0
  6 48  1  0
  7  8  2  0
  9 10  1  0
  9 49  1  0
  9 50  1  0
 10 11  1  0
 10 51  1  0
 10 52  1  0
 11 39  1  0
 11 12  1  6
 11 13  1  0
 12 53  1  0
 12 54  1  0
 12 55  1  0
 13 34  1  0
 13 14  1  0
 13 56  1  6
 14 15  1  0
 14 57  1  0
 14 58  1  0
 15 16  1  0
 15 17  1  0
 15 59  1  1
 16 60  1  0
 17 32  1  0
 17 18  1  0
 17 61  1  1
 18 23  1  0
 18 19  1  0
 18 62  1  6
 19 20  1  0
 19 21  1  0
 19 98  1  1
 20 63  1  0
 20 64  1  0
 20 65  1  0
 21 22  1  0
 21 66  1  0
 21 67  1  0
 23 22  1  6
 22 68  1  0
 22 69  1  0
 23 30  1  0
 23 24  1  0
 24 25  1  0
 24 70  1  0
 24 71  1  0
 25 26  1  0
 25 72  1  0
 25 73  1  0
 26 27  1  0
 26 28  1  0
 26 74  1  1
 27 75  1  0
 27 76  1  0
 27 77  1  0
 28 29  1  0
 28 30  1  0
 28 78  1  6
 29 79  1  0
 29 80  1  0
 29 81  1  0
 30 31  1  0
 30 82  1  1
 31 32  1  0
 31 83  1  0
 31 84  1  0
 32 33  1  1
 32 34  1  0
 33 85  1  0
 33 86  1  0
 33 87  1  0
 34 35  1  1
 34 36  1  0
 35 88  1  0
 35 89  1  0
 35 90  1  0
 36 37  1  0
 36 91  1  0
 36 92  1  0
 37 38  1  0
 37 39  1  0
 37 93  1  1
 38 94  1  0
 39 40  1  6
 40 95  1  0
 40 96  1  0
 40 97  1  0
M  CHG  1  19   1
M  END
>  <i_m_ct_stereo_status>  (262) 
1

>  <s_m_source_file>  (262) 
/var/tmp/pbs.5076255.sched01/tmpinim70aj/80j3ziidn5.sdf

>  <i_m_source_file_index>  (262) 
28

>  <i_lp_mmshare_version>  (262) 
48012

>  <i_f3d_flags>  (262) 
0

>  <s_epik_input>  (262) 
W0NIM11bQ0BIXShbQ0gyXTEpQyg9TylbQ0hdPUMoW0NIMl1bQ0gyXTIpW0NASF0xW0NAQF0oW0NIM10pKFtDQEBIXShbQ0gyXTMpW09IXSlbQ0BAXTIoW0NIM10pW0NASF0oW0NIMl1bQ0BIXTRbT0hdKVtDQEBdMyhbQ0gzXSlbQ0BAXShbQ0gzXSkoW0NAQEhdNFtDQEBIXShbQ0BdNTY3KU4oW0NIM10pW0NIMl1bQ0gyXTUpW0NIMl1bQ0BASF03W0NASF0oW0NIM10pW0NASF0oW0NIM10pW0NIMl1bQ0gyXTY=

>  <s_epik_cmdline>  (262) 
J2VwaWtfcHl0aG9uJywgJy1waHQnLCAnMi4wJywgJy1waCcsICc3LjAnLCAnLXRuJywgJzgnLCAnLW1hJywgJzIwMCcsICctaW1hZScsICc8aW5maWxlLm1hZT4nLCAnLW9tYWUnLCAnPG91dGZpbGUubWFlPic=

>  <r_epik_Ionization_Penalty>  (262) 
0.000496014

>  <r_epik_Ionization_Penalty_Charging>  (262) 
0.000495354

>  <r_epik_Ionization_Penalty_Neutral>  (262) 
6.60266e-07

>  <r_epik_State_Penalty>  (262) 
0.000307992

>  <r_epik_Charging_Adjusted_Penalty>  (262) 
0.000803346

>  <i_epik_Tot_Q>  (262) 
1

>  <i_epik_Tot_abs_Q>  (262) 
1

>  <s_lp_Force_Field>  (262) 
OPLS3e

>  <r_lp_Energy>  (262) 
162.914

>  <b_lp_Chiralities_Consistent>  (262) 
1

>  <s_lp_Variant>  (262) 
82:0-1

>  <s_i_glide_gridfile>  (262) 
pfpi4k_grid

>  <i_i_glide_lignum>  (262) 
28

>  <i_i_glide_rotatable_bonds>  (262) 
2

>  <r_i_docking_score>  (262) 
-2.3026

>  <r_i_glide_ligand_efficiency>  (262) 
-0.0575649

>  <r_i_glide_ligand_efficiency_sa>  (262) 
-0.196869

>  <r_i_glide_ligand_efficiency_ln>  (262) 
-0.491076

>  <r_i_glide_gscore>  (262) 
-2.3026

>  <r_i_glide_lipo>  (262) 
-0.0822496

>  <r_i_glide_hbond>  (262) 
0

>  <r_i_glide_metal>  (262) 
-0

>  <r_i_glide_rewards>  (262) 
-0.5

>  <r_i_glide_evdw>  (262) 
-20.3476

>  <r_i_glide_ecoul>  (262) 
-4.42127

>  <r_i_glide_erotb>  (262) 
0

>  <r_i_glide_esite>  (262) 
-0.0397769

>  <r_i_glide_emodel>  (262) 
-34.4315

>  <r_i_glide_energy>  (262) 
-24.7688

>  <r_i_glide_einternal>  (262) 
0.142891

>  <r_i_glide_intrahb_reward>  (262) 
-0.5

>  <i_i_glide_confnum>  (262) 
2

>  <i_i_glide_posenum>  (262) 
12

>  <r_i_glide_eff_state_penalty>  (262) 
0

>  <ligand_id>  (262) 
82

>  <original_smiles>  (262) 
CC1CC2C(=CC1=O)CCC1(C)C3CC(O)C4C5N(C)CCC56CCC(C)C(C)C6CC4(C)C3(C)CC(O)C21C

>  <smiles>  (262) 
[H]OC1([H])C([H])([H])C2([H])C3(C([H])([H])[H])C([H])([H])C([H])([H])C4=C([H])C(=O)C([H])(C([H])([H])[H])C([H])([H])C4([H])C3(C([H])([H])[H])C([H])(O[H])C([H])([H])C2(C([H])([H])[H])C2(C([H])([H])[H])C([H])([H])C3([H])C([H])(C([H])([H])[H])C([H])(C([H])([H])[H])C([H])([H])C([H])([H])C34C([H])([H])C([H])([H])[N+]([H])(C([H])([H])[H])C4([H])C12[H]

$$$$
82:0:2
     RDKit          3D

 98104  0  0  1  0  0  0  0  0999 V2000
   -1.4671    2.7607    3.1017 C   0  0  0  0  0  0  0  0  0  0  0  0
   -0.4263    2.3022    4.1414 C   0  0  2  0  0  0  0  0  0  0  0  0
   -0.0436    0.8161    3.9632 C   0  0  0  0  0  0  0  0  0  0  0  0
    1.0093    0.3086    5.0001 C   0  0  1  0  0  0  0  0  0  0  0  0
    0.6743    0.8310    6.3942 C   0  0  0  0  0  0  0  0  0  0  0  0
   -0.1978    1.8318    6.6572 C   0  0  0  0  0  0  0  0  0  0  0  0
   -0.8934    2.5575    5.5803 C   0  0  0  0  0  0  0  0  0  0  0  0
   -1.8035    3.3528    5.8063 O   0  0  0  0  0  0  0  0  0  0  0  0
    1.3835    0.1274    7.5156 C   0  0  0  0  0  0  0  0  0  0  0  0
    0.9663   -1.3434    7.5637 C   0  0  0  0  0  0  0  0  0  0  0  0
    0.8105   -2.0801    6.1814 C   0  0  2  0  0  0  0  0  0  0  0  0
   -0.7280   -2.2315    5.9470 C   0  0  0  0  0  0  0  0  0  0  0  0
    1.4206   -3.5531    6.2796 C   0  0  2  0  0  0  0  0  0  0  0  0
    0.9323   -4.3404    7.5205 C   0  0  0  0  0  0  0  0  0  0  0  0
    1.0727   -5.8533    7.3439 C   0  0  1  0  0  0  0  0  0  0  0  0
   -0.1147   -6.2691    6.6864 O   0  0  0  0  0  0  0  0  0  0  0  0
    2.3983   -6.3990    6.6871 C   0  0  1  0  0  0  0  0  0  0  0  0
    2.0864   -7.6539    5.7834 C   0  0  2  0  0  0  0  0  0  0  0  0
    1.2356   -8.7600    6.2553 N   0  0  2  0  0  0  0  0  0  0  0  0
    1.5838   -9.3508    7.5530 C   0  0  0  0  0  0  0  0  0  0  0  0
    1.1833   -9.7211    5.1362 C   0  0  0  0  0  0  0  0  0  0  0  0
    2.0439   -9.1015    4.0048 C   0  0  0  0  0  0  0  0  0  0  0  0
    3.1050   -8.2709    4.7842 C   0  0  2  0  0  0  0  0  0  0  0  0
    4.2078   -9.2634    5.2387 C   0  0  0  0  0  0  0  0  0  0  0  0
    4.9716   -9.8169    3.9962 C   0  0  0  0  0  0  0  0  0  0  0  0
    5.3915   -8.7943    2.8882 C   0  0  1  0  0  0  0  0  0  0  0  0
    5.7056   -9.5238    1.5669 C   0  0  0  0  0  0  0  0  0  0  0  0
    4.4558   -7.5452    2.7066 C   0  0  1  0  0  0  0  0  0  0  0  0
    3.4187   -7.6003    1.5665 C   0  0  0  0  0  0  0  0  0  0  0  0
    3.8914   -7.1468    4.0847 C   0  0  1  0  0  0  0  0  0  0  0  0
    3.4121   -5.7040    4.3874 C   0  0  0  0  0  0  0  0  0  0  0  0
    3.3355   -5.3287    5.9373 C   0  0  2  0  0  0  0  0  0  0  0  0
    4.7625   -5.5863    6.5326 C   0  0  0  0  0  0  0  0  0  0  0  0
    2.9727   -3.7466    6.1450 C   0  0  2  0  0  0  0  0  0  0  0  0
    3.7407   -3.1458    7.3755 C   0  0  0  0  0  0  0  0  0  0  0  0
    3.4442   -2.8588    4.9469 C   0  0  0  0  0  0  0  0  0  0  0  0
    2.9642   -1.3908    4.9721 C   0  0  1  0  0  0  0  0  0  0  0  0
    3.5823   -0.7351    3.8767 O   0  0  0  0  0  0  0  0  0  0  0  0
    1.4024   -1.2474    4.9466 C   0  0  2  0  0  0  0  0  0  0  0  0
    0.9169   -1.8561    3.5897 C   0  0  0  0  0  0  0  0  0  0  0  0
   -1.6511    3.8338    3.1723 H   0  0  0  0  0  0  0  0  0  0  0  0
   -2.4247    2.2498    3.2255 H   0  0  0  0  0  0  0  0  0  0  0  0
   -1.1131    2.5669    2.0872 H   0  0  0  0  0  0  0  0  0  0  0  0
    0.4694    2.9059    3.9950 H   0  0  0  0  0  0  0  0  0  0  0  0
   -0.9597    0.2298    4.0237 H   0  0  0  0  0  0  0  0  0  0  0  0
    0.3415    0.6927    2.9495 H   0  0  0  0  0  0  0  0  0  0  0  0
    1.9069    0.8786    4.7498 H   0  0  0  0  0  0  0  0  0  0  0  0
   -0.3912    2.1509    7.6669 H   0  0  0  0  0  0  0  0  0  0  0  0
    2.4609    0.2330    7.3743 H   0  0  0  0  0  0  0  0  0  0  0  0
    1.1585    0.6075    8.4696 H   0  0  0  0  0  0  0  0  0  0  0  0
    1.6065   -1.8616    8.2649 H   0  0  0  0  0  0  0  0  0  0  0  0
    0.0084   -1.3621    8.0860 H   0  0  0  0  0  0  0  0  0  0  0  0
   -0.9520   -2.9097    5.1268 H   0  0  0  0  0  0  0  0  0  0  0  0
   -1.2032   -1.2785    5.7186 H   0  0  0  0  0  0  0  0  0  0  0  0
   -1.2597   -2.6329    6.8042 H   0  0  0  0  0  0  0  0  0  0  0  0
    0.9980   -4.0819    5.4235 H   0  0  0  0  0  0  0  0  0  0  0  0
    1.4895   -4.0555    8.4132 H   0  0  0  0  0  0  0  0  0  0  0  0
   -0.0943   -4.1022    7.7887 H   0  0  0  0  0  0  0  0  0  0  0  0
    0.9981   -6.2772    8.3462 H   0  0  0  0  0  0  0  0  0  0  0  0
   -0.1353   -5.8834    5.8311 H   0  0  0  0  0  0  0  0  0  0  0  0
    2.9631   -6.7748    7.5378 H   0  0  0  0  0  0  0  0  0  0  0  0
    1.4060   -7.1527    5.0854 H   0  0  0  0  0  0  0  0  0  0  0  0
    2.5962   -9.7606    7.5820 H   0  0  0  0  0  0  0  0  0  0  0  0
    0.8756  -10.1449    7.7823 H   0  0  0  0  0  0  0  0  0  0  0  0
    1.4879   -8.6181    8.3584 H   0  0  0  0  0  0  0  0  0  0  0  0
    1.5907  -10.6993    5.4136 H   0  0  0  0  0  0  0  0  0  0  0  0
    0.1603   -9.8964    4.7808 H   0  0  0  0  0  0  0  0  0  0  0  0
    2.4396   -9.8661    3.3353 H   0  0  0  0  0  0  0  0  0  0  0  0
    1.4263   -8.4459    3.3860 H   0  0  0  0  0  0  0  0  0  0  0  0
    4.9072   -8.7917    5.9232 H   0  0  0  0  0  0  0  0  0  0  0  0
    3.8084  -10.1084    5.7932 H   0  0  0  0  0  0  0  0  0  0  0  0
    5.8788  -10.3074    4.3628 H   0  0  0  0  0  0  0  0  0  0  0  0
    4.4052  -10.6285    3.5426 H   0  0  0  0  0  0  0  0  0  0  0  0
    6.3439   -8.3893    3.2251 H   0  0  0  0  0  0  0  0  0  0  0  0
    4.8175  -10.0120    1.1664 H   0  0  0  0  0  0  0  0  0  0  0  0
    6.4561  -10.3005    1.7168 H   0  0  0  0  0  0  0  0  0  0  0  0
    6.0832   -8.8396    0.8107 H   0  0  0  0  0  0  0  0  0  0  0  0
    5.1216   -6.7277    2.4121 H   0  0  0  0  0  0  0  0  0  0  0  0
    2.8614   -8.5346    1.5340 H   0  0  0  0  0  0  0  0  0  0  0  0
    3.9101   -7.4865    0.5995 H   0  0  0  0  0  0  0  0  0  0  0  0
    2.7069   -6.7795    1.6563 H   0  0  0  0  0  0  0  0  0  0  0  0
    4.8562   -7.1008    4.5782 H   0  0  0  0  0  0  0  0  0  0  0  0
    4.1321   -5.0750    3.8700 H   0  0  0  0  0  0  0  0  0  0  0  0
    2.4400   -5.5324    3.9164 H   0  0  0  0  0  0  0  0  0  0  0  0
    5.5338   -5.0371    5.9842 H   0  0  0  0  0  0  0  0  0  0  0  0
    5.0413   -6.6395    6.5397 H   0  0  0  0  0  0  0  0  0  0  0  0
    4.8433   -5.3365    7.5917 H   0  0  0  0  0  0  0  0  0  0  0  0
    4.8209   -3.1405    7.2167 H   0  0  0  0  0  0  0  0  0  0  0  0
    3.5611   -3.6768    8.3092 H   0  0  0  0  0  0  0  0  0  0  0  0
    3.5285   -2.0984    7.5625 H   0  0  0  0  0  0  0  0  0  0  0  0
    4.5333   -2.8779    4.9000 H   0  0  0  0  0  0  0  0  0  0  0  0
    3.1150   -3.2606    3.9968 H   0  0  0  0  0  0  0  0  0  0  0  0
    3.3792   -0.8963    5.8392 H   0  0  0  0  0  0  0  0  0  0  0  0
    3.2340   -1.0766    3.0765 H   0  0  0  0  0  0  0  0  0  0  0  0
    1.0740   -2.9286    3.5174 H   0  0  0  0  0  0  0  0  0  0  0  0
    1.4101   -1.4071    2.7269 H   0  0  0  0  0  0  0  0  0  0  0  0
   -0.1478   -1.7224    3.4196 H   0  0  0  0  0  0  0  0  0  0  0  0
    0.2971   -8.3779    6.3592 H   0  0  0  0  0  0  0  0  0  0  0  0
  1  2  1  0
  1 41  1  0
  1 42  1  0
  1 43  1  0
  2  7  1  0
  2  3  1  0
  2 44  1  6
  3  4  1  0
  3 45  1  0
  3 46  1  0
  4 39  1  0
  4  5  1  0
  4 47  1  6
  5  6  2  0
  5  9  1  0
  6  7  1  0
  6 48  1  0
  7  8  2  0
  9 10  1  0
  9 49  1  0
  9 50  1  0
 10 11  1  0
 10 51  1  0
 10 52  1  0
 11 39  1  0
 11 12  1  6
 11 13  1  0
 12 53  1  0
 12 54  1  0
 12 55  1  0
 13 34  1  0
 13 14  1  0
 13 56  1  6
 14 15  1  0
 14 57  1  0
 14 58  1  0
 15 16  1  0
 15 17  1  0
 15 59  1  1
 16 60  1  0
 17 32  1  0
 17 18  1  0
 17 61  1  1
 18 23  1  0
 18 19  1  0
 18 62  1  6
 19 20  1  0
 19 21  1  0
 19 98  1  1
 20 63  1  0
 20 64  1  0
 20 65  1  0
 21 22  1  0
 21 66  1  0
 21 67  1  0
 23 22  1  6
 22 68  1  0
 22 69  1  0
 23 30  1  0
 23 24  1  0
 24 25  1  0
 24 70  1  0
 24 71  1  0
 25 26  1  0
 25 72  1  0
 25 73  1  0
 26 27  1  0
 26 28  1  0
 26 74  1  1
 27 75  1  0
 27 76  1  0
 27 77  1  0
 28 29  1  0
 28 30  1  0
 28 78  1  6
 29 79  1  0
 29 80  1  0
 29 81  1  0
 30 31  1  0
 30 82  1  1
 31 32  1  0
 31 83  1  0
 31 84  1  0
 32 33  1  1
 32 34  1  0
 33 85  1  0
 33 86  1  0
 33 87  1  0
 34 35  1  1
 34 36  1  0
 35 88  1  0
 35 89  1  0
 35 90  1  0
 36 37  1  0
 36 91  1  0
 36 92  1  0
 37 38  1  0
 37 39  1  0
 37 93  1  1
 38 94  1  0
 39 40  1  6
 40 95  1  0
 40 96  1  0
 40 97  1  0
M  CHG  1  19   1
M  END
>  <i_m_ct_stereo_status>  (263) 
1

>  <s_m_source_file>  (263) 
/var/tmp/pbs.5076255.sched01/tmpinim70aj/80j3ziidn5.sdf

>  <i_m_source_file_index>  (263) 
28

>  <i_lp_mmshare_version>  (263) 
48012

>  <i_f3d_flags>  (263) 
0

>  <s_epik_input>  (263) 
W0NIM11bQ0BIXShbQ0gyXTEpQyg9TylbQ0hdPUMoW0NIMl1bQ0gyXTIpW0NASF0xW0NAQF0oW0NIM10pKFtDQEBIXShbQ0gyXTMpW09IXSlbQ0BAXTIoW0NIM10pW0NASF0oW0NIMl1bQ0BIXTRbT0hdKVtDQEBdMyhbQ0gzXSlbQ0BAXShbQ0gzXSkoW0NAQEhdNFtDQEBIXShbQ0BdNTY3KU4oW0NIM10pW0NIMl1bQ0gyXTUpW0NIMl1bQ0BASF03W0NASF0oW0NIM10pW0NASF0oW0NIM10pW0NIMl1bQ0gyXTY=

>  <s_epik_cmdline>  (263) 
J2VwaWtfcHl0aG9uJywgJy1waHQnLCAnMi4wJywgJy1waCcsICc3LjAnLCAnLXRuJywgJzgnLCAnLW1hJywgJzIwMCcsICctaW1hZScsICc8aW5maWxlLm1hZT4nLCAnLW9tYWUnLCAnPG91dGZpbGUubWFlPic=

>  <r_epik_Ionization_Penalty>  (263) 
0.000496014

>  <r_epik_Ionization_Penalty_Charging>  (263) 
0.000495354

>  <r_epik_Ionization_Penalty_Neutral>  (263) 
6.60266e-07

>  <r_epik_State_Penalty>  (263) 
0.000307992

>  <r_epik_Charging_Adjusted_Penalty>  (263) 
0.000803346

>  <i_epik_Tot_Q>  (263) 
1

>  <i_epik_Tot_abs_Q>  (263) 
1

>  <s_lp_Force_Field>  (263) 
OPLS3e

>  <r_lp_Energy>  (263) 
162.914

>  <b_lp_Chiralities_Consistent>  (263) 
1

>  <s_lp_Variant>  (263) 
82:0-1

>  <s_i_glide_gridfile>  (263) 
pfpi4k_grid

>  <i_i_glide_lignum>  (263) 
28

>  <i_i_glide_rotatable_bonds>  (263) 
2

>  <r_i_docking_score>  (263) 
-2.26466

>  <r_i_glide_ligand_efficiency>  (263) 
-0.0566165

>  <r_i_glide_ligand_efficiency_sa>  (263) 
-0.193626

>  <r_i_glide_ligand_efficiency_ln>  (263) 
-0.482986

>  <r_i_glide_gscore>  (263) 
-2.26466

>  <r_i_glide_lipo>  (263) 
-0.0475206

>  <r_i_glide_hbond>  (263) 
0

>  <r_i_glide_metal>  (263) 
-0

>  <r_i_glide_rewards>  (263) 
-0.5

>  <r_i_glide_evdw>  (263) 
-20.1685

>  <r_i_glide_ecoul>  (263) 
-4.45345

>  <r_i_glide_erotb>  (263) 
0

>  <r_i_glide_esite>  (263) 
-0.0406971

>  <r_i_glide_emodel>  (263) 
-34.2868

>  <r_i_glide_energy>  (263) 
-24.622

>  <r_i_glide_einternal>  (263) 
0.147014

>  <r_i_glide_intrahb_reward>  (263) 
-0.5

>  <i_i_glide_confnum>  (263) 
1

>  <i_i_glide_posenum>  (263) 
21

>  <r_i_glide_eff_state_penalty>  (263) 
0

>  <ligand_id>  (263) 
82

>  <original_smiles>  (263) 
CC1CC2C(=CC1=O)CCC1(C)C3CC(O)C4C5N(C)CCC56CCC(C)C(C)C6CC4(C)C3(C)CC(O)C21C

>  <smiles>  (263) 
[H]OC1([H])C([H])([H])C2([H])C3(C([H])([H])[H])C([H])([H])C([H])([H])C4=C([H])C(=O)C([H])(C([H])([H])[H])C([H])([H])C4([H])C3(C([H])([H])[H])C([H])(O[H])C([H])([H])C2(C([H])([H])[H])C2(C([H])([H])[H])C([H])([H])C3([H])C([H])(C([H])([H])[H])C([H])(C([H])([H])[H])C([H])([H])C([H])([H])C34C([H])([H])C([H])([H])[N+]([H])(C([H])([H])[H])C4([H])C12[H]

$$$$
83:0:0
     RDKit          3D

 65 71  0  0  1  0  0  0  0  0999 V2000
    3.4603   -7.1027    5.2574 C   0  0  0  0  0  0  0  0  0  0  0  0
    3.4156   -5.5689    5.1065 C   0  0  2  0  0  0  0  0  0  0  0  0
    2.0476   -4.9742    5.4764 C   0  0  1  0  0  0  0  0  0  0  0  0
    1.9142   -4.7499    6.8696 O   0  0  0  0  0  0  0  0  0  0  0  0
    1.9768   -3.6837    4.7195 C   0  0  1  0  0  0  0  0  0  0  0  0
    0.6955   -3.1738    4.3833 O   0  0  0  0  0  0  0  0  0  0  0  0
    3.0874   -2.7941    4.6936 O   0  0  0  0  0  0  0  0  0  0  0  0
    2.9717   -3.6830    3.5654 C   0  0  1  0  0  0  0  0  0  0  0  0
    3.7710   -5.0424    3.6841 C   0  0  1  0  0  0  0  0  0  0  0  0
    5.3446   -5.0424    3.5757 C   0  0  0  0  0  0  0  0  0  0  0  0
    6.0572   -5.2396    2.2055 C   0  0  1  0  0  0  0  0  0  0  0  0
    5.6209   -6.2811    1.1949 C   0  0  0  0  0  0  0  0  0  0  0  0
    5.5010   -5.2854    0.1399 O   0  0  0  0  0  0  0  0  0  0  0  0
    5.9627   -4.2375    1.0394 C   0  0  2  0  0  0  0  0  0  0  0  0
    7.2915   -3.8357    0.3911 C   0  0  0  0  0  0  0  0  0  0  0  0
    4.8916   -3.1289    1.2773 C   0  0  1  0  0  0  0  0  0  0  0  0
    5.1156   -1.6005    1.0498 C   0  0  1  0  0  0  0  0  0  0  0  0
    6.5303   -1.1107    1.3708 C   0  0  0  0  0  0  0  0  0  0  0  0
    4.8050   -1.2499   -0.4107 C   0  0  0  0  0  0  0  0  0  0  0  0
    5.6685   -0.7747   -1.1553 O   0  0  0  0  0  0  0  0  0  0  0  0
    3.4131   -1.4977   -0.9037 C   0  0  1  0  0  0  0  0  0  0  0  0
    3.2699   -1.1230   -2.4065 C   0  0  0  0  0  0  0  0  0  0  0  0
    3.0345   -2.9598   -0.5077 C   0  0  0  0  0  0  0  0  0  0  0  0
    3.3954   -3.8607   -1.5840 O   0  0  0  0  0  0  0  0  0  0  0  0
    1.9943   -3.8705   -2.0327 C   0  0  0  0  0  0  0  0  0  0  0  0
    1.6872   -3.2873   -0.7820 O   0  0  0  0  0  0  0  0  0  0  0  0
    3.4174   -3.4817    0.9401 C   0  0  1  0  0  0  0  0  0  0  0  0
    3.0463   -4.8425    0.8375 O   0  0  0  0  0  0  0  0  0  0  0  0
    2.6160   -2.9805    2.1863 C   0  0  2  0  0  0  0  0  0  0  0  0
    2.6949   -1.4183    2.1906 C   0  0  1  0  0  0  0  0  0  0  0  0
    1.9575   -0.7867    3.2292 O   0  0  0  0  0  0  0  0  0  0  0  0
    4.1285   -0.8159    2.0203 C   0  0  1  0  0  0  0  0  0  0  0  0
    4.6892   -0.6886    3.3197 O   0  0  0  0  0  0  0  0  0  0  0  0
    2.7531   -7.5930    4.5856 H   0  0  0  0  0  0  0  0  0  0  0  0
    3.2059   -7.4009    6.2769 H   0  0  0  0  0  0  0  0  0  0  0  0
    4.4500   -7.5140    5.0467 H   0  0  0  0  0  0  0  0  0  0  0  0
    4.1419   -5.1436    5.7985 H   0  0  0  0  0  0  0  0  0  0  0  0
    1.2515   -5.6346    5.1298 H   0  0  0  0  0  0  0  0  0  0  0  0
    2.0230   -5.5661    7.3252 H   0  0  0  0  0  0  0  0  0  0  0  0
    0.8266   -2.5492    3.6961 H   0  0  0  0  0  0  0  0  0  0  0  0
    3.3504   -5.7794    3.0039 H   0  0  0  0  0  0  0  0  0  0  0  0
    5.7288   -4.1517    4.0704 H   0  0  0  0  0  0  0  0  0  0  0  0
    5.7184   -5.8467    4.2079 H   0  0  0  0  0  0  0  0  0  0  0  0
    7.1175   -5.4157    2.3750 H   0  0  0  0  0  0  0  0  0  0  0  0
    6.3964   -7.0185    0.9952 H   0  0  0  0  0  0  0  0  0  0  0  0
    4.6796   -6.7696    1.4359 H   0  0  0  0  0  0  0  0  0  0  0  0
    7.9359   -3.3048    1.0896 H   0  0  0  0  0  0  0  0  0  0  0  0
    7.1420   -3.2319   -0.5039 H   0  0  0  0  0  0  0  0  0  0  0  0
    7.8709   -4.7099    0.0826 H   0  0  0  0  0  0  0  0  0  0  0  0
    4.9697   -3.0309    2.3450 H   0  0  0  0  0  0  0  0  0  0  0  0
    6.8976   -1.5063    2.3102 H   0  0  0  0  0  0  0  0  0  0  0  0
    6.3944   -0.0504    1.4939 H   0  0  0  0  0  0  0  0  0  0  0  0
    7.2959   -1.2411    0.6045 H   0  0  0  0  0  0  0  0  0  0  0  0
    2.7862   -0.7649   -0.4021 H   0  0  0  0  0  0  0  0  0  0  0  0
    3.5625   -0.0906   -2.6139 H   0  0  0  0  0  0  0  0  0  0  0  0
    2.2325   -1.1666   -2.7283 H   0  0  0  0  0  0  0  0  0  0  0  0
    3.8879   -1.7509   -3.0545 H   0  0  0  0  0  0  0  0  0  0  0  0
    1.7593   -3.2471   -2.8943 H   0  0  0  0  0  0  0  0  0  0  0  0
    1.4166   -4.7919   -2.0482 H   0  0  0  0  0  0  0  0  0  0  0  0
    3.5263   -5.1683    0.0908 H   0  0  0  0  0  0  0  0  0  0  0  0
    1.5685   -3.2233    2.0252 H   0  0  0  0  0  0  0  0  0  0  0  0
    2.0951   -1.1046    1.3487 H   0  0  0  0  0  0  0  0  0  0  0  0
    1.8530    0.1248    3.0165 H   0  0  0  0  0  0  0  0  0  0  0  0
    4.0268    0.2128    1.6647 H   0  0  0  0  0  0  0  0  0  0  0  0
    4.0737   -0.2164    3.8556 H   0  0  0  0  0  0  0  0  0  0  0  0
  1  2  1  0
  1 34  1  0
  1 35  1  0
  1 36  1  0
  2  9  1  0
  2  3  1  0
  2 37  1  1
  3  4  1  0
  3  5  1  0
  3 38  1  6
  4 39  1  0
  5  8  1  0
  5  6  1  6
  5  7  1  0
  6 40  1  0
  8  7  1  1
  8 29  1  0
  8  9  1  0
  9 10  1  0
  9 41  1  6
 10 11  1  0
 10 42  1  0
 10 43  1  0
 11 14  1  0
 11 12  1  0
 11 44  1  1
 12 13  1  0
 12 45  1  0
 12 46  1  0
 13 14  1  0
 14 15  1  6
 14 16  1  0
 15 47  1  0
 15 48  1  0
 15 49  1  0
 16 27  1  0
 16 17  1  0
 16 50  1  1
 17 32  1  0
 17 18  1  1
 17 19  1  0
 18 51  1  0
 18 52  1  0
 18 53  1  0
 19 20  2  0
 19 21  1  0
 21 22  1  0
 21 23  1  0
 21 54  1  1
 22 55  1  0
 22 56  1  0
 22 57  1  0
 23 26  1  0
 23 24  1  0
 23 27  1  0
 24 25  1  0
 25 26  1  0
 25 58  1  0
 25 59  1  0
 27 28  1  6
 27 29  1  0
 28 60  1  0
 29 30  1  0
 29 61  1  6
 30 31  1  0
 30 32  1  0
 30 62  1  6
 31 63  1  0
 32 33  1  0
 32 64  1  6
 33 65  1  0
M  END
>  <i_m_ct_stereo_status>  (264) 
1

>  <s_m_source_file>  (264) 
/var/tmp/pbs.5076255.sched01/tmpinim70aj/80j3ziidn5.sdf

>  <i_m_source_file_index>  (264) 
29

>  <i_lp_mmshare_version>  (264) 
48012

>  <i_f3d_flags>  (264) 
0

>  <s_epik_input>  (264) 
W09IXVtDQF0oTzEpKFtDQEBdMTIzKVtDQEhdKFtPSF0pW0NAQEhdKFtDSDNdKVtDQEBIXTJbQ0gyXVtDQEBIXTRbQ0BAXShbQ0gzXSkoT1tDSDJdNClbQ0BIXTVbQ0BAXTYoW0NIM10pQyg9TylbQ0BASF0oW0NIM10pQzcoT1tDSDJdTzcpW0NAXTUoW09IXSlbQ0BASF0zW0NAQEhdKFtPSF0pW0NASF02W09IXQ==

>  <s_epik_cmdline>  (264) 
J2VwaWtfcHl0aG9uJywgJy1waHQnLCAnMi4wJywgJy1waCcsICc3LjAnLCAnLXRuJywgJzgnLCAnLW1hJywgJzIwMCcsICctaW1hZScsICc8aW5maWxlLm1hZT4nLCAnLW9tYWUnLCAnPG91dGZpbGUubWFlPic=

>  <r_lp_tautomer_probability>  (264) 
1

>  <r_epik_Ionization_Penalty>  (264) 
1.20108e-05

>  <r_epik_Ionization_Penalty_Charging>  (264) 
0

>  <r_epik_Ionization_Penalty_Neutral>  (264) 
1.20108e-05

>  <r_epik_State_Penalty>  (264) 
-0

>  <r_epik_Charging_Adjusted_Penalty>  (264) 
0

>  <i_epik_Tot_Q>  (264) 
0

>  <i_epik_Tot_abs_Q>  (264) 
0

>  <s_epik_Chemistry_Notes>  (264) 
This compound contains an acetal/aminal-like group ( X-CH(R)-Y where X, Y are N, S, or O) that may be acid/base labile, releasing an aldehyde.

>  <s_lp_Force_Field>  (264) 
OPLS3e

>  <r_lp_Energy>  (264) 
81.56

>  <b_lp_Chiralities_Consistent>  (264) 
1

>  <s_lp_Variant>  (264) 
83:0-1

>  <s_i_glide_gridfile>  (264) 
pfpi4k_grid

>  <i_i_glide_lignum>  (264) 
29

>  <i_i_glide_rotatable_bonds>  (264) 
5

>  <r_i_docking_score>  (264) 
-3.16636

>  <r_i_glide_ligand_efficiency>  (264) 
-0.0959504

>  <r_i_glide_ligand_efficiency_sa>  (264) 
-0.307764

>  <r_i_glide_ligand_efficiency_ln>  (264) 
-0.704183

>  <r_i_glide_gscore>  (264) 
-3.16636

>  <r_i_glide_lipo>  (264) 
-0.582018

>  <r_i_glide_hbond>  (264) 
-0.0988943

>  <r_i_glide_metal>  (264) 
-0

>  <r_i_glide_rewards>  (264) 
-1.24946

>  <r_i_glide_evdw>  (264) 
-8.68991

>  <r_i_glide_ecoul>  (264) 
-5.00915

>  <r_i_glide_erotb>  (264) 
0

>  <r_i_glide_esite>  (264) 
-0.0501185

>  <r_i_glide_emodel>  (264) 
-21.4298

>  <r_i_glide_energy>  (264) 
-13.6991

>  <r_i_glide_einternal>  (264) 
1.61587

>  <r_i_glide_intrahb_reward>  (264) 
-1

>  <i_i_glide_confnum>  (264) 
3

>  <i_i_glide_posenum>  (264) 
7

>  <r_i_glide_eff_state_penalty>  (264) 
0

>  <ligand_id>  (264) 
83

>  <original_smiles>  (264) 
CC1C(O)C2(O)OC23C1CC1COC1(C)C1C2(C)C(=O)C(C)C4(OCO4)C1(O)C3C(O)C2O

>  <smiles>  (264) 
[H]OC1([H])C2(O[H])OC23C([H])(C([H])([H])C2([H])C([H])([H])OC2(C([H])([H])[H])C2([H])C4(O[H])C5(OC([H])([H])O5)C([H])(C([H])([H])[H])C(=O)C2(C([H])([H])[H])C([H])(O[H])C([H])(O[H])C34[H])C1([H])C([H])([H])[H]

$$$$
83:0:1
     RDKit          3D

 65 71  0  0  1  0  0  0  0  0999 V2000
    3.7491   -6.3834    5.6306 C   0  0  0  0  0  0  0  0  0  0  0  0
    3.6678   -4.8820    5.2739 C   0  0  2  0  0  0  0  0  0  0  0  0
    2.3155   -4.2420    5.6245 C   0  0  1  0  0  0  0  0  0  0  0  0
    2.2701   -3.8407    6.9867 O   0  0  0  0  0  0  0  0  0  0  0  0
    2.1923   -3.0757    4.7062 C   0  0  1  0  0  0  0  0  0  0  0  0
    0.8804   -2.6248    4.3327 O   0  0  0  0  0  0  0  0  0  0  0  0
    3.2890   -2.1907    4.5067 O   0  0  0  0  0  0  0  0  0  0  0  0
    3.1189   -3.2354    3.5234 C   0  0  1  0  0  0  0  0  0  0  0  0
    3.9424   -4.5584    3.7754 C   0  0  1  0  0  0  0  0  0  0  0  0
    5.4990   -4.5636    3.5923 C   0  0  0  0  0  0  0  0  0  0  0  0
    6.1589   -4.9344    2.2236 C   0  0  1  0  0  0  0  0  0  0  0  0
    5.6973   -6.1045    1.3818 C   0  0  0  0  0  0  0  0  0  0  0  0
    5.5065   -5.2625    0.2186 O   0  0  0  0  0  0  0  0  0  0  0  0
    5.9958   -4.1020    0.9393 C   0  0  2  0  0  0  0  0  0  0  0  0
    7.2885   -3.7846    0.1819 C   0  0  0  0  0  0  0  0  0  0  0  0
    4.9310   -2.9711    1.0932 C   0  0  1  0  0  0  0  0  0  0  0  0
    5.1382   -1.4911    0.6356 C   0  0  1  0  0  0  0  0  0  0  0  0
    6.5555   -0.9562    0.8195 C   0  0  0  0  0  0  0  0  0  0  0  0
    4.7346   -1.3636   -0.8263 C   0  0  0  0  0  0  0  0  0  0  0  0
    5.5531   -1.0129   -1.7033 O   0  0  0  0  0  0  0  0  0  0  0  0
    3.3158   -1.6298   -1.2007 C   0  0  1  0  0  0  0  0  0  0  0  0
    3.1211   -1.5077   -2.7383 C   0  0  0  0  0  0  0  0  0  0  0  0
    2.9263   -2.9864   -0.5498 C   0  0  0  0  0  0  0  0  0  0  0  0
    3.3097   -3.9176   -1.5203 O   0  0  0  0  0  0  0  0  0  0  0  0
    1.9008   -4.1351   -1.8572 C   0  0  0  0  0  0  0  0  0  0  0  0
    1.5609   -3.3534   -0.7340 O   0  0  0  0  0  0  0  0  0  0  0  0
    3.4333   -3.3723    0.8956 C   0  0  1  0  0  0  0  0  0  0  0  0
    3.0913   -4.7545    0.9600 O   0  0  0  0  0  0  0  0  0  0  0  0
    2.6860   -2.7295    2.0953 C   0  0  2  0  0  0  0  0  0  0  0  0
    2.7676   -1.1810    1.8654 C   0  0  1  0  0  0  0  0  0  0  0  0
    2.1151   -0.4128    2.8556 O   0  0  0  0  0  0  0  0  0  0  0  0
    4.1822   -0.6081    1.5398 C   0  0  1  0  0  0  0  0  0  0  0  0
    4.7979   -0.3036    2.7837 O   0  0  0  0  0  0  0  0  0  0  0  0
    3.0201   -6.9641    5.0672 H   0  0  0  0  0  0  0  0  0  0  0  0
    3.5520   -6.5400    6.6877 H   0  0  0  0  0  0  0  0  0  0  0  0
    4.7309   -6.8094    5.4262 H   0  0  0  0  0  0  0  0  0  0  0  0
    4.4290   -4.3638    5.8548 H   0  0  0  0  0  0  0  0  0  0  0  0
    1.5164   -4.9542    5.4158 H   0  0  0  0  0  0  0  0  0  0  0  0
    2.3799   -4.6005    7.5231 H   0  0  0  0  0  0  0  0  0  0  0  0
    0.9818   -2.1049    3.5646 H   0  0  0  0  0  0  0  0  0  0  0  0
    3.5096   -5.3841    3.2280 H   0  0  0  0  0  0  0  0  0  0  0  0
    5.8325   -3.5932    3.9458 H   0  0  0  0  0  0  0  0  0  0  0  0
    5.9323   -5.2527    4.3201 H   0  0  0  0  0  0  0  0  0  0  0  0
    7.2341   -5.0902    2.3624 H   0  0  0  0  0  0  0  0  0  0  0  0
    6.4903   -6.8378    1.2440 H   0  0  0  0  0  0  0  0  0  0  0  0
    4.7779   -6.5692    1.7339 H   0  0  0  0  0  0  0  0  0  0  0  0
    7.9727   -3.1571    0.7664 H   0  0  0  0  0  0  0  0  0  0  0  0
    7.0899   -3.3221   -0.7840 H   0  0  0  0  0  0  0  0  0  0  0  0
    7.8622   -4.6899   -0.0253 H   0  0  0  0  0  0  0  0  0  0  0  0
    5.0546   -2.7401    2.1332 H   0  0  0  0  0  0  0  0  0  0  0  0
    6.9749   -1.2342    1.7837 H   0  0  0  0  0  0  0  0  0  0  0  0
    6.4919    0.1517    0.7561 H   0  0  0  0  0  0  0  0  0  0  0  0
    7.2688   -1.2411    0.0541 H   0  0  0  0  0  0  0  0  0  0  0  0
    2.7093   -0.8298   -0.7945 H   0  0  0  0  0  0  0  0  0  0  0  0
    3.3807   -0.5091   -3.0601 H   0  0  0  0  0  0  0  0  0  0  0  0
    2.0879   -1.6542   -3.0302 H   0  0  0  0  0  0  0  0  0  0  0  0
    3.7244   -2.2112   -3.3322 H   0  0  0  0  0  0  0  0  0  0  0  0
    1.6126   -3.7055   -2.8174 H   0  0  0  0  0  0  0  0  0  0  0  0
    1.4505   -5.1183   -1.6716 H   0  0  0  0  0  0  0  0  0  0  0  0
    3.5884   -5.1573    0.2683 H   0  0  0  0  0  0  0  0  0  0  0  0
    1.6408   -3.0126    2.0010 H   0  0  0  0  0  0  0  0  0  0  0  0
    2.1316   -0.9858    1.0176 H   0  0  0  0  0  0  0  0  0  0  0  0
    2.5571   -0.5843    3.6682 H   0  0  0  0  0  0  0  0  0  0  0  0
    4.0484    0.3533    1.0434 H   0  0  0  0  0  0  0  0  0  0  0  0
    4.2983    0.3827    3.1740 H   0  0  0  0  0  0  0  0  0  0  0  0
  1  2  1  0
  1 34  1  0
  1 35  1  0
  1 36  1  0
  2  9  1  0
  2  3  1  0
  2 37  1  1
  3  4  1  0
  3  5  1  0
  3 38  1  6
  4 39  1  0
  5  8  1  0
  5  6  1  6
  5  7  1  0
  6 40  1  0
  8  7  1  1
  8 29  1  0
  8  9  1  0
  9 10  1  0
  9 41  1  6
 10 11  1  0
 10 42  1  0
 10 43  1  0
 11 14  1  0
 11 12  1  0
 11 44  1  1
 12 13  1  0
 12 45  1  0
 12 46  1  0
 13 14  1  0
 14 15  1  6
 14 16  1  0
 15 47  1  0
 15 48  1  0
 15 49  1  0
 16 27  1  0
 16 17  1  0
 16 50  1  1
 17 32  1  0
 17 18  1  6
 17 19  1  0
 18 51  1  0
 18 52  1  0
 18 53  1  0
 19 20  2  0
 19 21  1  0
 21 22  1  0
 21 23  1  0
 21 54  1  1
 22 55  1  0
 22 56  1  0
 22 57  1  0
 23 26  1  0
 23 24  1  0
 23 27  1  0
 24 25  1  0
 25 26  1  0
 25 58  1  0
 25 59  1  0
 27 28  1  1
 27 29  1  0
 28 60  1  0
 29 30  1  0
 29 61  1  6
 30 31  1  0
 30 32  1  0
 30 62  1  6
 31 63  1  0
 32 33  1  0
 32 64  1  6
 33 65  1  0
M  END
>  <i_m_ct_stereo_status>  (265) 
1

>  <s_m_source_file>  (265) 
/var/tmp/pbs.5076255.sched01/tmpinim70aj/80j3ziidn5.sdf

>  <i_m_source_file_index>  (265) 
29

>  <i_lp_mmshare_version>  (265) 
48012

>  <i_f3d_flags>  (265) 
0

>  <s_epik_input>  (265) 
W09IXVtDQF0oTzEpKFtDQEBdMTIzKVtDQEhdKFtPSF0pW0NAQEhdKFtDSDNdKVtDQEBIXTJbQ0gyXVtDQEBIXTRbQ0BAXShbQ0gzXSkoT1tDSDJdNClbQ0BIXTVbQ0BAXTYoW0NIM10pQyg9TylbQ0BASF0oW0NIM10pQzcoT1tDSDJdTzcpW0NAXTUoW09IXSlbQ0BASF0zW0NAQEhdKFtPSF0pW0NASF02W09IXQ==

>  <s_epik_cmdline>  (265) 
J2VwaWtfcHl0aG9uJywgJy1waHQnLCAnMi4wJywgJy1waCcsICc3LjAnLCAnLXRuJywgJzgnLCAnLW1hJywgJzIwMCcsICctaW1hZScsICc8aW5maWxlLm1hZT4nLCAnLW9tYWUnLCAnPG91dGZpbGUubWFlPic=

>  <r_lp_tautomer_probability>  (265) 
1

>  <r_epik_Ionization_Penalty>  (265) 
1.20108e-05

>  <r_epik_Ionization_Penalty_Charging>  (265) 
0

>  <r_epik_Ionization_Penalty_Neutral>  (265) 
1.20108e-05

>  <r_epik_State_Penalty>  (265) 
-0

>  <r_epik_Charging_Adjusted_Penalty>  (265) 
0

>  <i_epik_Tot_Q>  (265) 
0

>  <i_epik_Tot_abs_Q>  (265) 
0

>  <s_epik_Chemistry_Notes>  (265) 
This compound contains an acetal/aminal-like group ( X-CH(R)-Y where X, Y are N, S, or O) that may be acid/base labile, releasing an aldehyde.

>  <s_lp_Force_Field>  (265) 
OPLS3e

>  <r_lp_Energy>  (265) 
81.56

>  <b_lp_Chiralities_Consistent>  (265) 
1

>  <s_lp_Variant>  (265) 
83:0-1

>  <s_i_glide_gridfile>  (265) 
pfpi4k_grid

>  <i_i_glide_lignum>  (265) 
29

>  <i_i_glide_rotatable_bonds>  (265) 
5

>  <r_i_docking_score>  (265) 
-2.91459

>  <r_i_glide_ligand_efficiency>  (265) 
-0.0883209

>  <r_i_glide_ligand_efficiency_sa>  (265) 
-0.283292

>  <r_i_glide_ligand_efficiency_ln>  (265) 
-0.64819

>  <r_i_glide_gscore>  (265) 
-2.91459

>  <r_i_glide_lipo>  (265) 
-0.53877

>  <r_i_glide_hbond>  (265) 
-0.0879954

>  <r_i_glide_metal>  (265) 
-0

>  <r_i_glide_rewards>  (265) 
-1.21481

>  <r_i_glide_evdw>  (265) 
-2.86397

>  <r_i_glide_ecoul>  (265) 
-5.53276

>  <r_i_glide_erotb>  (265) 
0

>  <r_i_glide_esite>  (265) 
-0.0999004

>  <r_i_glide_emodel>  (265) 
-17.4098

>  <r_i_glide_energy>  (265) 
-8.39672

>  <r_i_glide_einternal>  (265) 
1.28496

>  <r_i_glide_intrahb_reward>  (265) 
-1

>  <i_i_glide_confnum>  (265) 
1

>  <i_i_glide_posenum>  (265) 
3

>  <r_i_glide_eff_state_penalty>  (265) 
0

>  <ligand_id>  (265) 
83

>  <original_smiles>  (265) 
CC1C(O)C2(O)OC23C1CC1COC1(C)C1C2(C)C(=O)C(C)C4(OCO4)C1(O)C3C(O)C2O

>  <smiles>  (265) 
[H]OC1([H])C2(O[H])OC23C([H])(C([H])([H])C2([H])C([H])([H])OC2(C([H])([H])[H])C2([H])C4(O[H])C5(OC([H])([H])O5)C([H])(C([H])([H])[H])C(=O)C2(C([H])([H])[H])C([H])(O[H])C([H])(O[H])C34[H])C1([H])C([H])([H])[H]

$$$$
83:0:2
     RDKit          3D

 65 71  0  0  1  0  0  0  0  0999 V2000
    3.1428   -4.8117    6.7588 C   0  0  0  0  0  0  0  0  0  0  0  0
    3.7311   -3.6231    5.9603 C   0  0  2  0  0  0  0  0  0  0  0  0
    2.8801   -2.3506    6.0378 C   0  0  1  0  0  0  0  0  0  0  0  0
    3.1691   -1.6037    7.2048 O   0  0  0  0  0  0  0  0  0  0  0  0
    3.2069   -1.5847    4.7917 C   0  0  1  0  0  0  0  0  0  0  0  0
    2.2278   -0.6884    4.2925 O   0  0  0  0  0  0  0  0  0  0  0  0
    4.5716   -1.4535    4.3842 O   0  0  0  0  0  0  0  0  0  0  0  0
    3.8228   -2.5040    3.7560 C   0  0  1  0  0  0  0  0  0  0  0  0
    3.9644   -3.9147    4.4505 C   0  0  1  0  0  0  0  0  0  0  0  0
    5.3103   -4.7291    4.3455 C   0  0  0  0  0  0  0  0  0  0  0  0
    5.5645   -5.7410    3.1808 C   0  0  1  0  0  0  0  0  0  0  0  0
    4.5094   -6.7341    2.7289 C   0  0  0  0  0  0  0  0  0  0  0  0
    4.5970   -6.2792    1.3480 O   0  0  0  0  0  0  0  0  0  0  0  0
    5.6510   -5.3339    1.6976 C   0  0  2  0  0  0  0  0  0  0  0  0
    6.8558   -5.9107    0.9434 C   0  0  0  0  0  0  0  0  0  0  0  0
    5.2610   -3.8358    1.4280 C   0  0  1  0  0  0  0  0  0  0  0  0
    6.0815   -2.8328    0.5425 C   0  0  1  0  0  0  0  0  0  0  0  0
    7.6249   -3.0276    0.6127 C   0  0  0  0  0  0  0  0  0  0  0  0
    5.6557   -2.9476   -0.9327 C   0  0  0  0  0  0  0  0  0  0  0  0
    6.4695   -3.1290   -1.8315 O   0  0  0  0  0  0  0  0  0  0  0  0
    4.1905   -2.6630   -1.2237 C   0  0  1  0  0  0  0  0  0  0  0  0
    3.8966   -2.8603   -2.7325 C   0  0  0  0  0  0  0  0  0  0  0  0
    3.2838   -3.3838   -0.1969 C   0  0  0  0  0  0  0  0  0  0  0  0
    2.9945   -4.6864   -0.7051 O   0  0  0  0  0  0  0  0  0  0  0  0
    1.6966   -4.2468   -1.1471 C   0  0  0  0  0  0  0  0  0  0  0  0
    1.9081   -3.0569   -0.3756 O   0  0  0  0  0  0  0  0  0  0  0  0
    3.7286   -3.5210    1.3134 C   0  0  1  0  0  0  0  0  0  0  0  0
    2.8213   -4.4866    1.8099 O   0  0  0  0  0  0  0  0  0  0  0  0
    3.5056   -2.2890    2.2181 C   0  0  2  0  0  0  0  0  0  0  0  0
    4.2544   -1.1123    1.5240 C   0  0  1  0  0  0  0  0  0  0  0  0
    4.1292    0.1077    2.2186 O   0  0  0  0  0  0  0  0  0  0  0  0
    5.7325   -1.3833    1.0757 C   0  0  1  0  0  0  0  0  0  0  0  0
    6.5277   -1.0882    2.1940 O   0  0  0  0  0  0  0  0  0  0  0  0
    2.1655   -5.1119    6.3726 H   0  0  0  0  0  0  0  0  0  0  0  0
    3.0105   -4.5424    7.8091 H   0  0  0  0  0  0  0  0  0  0  0  0
    3.7823   -5.6997    6.7427 H   0  0  0  0  0  0  0  0  0  0  0  0
    4.7054   -3.3943    6.3908 H   0  0  0  0  0  0  0  0  0  0  0  0
    1.8284   -2.6282    6.0213 H   0  0  0  0  0  0  0  0  0  0  0  0
    2.9831   -2.1296    7.9692 H   0  0  0  0  0  0  0  0  0  0  0  0
    2.4009   -0.5718    3.3709 H   0  0  0  0  0  0  0  0  0  0  0  0
    3.1402   -4.5622    4.1730 H   0  0  0  0  0  0  0  0  0  0  0  0
    6.1402   -4.0334    4.4137 H   0  0  0  0  0  0  0  0  0  0  0  0
    5.4315   -5.3142    5.2592 H   0  0  0  0  0  0  0  0  0  0  0  0
    6.4479   -6.3397    3.4056 H   0  0  0  0  0  0  0  0  0  0  0  0
    4.8424   -7.7678    2.8410 H   0  0  0  0  0  0  0  0  0  0  0  0
    3.5222   -6.5829    3.1693 H   0  0  0  0  0  0  0  0  0  0  0  0
    7.8083   -5.5449    1.3300 H   0  0  0  0  0  0  0  0  0  0  0  0
    6.7599   -5.6856   -0.1114 H   0  0  0  0  0  0  0  0  0  0  0  0
    6.9077   -7.0003    1.0335 H   0  0  0  0  0  0  0  0  0  0  0  0
    5.6000   -3.4133    2.3569 H   0  0  0  0  0  0  0  0  0  0  0  0
    7.8963   -3.3431    1.6155 H   0  0  0  0  0  0  0  0  0  0  0  0
    8.1499   -2.1043    0.3634 H   0  0  0  0  0  0  0  0  0  0  0  0
    8.0357   -3.7818   -0.0596 H   0  0  0  0  0  0  0  0  0  0  0  0
    4.0579   -1.6013   -1.0971 H   0  0  0  0  0  0  0  0  0  0  0  0
    4.5811   -2.2528   -3.3270 H   0  0  0  0  0  0  0  0  0  0  0  0
    2.8934   -2.5289   -3.0118 H   0  0  0  0  0  0  0  0  0  0  0  0
    4.0356   -3.8981   -3.0581 H   0  0  0  0  0  0  0  0  0  0  0  0
    1.6334   -4.0839   -2.2382 H   0  0  0  0  0  0  0  0  0  0  0  0
    0.8912   -4.8689   -0.7508 H   0  0  0  0  0  0  0  0  0  0  0  0
    3.0626   -5.3008    1.3753 H   0  0  0  0  0  0  0  0  0  0  0  0
    2.4387   -2.0710    2.1750 H   0  0  0  0  0  0  0  0  0  0  0  0
    3.6722   -0.8847    0.6458 H   0  0  0  0  0  0  0  0  0  0  0  0
    4.5598   -0.0154    3.0572 H   0  0  0  0  0  0  0  0  0  0  0  0
    6.0014   -0.6544    0.3111 H   0  0  0  0  0  0  0  0  0  0  0  0
    7.0041   -0.2864    2.0300 H   0  0  0  0  0  0  0  0  0  0  0  0
  1  2  1  0
  1 34  1  0
  1 35  1  0
  1 36  1  0
  2  9  1  0
  2  3  1  0
  2 37  1  1
  3  4  1  0
  3  5  1  0
  3 38  1  6
  4 39  1  0
  5  8  1  0
  5  6  1  6
  5  7  1  0
  6 40  1  0
  8  7  1  6
  8 29  1  0
  8  9  1  0
  9 10  1  0
  9 41  1  6
 10 11  1  0
 10 42  1  0
 10 43  1  0
 11 14  1  0
 11 12  1  0
 11 44  1  1
 12 13  1  0
 12 45  1  0
 12 46  1  0
 13 14  1  0
 14 15  1  6
 14 16  1  0
 15 47  1  0
 15 48  1  0
 15 49  1  0
 16 27  1  0
 16 17  1  0
 16 50  1  1
 17 32  1  0
 17 18  1  6
 17 19  1  0
 18 51  1  0
 18 52  1  0
 18 53  1  0
 19 20  2  0
 19 21  1  0
 21 22  1  0
 21 23  1  0
 21 54  1  1
 22 55  1  0
 22 56  1  0
 22 57  1  0
 23 26  1  0
 23 24  1  0
 23 27  1  0
 24 25  1  0
 25 26  1  0
 25 58  1  0
 25 59  1  0
 27 28  1  1
 27 29  1  0
 28 60  1  0
 29 30  1  0
 29 61  1  1
 30 31  1  0
 30 32  1  0
 30 62  1  6
 31 63  1  0
 32 33  1  0
 32 64  1  6
 33 65  1  0
M  END
>  <i_m_ct_stereo_status>  (266) 
1

>  <s_m_source_file>  (266) 
/var/tmp/pbs.5076255.sched01/tmpinim70aj/80j3ziidn5.sdf

>  <i_m_source_file_index>  (266) 
29

>  <i_lp_mmshare_version>  (266) 
48012

>  <i_f3d_flags>  (266) 
0

>  <s_epik_input>  (266) 
W09IXVtDQF0oTzEpKFtDQEBdMTIzKVtDQEhdKFtPSF0pW0NAQEhdKFtDSDNdKVtDQEBIXTJbQ0gyXVtDQEBIXTRbQ0BAXShbQ0gzXSkoT1tDSDJdNClbQ0BIXTVbQ0BAXTYoW0NIM10pQyg9TylbQ0BASF0oW0NIM10pQzcoT1tDSDJdTzcpW0NAXTUoW09IXSlbQ0BASF0zW0NAQEhdKFtPSF0pW0NASF02W09IXQ==

>  <s_epik_cmdline>  (266) 
J2VwaWtfcHl0aG9uJywgJy1waHQnLCAnMi4wJywgJy1waCcsICc3LjAnLCAnLXRuJywgJzgnLCAnLW1hJywgJzIwMCcsICctaW1hZScsICc8aW5maWxlLm1hZT4nLCAnLW9tYWUnLCAnPG91dGZpbGUubWFlPic=

>  <r_lp_tautomer_probability>  (266) 
1

>  <r_epik_Ionization_Penalty>  (266) 
1.20108e-05

>  <r_epik_Ionization_Penalty_Charging>  (266) 
0

>  <r_epik_Ionization_Penalty_Neutral>  (266) 
1.20108e-05

>  <r_epik_State_Penalty>  (266) 
-0

>  <r_epik_Charging_Adjusted_Penalty>  (266) 
0

>  <i_epik_Tot_Q>  (266) 
0

>  <i_epik_Tot_abs_Q>  (266) 
0

>  <s_epik_Chemistry_Notes>  (266) 
This compound contains an acetal/aminal-like group ( X-CH(R)-Y where X, Y are N, S, or O) that may be acid/base labile, releasing an aldehyde.

>  <s_lp_Force_Field>  (266) 
OPLS3e

>  <r_lp_Energy>  (266) 
81.56

>  <b_lp_Chiralities_Consistent>  (266) 
1

>  <s_lp_Variant>  (266) 
83:0-1

>  <s_i_glide_gridfile>  (266) 
pfpi4k_grid

>  <i_i_glide_lignum>  (266) 
29

>  <i_i_glide_rotatable_bonds>  (266) 
5

>  <r_i_docking_score>  (266) 
-2.62031

>  <r_i_glide_ligand_efficiency>  (266) 
-0.0794033

>  <r_i_glide_ligand_efficiency_sa>  (266) 
-0.254689

>  <r_i_glide_ligand_efficiency_ln>  (266) 
-0.582743

>  <r_i_glide_gscore>  (266) 
-2.62031

>  <r_i_glide_lipo>  (266) 
-0.56799

>  <r_i_glide_hbond>  (266) 
-0.064171

>  <r_i_glide_metal>  (266) 
-0

>  <r_i_glide_rewards>  (266) 
-1.2864

>  <r_i_glide_evdw>  (266) 
-8.54858

>  <r_i_glide_ecoul>  (266) 
-1.38336

>  <r_i_glide_erotb>  (266) 
0

>  <r_i_glide_esite>  (266) 
-0.0668158

>  <r_i_glide_emodel>  (266) 
-18.4292

>  <r_i_glide_energy>  (266) 
-9.93194

>  <r_i_glide_einternal>  (266) 
2.34665

>  <r_i_glide_intrahb_reward>  (266) 
-1

>  <i_i_glide_confnum>  (266) 
3

>  <i_i_glide_posenum>  (266) 
39

>  <r_i_glide_eff_state_penalty>  (266) 
0

>  <ligand_id>  (266) 
83

>  <original_smiles>  (266) 
CC1C(O)C2(O)OC23C1CC1COC1(C)C1C2(C)C(=O)C(C)C4(OCO4)C1(O)C3C(O)C2O

>  <smiles>  (266) 
[H]OC1([H])C2(O[H])OC23C([H])(C([H])([H])C2([H])C([H])([H])OC2(C([H])([H])[H])C2([H])C4(O[H])C5(OC([H])([H])O5)C([H])(C([H])([H])[H])C(=O)C2(C([H])([H])[H])C([H])(O[H])C([H])(O[H])C34[H])C1([H])C([H])([H])[H]

$$$$
84:0:0
     RDKit          3D

 82 87  0  0  1  0  0  0  0  0999 V2000
    4.8990    1.8024    6.5962 C   0  0  0  0  0  0  0  0  0  0  0  0
    3.8805    2.5501    6.1155 C   0  0  0  0  0  0  0  0  0  0  0  0
    4.2174    3.8081    5.3180 C   0  0  0  0  0  0  0  0  0  0  0  0
    2.3825    2.2224    6.3616 C   0  0  2  0  0  0  0  0  0  0  0  0
    2.2420    1.3892    7.6512 C   0  0  0  0  0  0  0  0  0  0  0  0
    1.7470    0.1477    7.8916 C   0  0  0  0  0  0  0  0  0  0  0  0
    1.0989   -0.9194    7.0315 C   0  0  1  0  0  0  0  0  0  0  0  0
    0.1728   -1.7202    7.7803 O   0  0  0  0  0  0  0  0  0  0  0  0
    0.5921   -2.6960    8.6337 C   0  0  0  0  0  0  0  0  0  0  0  0
    1.7621   -3.0256    8.8223 O   0  0  0  0  0  0  0  0  0  0  0  0
   -0.5587   -3.3918    9.3687 C   0  0  0  0  0  0  0  0  0  0  0  0
   -0.9388   -2.6705   10.6722 C   0  0  0  0  0  0  0  0  0  0  0  0
    0.5350   -0.6705    5.6338 C   0  0  1  0  0  0  0  0  0  0  0  0
    0.3621    0.8089    5.2124 C   0  0  1  0  0  0  0  0  0  0  0  0
   -0.8482    1.2514    6.0651 C   0  0  0  0  0  0  0  0  0  0  0  0
    1.7210    1.5287    5.1670 C   0  0  2  0  0  0  0  0  0  0  0  0
    1.8830    1.0429    3.6848 C   0  0  1  0  0  0  0  0  0  0  0  0
    2.6138    1.8831    2.7935 O   0  0  0  0  0  0  0  0  0  0  0  0
    2.3428   -0.3966    3.2331 C   0  0  1  0  0  0  0  0  0  0  0  0
    2.5238   -0.4741    1.8215 O   0  0  0  0  0  0  0  0  0  0  0  0
    3.5423   -1.0725    3.9769 C   0  0  2  0  0  0  0  0  0  0  0  0
    4.8462   -0.2283    3.7814 C   0  0  0  0  0  0  0  0  0  0  0  0
    5.3487   -0.2561    2.4581 O   0  0  0  0  0  0  0  0  0  0  0  0
    3.7661   -2.4769    3.4027 C   0  0  0  0  0  0  0  0  0  0  0  0
    2.9851   -3.5758    3.4729 C   0  0  0  0  0  0  0  0  0  0  0  0
    3.3661   -4.8655    2.7750 C   0  0  0  0  0  0  0  0  0  0  0  0
    1.6979   -3.6365    4.1958 C   0  0  0  0  0  0  0  0  0  0  0  0
    0.7159   -4.2178    3.7401 O   0  0  0  0  0  0  0  0  0  0  0  0
    1.5741   -3.0827    5.6152 C   0  0  0  0  0  0  0  0  0  0  0  0
    1.7750   -1.5763    5.8219 C   0  0  2  0  0  0  0  0  0  0  0  0
    3.2230   -1.1771    5.4991 C   0  0  1  0  0  0  0  0  0  0  0  0
    4.2438   -1.9848    6.3424 C   0  0  0  0  0  0  0  0  0  0  0  0
    0.3032    1.3284    3.7283 C   0  0  1  0  0  0  0  0  0  0  0  0
   -0.5579    0.4740    2.7796 C   0  0  0  0  0  0  0  0  0  0  0  0
   -0.1307    2.8997    3.5564 C   0  0  1  0  0  0  0  0  0  0  0  0
   -1.3670    3.0427    2.8817 O   0  0  0  0  0  0  0  0  0  0  0  0
   -0.0502    4.0565    4.6954 C   0  0  1  0  0  0  0  0  0  0  0  0
   -1.1839    4.1358    5.5221 O   0  0  0  0  0  0  0  0  0  0  0  0
    1.1694    4.3131    5.3891 O   0  0  0  0  0  0  0  0  0  0  0  0
    1.5677    3.5745    6.5864 C   0  0  0  0  0  0  0  0  0  0  0  0
    5.9237    2.0803    6.3989 H   0  0  0  0  0  0  0  0  0  0  0  0
    4.7510    0.9098    7.1846 H   0  0  0  0  0  0  0  0  0  0  0  0
    3.8146    4.7082    5.7791 H   0  0  0  0  0  0  0  0  0  0  0  0
    3.8434    3.7494    4.2941 H   0  0  0  0  0  0  0  0  0  0  0  0
    5.2958    3.9650    5.2750 H   0  0  0  0  0  0  0  0  0  0  0  0
    2.6298    1.9079    8.5175 H   0  0  0  0  0  0  0  0  0  0  0  0
    1.7996   -0.1506    8.9272 H   0  0  0  0  0  0  0  0  0  0  0  0
   -1.4250   -3.4783    8.7098 H   0  0  0  0  0  0  0  0  0  0  0  0
   -0.2581   -4.4161    9.6012 H   0  0  0  0  0  0  0  0  0  0  0  0
   -1.7572   -3.1809   11.1797 H   0  0  0  0  0  0  0  0  0  0  0  0
   -1.2432   -1.6410   10.4999 H   0  0  0  0  0  0  0  0  0  0  0  0
   -0.0982   -2.6458   11.3658 H   0  0  0  0  0  0  0  0  0  0  0  0
   -0.3509   -1.2464    5.3653 H   0  0  0  0  0  0  0  0  0  0  0  0
   -1.6305    1.6874    5.4440 H   0  0  0  0  0  0  0  0  0  0  0  0
   -0.5784    1.9338    6.8601 H   0  0  0  0  0  0  0  0  0  0  0  0
   -1.3459    0.4215    6.5720 H   0  0  0  0  0  0  0  0  0  0  0  0
    1.8550    2.4638    4.6815 H   0  0  0  0  0  0  0  0  0  0  0  0
    2.1032    2.6679    2.6650 H   0  0  0  0  0  0  0  0  0  0  0  0
    1.5176   -1.0843    3.3544 H   0  0  0  0  0  0  0  0  0  0  0  0
    1.7028   -0.2483    1.3991 H   0  0  0  0  0  0  0  0  0  0  0  0
    4.6758    0.8170    4.0376 H   0  0  0  0  0  0  0  0  0  0  0  0
    5.6540   -0.5735    4.4255 H   0  0  0  0  0  0  0  0  0  0  0  0
    4.6231   -0.0542    1.8801 H   0  0  0  0  0  0  0  0  0  0  0  0
    4.6765   -2.5790    2.8317 H   0  0  0  0  0  0  0  0  0  0  0  0
    3.3484   -5.7058    3.4669 H   0  0  0  0  0  0  0  0  0  0  0  0
    4.3642   -4.8127    2.3468 H   0  0  0  0  0  0  0  0  0  0  0  0
    2.6721   -5.0797    1.9655 H   0  0  0  0  0  0  0  0  0  0  0  0
    0.5603   -3.3344    5.9300 H   0  0  0  0  0  0  0  0  0  0  0  0
    2.2464   -3.6361    6.2708 H   0  0  0  0  0  0  0  0  0  0  0  0
    3.3398   -0.1748    5.8656 H   0  0  0  0  0  0  0  0  0  0  0  0
    4.3432   -3.0286    6.0356 H   0  0  0  0  0  0  0  0  0  0  0  0
    3.9537   -1.9799    7.3942 H   0  0  0  0  0  0  0  0  0  0  0  0
    5.2343   -1.5418    6.3009 H   0  0  0  0  0  0  0  0  0  0  0  0
   -0.3398    0.6879    1.7345 H   0  0  0  0  0  0  0  0  0  0  0  0
   -1.6247    0.6119    2.9462 H   0  0  0  0  0  0  0  0  0  0  0  0
   -0.3993   -0.5848    2.9472 H   0  0  0  0  0  0  0  0  0  0  0  0
    0.5470    3.2869    2.8021 H   0  0  0  0  0  0  0  0  0  0  0  0
   -1.1597    3.4316    2.0345 H   0  0  0  0  0  0  0  0  0  0  0  0
   -0.1051    4.9794    4.1178 H   0  0  0  0  0  0  0  0  0  0  0  0
   -1.2309    3.3281    6.0076 H   0  0  0  0  0  0  0  0  0  0  0  0
    0.7120    3.4544    7.2435 H   0  0  0  0  0  0  0  0  0  0  0  0
    2.1961    4.2492    7.1707 H   0  0  0  0  0  0  0  0  0  0  0  0
  1  2  2  0
  1 41  1  0
  1 42  1  0
  2  3  1  0
  4  2  1  6
  3 43  1  0
  3 44  1  0
  3 45  1  0
  4 16  1  0
  4 40  1  0
  4  5  1  0
  5  6  2  0
  5 46  1  0
  6  7  1  0
  6 47  1  0
  7 30  1  0
  7  8  1  1
  7 13  1  0
  8  9  1  0
  9 10  2  0
  9 11  1  0
 11 12  1  0
 11 48  1  0
 11 49  1  0
 12 50  1  0
 12 51  1  0
 12 52  1  0
 13 30  1  0
 13 14  1  0
 13 53  1  1
 14 33  1  0
 14 15  1  1
 14 16  1  0
 15 54  1  0
 15 55  1  0
 15 56  1  0
 16 17  1  0
 16 57  1  6
 17 18  1  6
 17 19  1  0
 17 33  1  0
 18 58  1  0
 19 20  1  0
 19 21  1  0
 19 59  1  6
 20 60  1  0
 21 31  1  0
 21 22  1  1
 21 24  1  0
 22 23  1  0
 22 61  1  0
 22 62  1  0
 23 63  1  0
 24 25  2  0
 24 64  1  0
 25 26  1  0
 25 27  1  0
 26 65  1  0
 26 66  1  0
 26 67  1  0
 27 28  2  0
 27 29  1  0
 30 29  1  1
 29 68  1  0
 29 69  1  0
 30 31  1  0
 31 32  1  0
 31 70  1  1
 32 71  1  0
 32 72  1  0
 32 73  1  0
 33 34  1  6
 33 35  1  0
 34 74  1  0
 34 75  1  0
 34 76  1  0
 35 36  1  0
 35 37  1  0
 35 77  1  6
 36 78  1  0
 37 38  1  0
 37 39  1  0
 37 79  1  6
 38 80  1  0
 39 40  1  0
 40 81  1  0
 40 82  1  0
M  END
>  <i_m_ct_stereo_status>  (267) 
1

>  <s_m_source_file>  (267) 
/var/tmp/pbs.5076255.sched01/tmpinim70aj/80j3ziidn5.sdf

>  <i_m_source_file_index>  (267) 
30

>  <i_lp_mmshare_version>  (267) 
48012

>  <i_f3d_flags>  (267) 
0

>  <s_epik_input>  (267) 
W0NIM11bQ0gyXUMoPU8pT1tDQEBdMShbQ0BdMjM0KVtDQEhdMltDQEBdNShbQ0gzXSlbQ0BIXTZbQ0BdKEMoPVtDSDJdKVtDSDNdKShbQ0hdPVtDSF0xKVtDSDJdT1tDQEhdKFtPSF0pW0NASF0oW09IXSlbQ0BAXTUoW0NIM10pW0NAXTYoW09IXSlbQ0BASF0oW09IXSlbQ0BAXShbQ0gyXVtPSF0pKFtDQEBIXTRbQ0gzXSlbQ0hdPUMoW0NIM10pQyg9TylbQ0gyXTM=

>  <s_epik_cmdline>  (267) 
J2VwaWtfcHl0aG9uJywgJy1waHQnLCAnMi4wJywgJy1waCcsICc3LjAnLCAnLXRuJywgJzgnLCAnLW1hJywgJzIwMCcsICctaW1hZScsICc8aW5maWxlLm1hZT4nLCAnLW9tYWUnLCAnPG91dGZpbGUubWFlPic=

>  <r_lp_tautomer_probability>  (267) 
1

>  <r_epik_Ionization_Penalty>  (267) 
3.6894e-07

>  <r_epik_Ionization_Penalty_Charging>  (267) 
0

>  <r_epik_Ionization_Penalty_Neutral>  (267) 
3.6894e-07

>  <r_epik_State_Penalty>  (267) 
-0

>  <r_epik_Charging_Adjusted_Penalty>  (267) 
0

>  <i_epik_Tot_Q>  (267) 
0

>  <i_epik_Tot_abs_Q>  (267) 
0

>  <s_epik_Chemistry_Notes>  (267) 
This compound has an ester and may undergo hydrolysis at high or low pH. This compound contains an acetal/aminal-like group ( X-CH(R)-Y where X, Y are N, S, or O) that may be acid/base labile, releasing an aldehyde.

>  <s_lp_Force_Field>  (267) 
OPLS3e

>  <r_lp_Energy>  (267) 
193.169

>  <b_lp_Chiralities_Consistent>  (267) 
1

>  <s_lp_Variant>  (267) 
84:0-1

>  <s_i_glide_gridfile>  (267) 
pfpi4k_grid

>  <i_i_glide_lignum>  (267) 
30

>  <i_i_glide_rotatable_bonds>  (267) 
10

>  <r_i_docking_score>  (267) 
-1.94186

>  <r_i_glide_ligand_efficiency>  (267) 
-0.0485465

>  <r_i_glide_ligand_efficiency_sa>  (267) 
-0.166027

>  <r_i_glide_ligand_efficiency_ln>  (267) 
-0.414142

>  <r_i_glide_gscore>  (267) 
-1.94186

>  <r_i_glide_lipo>  (267) 
-0.0936666

>  <r_i_glide_hbond>  (267) 
-0.0252121

>  <r_i_glide_metal>  (267) 
-0

>  <r_i_glide_rewards>  (267) 
-0.512532

>  <r_i_glide_evdw>  (267) 
-20.0956

>  <r_i_glide_ecoul>  (267) 
-2.84702

>  <r_i_glide_erotb>  (267) 
0.188215

>  <r_i_glide_esite>  (267) 
-0.066832

>  <r_i_glide_emodel>  (267) 
-28.7857

>  <r_i_glide_energy>  (267) 
-22.9426

>  <r_i_glide_einternal>  (267) 
3.82546

>  <r_i_glide_intrahb_reward>  (267) 
-0.5

>  <i_i_glide_confnum>  (267) 
2

>  <i_i_glide_posenum>  (267) 
20

>  <r_i_glide_eff_state_penalty>  (267) 
0

>  <ligand_id>  (267) 
84

>  <original_smiles>  (267) 
C=C(C)C12C=CC3(OC(=O)CC)C4C5(C)C1C(O)(C(O)C1(CO)C=C(C)C(=O)CC43C1C)C5(C)C(O)C(O)OC2

>  <smiles>  (267) 
[H]OC([H])([H])C12C([H])=C(C([H])([H])[H])C(=O)C([H])([H])C3(C4(OC(=O)C([H])([H])C([H])([H])[H])C([H])=C([H])C5(C(=C([H])[H])C([H])([H])[H])C([H])([H])OC([H])(O[H])C([H])(O[H])C6(C([H])([H])[H])C(O[H])(C1([H])O[H])C5([H])C6(C([H])([H])[H])C43[H])C2([H])C([H])([H])[H]

$$$$
84:0:1
     RDKit          3D

 82 87  0  0  1  0  0  0  0  0999 V2000
    4.4031    4.1450    5.3709 C   0  0  0  0  0  0  0  0  0  0  0  0
    4.0123    3.0097    5.9945 C   0  0  0  0  0  0  0  0  0  0  0  0
    5.1022    2.0116    6.4344 C   0  0  0  0  0  0  0  0  0  0  0  0
    2.5075    2.7170    6.3156 C   0  0  2  0  0  0  0  0  0  0  0  0
    2.3965    2.1096    7.7273 C   0  0  0  0  0  0  0  0  0  0  0  0
    1.8684    0.9327    8.1779 C   0  0  0  0  0  0  0  0  0  0  0  0
    1.1584   -0.2432    7.5364 C   0  0  1  0  0  0  0  0  0  0  0  0
    0.2349   -0.8779    8.4521 O   0  0  0  0  0  0  0  0  0  0  0  0
    0.6964   -1.6173    9.4989 C   0  0  0  0  0  0  0  0  0  0  0  0
    1.8802   -1.8988    9.6900 O   0  0  0  0  0  0  0  0  0  0  0  0
   -0.4187   -2.0916   10.4432 C   0  0  0  0  0  0  0  0  0  0  0  0
    0.0991   -2.7786   11.7146 C   0  0  0  0  0  0  0  0  0  0  0  0
    0.5429   -0.2217    6.1371 C   0  0  1  0  0  0  0  0  0  0  0  0
    0.4032    1.1777    5.4869 C   0  0  1  0  0  0  0  0  0  0  0  0
   -0.7650    1.7948    6.2895 C   0  0  0  0  0  0  0  0  0  0  0  0
    1.7800    1.8451    5.2774 C   0  0  2  0  0  0  0  0  0  0  0  0
    1.8672    1.1266    3.8834 C   0  0  1  0  0  0  0  0  0  0  0  0
    2.5985    1.7916    2.8459 O   0  0  0  0  0  0  0  0  0  0  0  0
    2.2644   -0.3773    3.6530 C   0  0  1  0  0  0  0  0  0  0  0  0
    2.3545   -0.6795    2.2613 O   0  0  0  0  0  0  0  0  0  0  0  0
    3.4745   -0.9681    4.4409 C   0  0  2  0  0  0  0  0  0  0  0  0
    4.7818   -0.2211    4.0022 C   0  0  0  0  0  0  0  0  0  0  0  0
    5.1224   -0.4003    2.6474 O   0  0  0  0  0  0  0  0  0  0  0  0
    3.6414   -2.4462    4.1055 C   0  0  0  0  0  0  0  0  0  0  0  0
    2.8479   -3.5019    4.3956 C   0  0  0  0  0  0  0  0  0  0  0  0
    3.1905   -4.8950    3.9161 C   0  0  0  0  0  0  0  0  0  0  0  0
    1.5853   -3.4155    5.1820 C   0  0  0  0  0  0  0  0  0  0  0  0
    0.5651   -4.0120    4.8246 O   0  0  0  0  0  0  0  0  0  0  0  0
    1.5250   -2.6360    6.4963 C   0  0  0  0  0  0  0  0  0  0  0  0
    1.7629   -1.1236    6.4309 C   0  0  2  0  0  0  0  0  0  0  0  0
    3.2091   -0.8210    5.9784 C   0  0  1  0  0  0  0  0  0  0  0  0
    4.2524   -1.4924    6.9140 C   0  0  0  0  0  0  0  0  0  0  0  0
    0.2932    1.4508    3.9402 C   0  0  1  0  0  0  0  0  0  0  0  0
   -0.6231    0.4618    3.1758 C   0  0  0  0  0  0  0  0  0  0  0  0
   -0.1116    2.9717    3.5193 C   0  0  1  0  0  0  0  0  0  0  0  0
   -1.3748    3.0272    2.8977 O   0  0  0  0  0  0  0  0  0  0  0  0
    0.0328    4.3017    4.4339 C   0  0  1  0  0  0  0  0  0  0  0  0
   -1.0674    4.5449    5.2852 O   0  0  0  0  0  0  0  0  0  0  0  0
    1.2747    4.6343    5.0431 O   0  0  0  0  0  0  0  0  0  0  0  0
    1.6878    4.0976    6.3404 C   0  0  0  0  0  0  0  0  0  0  0  0
    5.4528    4.3275    5.1984 H   0  0  0  0  0  0  0  0  0  0  0  0
    3.7336    4.9299    5.0309 H   0  0  0  0  0  0  0  0  0  0  0  0
    4.9766    1.0393    6.0449 H   0  0  0  0  0  0  0  0  0  0  0  0
    5.1824    1.9725    7.5234 H   0  0  0  0  0  0  0  0  0  0  0  0
    6.0654    2.3491    6.0451 H   0  0  0  0  0  0  0  0  0  0  0  0
    2.8274    2.7497    8.4833 H   0  0  0  0  0  0  0  0  0  0  0  0
    1.9588    0.8237    9.2495 H   0  0  0  0  0  0  0  0  0  0  0  0
   -1.0159   -1.2287   10.7334 H   0  0  0  0  0  0  0  0  0  0  0  0
   -1.0691   -2.7846    9.9128 H   0  0  0  0  0  0  0  0  0  0  0  0
   -0.7232   -3.0904   12.3595 H   0  0  0  0  0  0  0  0  0  0  0  0
    0.7285   -2.1073   12.2986 H   0  0  0  0  0  0  0  0  0  0  0  0
    0.6846   -3.6673   11.4801 H   0  0  0  0  0  0  0  0  0  0  0  0
   -0.3664   -0.8075    5.9853 H   0  0  0  0  0  0  0  0  0  0  0  0
   -1.5616    2.1446    5.6309 H   0  0  0  0  0  0  0  0  0  0  0  0
   -0.4502    2.5935    6.9476 H   0  0  0  0  0  0  0  0  0  0  0  0
   -1.2617    1.0797    6.9511 H   0  0  0  0  0  0  0  0  0  0  0  0
    1.9092    2.6837    4.6420 H   0  0  0  0  0  0  0  0  0  0  0  0
    2.1598    2.6081    2.6744 H   0  0  0  0  0  0  0  0  0  0  0  0
    1.4310   -1.0039    3.9277 H   0  0  0  0  0  0  0  0  0  0  0  0
    1.5816   -0.3595    1.8291 H   0  0  0  0  0  0  0  0  0  0  0  0
    4.6797    0.8503    4.1396 H   0  0  0  0  0  0  0  0  0  0  0  0
    5.6476   -0.5324    4.5887 H   0  0  0  0  0  0  0  0  0  0  0  0
    4.4271   -0.0042    2.1389 H   0  0  0  0  0  0  0  0  0  0  0  0
    4.5310   -2.6554    3.5275 H   0  0  0  0  0  0  0  0  0  0  0  0
    3.1842   -5.6004    4.7463 H   0  0  0  0  0  0  0  0  0  0  0  0
    4.1758   -4.9260    3.4505 H   0  0  0  0  0  0  0  0  0  0  0  0
    2.4587   -5.2153    3.1783 H   0  0  0  0  0  0  0  0  0  0  0  0
    0.5227   -2.8205    6.8953 H   0  0  0  0  0  0  0  0  0  0  0  0
    2.2132   -3.0937    7.2082 H   0  0  0  0  0  0  0  0  0  0  0  0
    3.3039    0.2108    6.1840 H   0  0  0  0  0  0  0  0  0  0  0  0
    4.3407   -2.5678    6.7962 H   0  0  0  0  0  0  0  0  0  0  0  0
    4.0233   -1.2920    7.9603 H   0  0  0  0  0  0  0  0  0  0  0  0
    5.2406   -1.0812    6.7449 H   0  0  0  0  0  0  0  0  0  0  0  0
   -0.4521    0.4917    2.0951 H   0  0  0  0  0  0  0  0  0  0  0  0
   -1.6831    0.6567    3.3556 H   0  0  0  0  0  0  0  0  0  0  0  0
   -0.5012   -0.5671    3.5002 H   0  0  0  0  0  0  0  0  0  0  0  0
    0.5346    3.2086    2.6756 H   0  0  0  0  0  0  0  0  0  0  0  0
   -1.2335    3.4572    2.0580 H   0  0  0  0  0  0  0  0  0  0  0  0
   -0.0275    5.1249    3.7210 H   0  0  0  0  0  0  0  0  0  0  0  0
   -1.1004    3.8386    5.9020 H   0  0  0  0  0  0  0  0  0  0  0  0
    0.8548    4.1129    7.0447 H   0  0  0  0  0  0  0  0  0  0  0  0
    2.3251    4.8587    6.7875 H   0  0  0  0  0  0  0  0  0  0  0  0
  1  2  2  0
  1 41  1  0
  1 42  1  0
  2  3  1  0
  4  2  1  6
  3 43  1  0
  3 44  1  0
  3 45  1  0
  4 16  1  0
  4 40  1  0
  4  5  1  0
  5  6  2  0
  5 46  1  0
  6  7  1  0
  6 47  1  0
  7 30  1  0
  7  8  1  1
  7 13  1  0
  8  9  1  0
  9 10  2  0
  9 11  1  0
 11 12  1  0
 11 48  1  0
 11 49  1  0
 12 50  1  0
 12 51  1  0
 12 52  1  0
 13 30  1  0
 13 14  1  0
 13 53  1  1
 14 33  1  0
 14 15  1  1
 14 16  1  0
 15 54  1  0
 15 55  1  0
 15 56  1  0
 16 17  1  0
 16 57  1  6
 17 18  1  6
 17 19  1  0
 17 33  1  0
 18 58  1  0
 19 20  1  0
 19 21  1  0
 19 59  1  1
 20 60  1  0
 21 31  1  0
 21 22  1  6
 21 24  1  0
 22 23  1  0
 22 61  1  0
 22 62  1  0
 23 63  1  0
 24 25  2  0
 24 64  1  0
 25 26  1  0
 25 27  1  0
 26 65  1  0
 26 66  1  0
 26 67  1  0
 27 28  2  0
 27 29  1  0
 30 29  1  1
 29 68  1  0
 29 69  1  0
 30 31  1  0
 31 32  1  0
 31 70  1  1
 32 71  1  0
 32 72  1  0
 32 73  1  0
 33 34  1  6
 33 35  1  0
 34 74  1  0
 34 75  1  0
 34 76  1  0
 35 36  1  0
 35 37  1  0
 35 77  1  6
 36 78  1  0
 37 38  1  0
 37 39  1  0
 37 79  1  6
 38 80  1  0
 39 40  1  0
 40 81  1  0
 40 82  1  0
M  END
>  <i_m_ct_stereo_status>  (268) 
1

>  <s_m_source_file>  (268) 
/var/tmp/pbs.5076255.sched01/tmpinim70aj/80j3ziidn5.sdf

>  <i_m_source_file_index>  (268) 
30

>  <i_lp_mmshare_version>  (268) 
48012

>  <i_f3d_flags>  (268) 
0

>  <s_epik_input>  (268) 
W0NIM11bQ0gyXUMoPU8pT1tDQEBdMShbQ0BdMjM0KVtDQEhdMltDQEBdNShbQ0gzXSlbQ0BIXTZbQ0BdKEMoPVtDSDJdKVtDSDNdKShbQ0hdPVtDSF0xKVtDSDJdT1tDQEhdKFtPSF0pW0NASF0oW09IXSlbQ0BAXTUoW0NIM10pW0NAXTYoW09IXSlbQ0BASF0oW09IXSlbQ0BAXShbQ0gyXVtPSF0pKFtDQEBIXTRbQ0gzXSlbQ0hdPUMoW0NIM10pQyg9TylbQ0gyXTM=

>  <s_epik_cmdline>  (268) 
J2VwaWtfcHl0aG9uJywgJy1waHQnLCAnMi4wJywgJy1waCcsICc3LjAnLCAnLXRuJywgJzgnLCAnLW1hJywgJzIwMCcsICctaW1hZScsICc8aW5maWxlLm1hZT4nLCAnLW9tYWUnLCAnPG91dGZpbGUubWFlPic=

>  <r_lp_tautomer_probability>  (268) 
1

>  <r_epik_Ionization_Penalty>  (268) 
3.6894e-07

>  <r_epik_Ionization_Penalty_Charging>  (268) 
0

>  <r_epik_Ionization_Penalty_Neutral>  (268) 
3.6894e-07

>  <r_epik_State_Penalty>  (268) 
-0

>  <r_epik_Charging_Adjusted_Penalty>  (268) 
0

>  <i_epik_Tot_Q>  (268) 
0

>  <i_epik_Tot_abs_Q>  (268) 
0

>  <s_epik_Chemistry_Notes>  (268) 
This compound has an ester and may undergo hydrolysis at high or low pH. This compound contains an acetal/aminal-like group ( X-CH(R)-Y where X, Y are N, S, or O) that may be acid/base labile, releasing an aldehyde.

>  <s_lp_Force_Field>  (268) 
OPLS3e

>  <r_lp_Energy>  (268) 
193.169

>  <b_lp_Chiralities_Consistent>  (268) 
1

>  <s_lp_Variant>  (268) 
84:0-1

>  <s_i_glide_gridfile>  (268) 
pfpi4k_grid

>  <i_i_glide_lignum>  (268) 
30

>  <i_i_glide_rotatable_bonds>  (268) 
10

>  <r_i_docking_score>  (268) 
-1.85667

>  <r_i_glide_ligand_efficiency>  (268) 
-0.0464168

>  <r_i_glide_ligand_efficiency_sa>  (268) 
-0.158743

>  <r_i_glide_ligand_efficiency_ln>  (268) 
-0.395974

>  <r_i_glide_gscore>  (268) 
-1.85667

>  <r_i_glide_lipo>  (268) 
-0.0804928

>  <r_i_glide_hbond>  (268) 
-0.017394

>  <r_i_glide_metal>  (268) 
-0

>  <r_i_glide_rewards>  (268) 
-0.503459

>  <r_i_glide_evdw>  (268) 
-19.7136

>  <r_i_glide_ecoul>  (268) 
-2.53331

>  <r_i_glide_erotb>  (268) 
0.188215

>  <r_i_glide_esite>  (268) 
-0.077864

>  <r_i_glide_emodel>  (268) 
-25.9425

>  <r_i_glide_energy>  (268) 
-22.2469

>  <r_i_glide_einternal>  (268) 
3.14657

>  <r_i_glide_intrahb_reward>  (268) 
-0.5

>  <i_i_glide_confnum>  (268) 
3

>  <i_i_glide_posenum>  (268) 
22

>  <r_i_glide_eff_state_penalty>  (268) 
0

>  <ligand_id>  (268) 
84

>  <original_smiles>  (268) 
C=C(C)C12C=CC3(OC(=O)CC)C4C5(C)C1C(O)(C(O)C1(CO)C=C(C)C(=O)CC43C1C)C5(C)C(O)C(O)OC2

>  <smiles>  (268) 
[H]OC([H])([H])C12C([H])=C(C([H])([H])[H])C(=O)C([H])([H])C3(C4(OC(=O)C([H])([H])C([H])([H])[H])C([H])=C([H])C5(C(=C([H])[H])C([H])([H])[H])C([H])([H])OC([H])(O[H])C([H])(O[H])C6(C([H])([H])[H])C(O[H])(C1([H])O[H])C5([H])C6(C([H])([H])[H])C43[H])C2([H])C([H])([H])[H]

$$$$
84:0:2
     RDKit          3D

 82 87  0  0  1  0  0  0  0  0999 V2000
    4.8649    2.1945    6.5466 C   0  0  0  0  0  0  0  0  0  0  0  0
    3.8178    2.8326    5.9846 C   0  0  0  0  0  0  0  0  0  0  0  0
    4.0958    3.9666    4.9979 C   0  0  0  0  0  0  0  0  0  0  0  0
    2.3335    2.5071    6.3068 C   0  0  2  0  0  0  0  0  0  0  0  0
    2.2418    1.8172    7.6862 C   0  0  0  0  0  0  0  0  0  0  0  0
    1.7730    0.6028    8.0701 C   0  0  0  0  0  0  0  0  0  0  0  0
    1.1229   -0.5616    7.3501 C   0  0  1  0  0  0  0  0  0  0  0  0
    0.2280   -1.2995    8.2042 O   0  0  0  0  0  0  0  0  0  0  0  0
    0.7065   -2.0981    9.1996 C   0  0  0  0  0  0  0  0  0  0  0  0
    1.9005   -2.2924    9.4287 O   0  0  0  0  0  0  0  0  0  0  0  0
   -0.4000   -2.7658   10.0317 C   0  0  0  0  0  0  0  0  0  0  0  0
    0.1293   -3.6892   11.1428 C   0  0  0  0  0  0  0  0  0  0  0  0
    0.5286   -0.4837    5.9473 C   0  0  1  0  0  0  0  0  0  0  0  0
    0.3186    0.9393    5.3746 C   0  0  1  0  0  0  0  0  0  0  0  0
   -0.8779    1.4546    6.2095 C   0  0  0  0  0  0  0  0  0  0  0  0
    1.6594    1.6698    5.2177 C   0  0  2  0  0  0  0  0  0  0  0  0
    1.7959    1.0347    3.7898 C   0  0  1  0  0  0  0  0  0  0  0  0
    2.4967    1.7815    2.7975 O   0  0  0  0  0  0  0  0  0  0  0  0
    2.2666   -0.4336    3.4836 C   0  0  1  0  0  0  0  0  0  0  0  0
    2.3956   -0.6650    2.0817 O   0  0  0  0  0  0  0  0  0  0  0  0
    3.4957   -1.0071    4.2657 C   0  0  2  0  0  0  0  0  0  0  0  0
    4.7831   -0.1754    3.9466 C   0  0  0  0  0  0  0  0  0  0  0  0
    5.2051   -0.2584    2.5984 O   0  0  0  0  0  0  0  0  0  0  0  0
    3.7313   -2.4593    3.8395 C   0  0  0  0  0  0  0  0  0  0  0  0
    2.9716   -3.5607    4.0506 C   0  0  0  0  0  0  0  0  0  0  0  0
    3.3662   -4.9084    3.4874 C   0  0  0  0  0  0  0  0  0  0  0  0
    1.7031   -3.5581    4.8115 C   0  0  0  0  0  0  0  0  0  0  0  0
    0.7080   -4.1805    4.4338 O   0  0  0  0  0  0  0  0  0  0  0  0
    1.6121   -2.8640    6.1730 C   0  0  0  0  0  0  0  0  0  0  0  0
    1.7882   -1.3402    6.2097 C   0  0  2  0  0  0  0  0  0  0  0  0
    3.2226   -0.9528    5.8004 C   0  0  1  0  0  0  0  0  0  0  0  0
    4.2854   -1.6415    6.6921 C   0  0  0  0  0  0  0  0  0  0  0  0
    0.2123    1.2925    3.8463 C   0  0  1  0  0  0  0  0  0  0  0  0
   -0.6569    0.3205    3.0221 C   0  0  0  0  0  0  0  0  0  0  0  0
   -0.2539    2.8230    3.5108 C   0  0  1  0  0  0  0  0  0  0  0  0
   -1.5195    2.8612    2.8838 O   0  0  0  0  0  0  0  0  0  0  0  0
   -0.1689    4.0965    4.5162 C   0  0  1  0  0  0  0  0  0  0  0  0
   -1.2853    4.2407    5.3618 O   0  0  0  0  0  0  0  0  0  0  0  0
    1.0597    4.4532    5.1479 O   0  0  0  0  0  0  0  0  0  0  0  0
    1.5041    3.8614    6.4068 C   0  0  0  0  0  0  0  0  0  0  0  0
    5.8775    2.4655    6.2895 H   0  0  0  0  0  0  0  0  0  0  0  0
    4.7537    1.3913    7.2608 H   0  0  0  0  0  0  0  0  0  0  0  0
    3.6594    4.9120    5.3135 H   0  0  0  0  0  0  0  0  0  0  0  0
    3.7295    3.7349    3.9971 H   0  0  0  0  0  0  0  0  0  0  0  0
    5.1642    4.1570    4.9308 H   0  0  0  0  0  0  0  0  0  0  0  0
    2.6465    2.4310    8.4792 H   0  0  0  0  0  0  0  0  0  0  0  0
    1.8690    0.4266    9.1311 H   0  0  0  0  0  0  0  0  0  0  0  0
   -1.0164   -1.9890   10.4855 H   0  0  0  0  0  0  0  0  0  0  0  0
   -1.0427   -3.3481    9.3702 H   0  0  0  0  0  0  0  0  0  0  0  0
   -0.6855   -4.1425   11.7053 H   0  0  0  0  0  0  0  0  0  0  0  0
    0.7455   -3.1379   11.8529 H   0  0  0  0  0  0  0  0  0  0  0  0
    0.7308   -4.4991   10.7328 H   0  0  0  0  0  0  0  0  0  0  0  0
   -0.3502   -1.1008    5.7620 H   0  0  0  0  0  0  0  0  0  0  0  0
   -1.6852    1.8066    5.5671 H   0  0  0  0  0  0  0  0  0  0  0  0
   -0.6016    2.2243    6.9189 H   0  0  0  0  0  0  0  0  0  0  0  0
   -1.3471    0.6789    6.8184 H   0  0  0  0  0  0  0  0  0  0  0  0
    1.7630    2.5489    4.6326 H   0  0  0  0  0  0  0  0  0  0  0  0
    2.0469    2.6028    2.6828 H   0  0  0  0  0  0  0  0  0  0  0  0
    1.4576   -1.1125    3.7079 H   0  0  0  0  0  0  0  0  0  0  0  0
    1.6135   -0.3533    1.6478 H   0  0  0  0  0  0  0  0  0  0  0  0
    4.6318    0.8805    4.1621 H   0  0  0  0  0  0  0  0  0  0  0  0
    5.6303   -0.4967    4.5515 H   0  0  0  0  0  0  0  0  0  0  0  0
    4.4874    0.0551    2.0601 H   0  0  0  0  0  0  0  0  0  0  0  0
    4.6258   -2.6013    3.2543 H   0  0  0  0  0  0  0  0  0  0  0  0
    3.3808   -5.6679    4.2669 H   0  0  0  0  0  0  0  0  0  0  0  0
    4.3534   -4.8821    3.0324 H   0  0  0  0  0  0  0  0  0  0  0  0
    2.6582   -5.2197    2.7231 H   0  0  0  0  0  0  0  0  0  0  0  0
    0.6141   -3.0988    6.5474 H   0  0  0  0  0  0  0  0  0  0  0  0
    2.3072   -3.3360    6.8672 H   0  0  0  0  0  0  0  0  0  0  0  0
    3.3361    0.0830    6.0576 H   0  0  0  0  0  0  0  0  0  0  0  0
    4.3973   -2.7091    6.4946 H   0  0  0  0  0  0  0  0  0  0  0  0
    4.0287   -1.5274    7.7450 H   0  0  0  0  0  0  0  0  0  0  0  0
    5.2636   -1.1859    6.5699 H   0  0  0  0  0  0  0  0  0  0  0  0
   -0.4731    0.4262    1.9540 H   0  0  0  0  0  0  0  0  0  0  0  0
   -1.7215    0.4633    3.2066 H   0  0  0  0  0  0  0  0  0  0  0  0
   -0.4891   -0.7146    3.2920 H   0  0  0  0  0  0  0  0  0  0  0  0
    0.3909    3.1304    2.6919 H   0  0  0  0  0  0  0  0  0  0  0  0
   -1.4025    3.3456    2.0697 H   0  0  0  0  0  0  0  0  0  0  0  0
   -0.2574    4.9535    3.8490 H   0  0  0  0  0  0  0  0  0  0  0  0
   -1.2849    3.5030    5.9514 H   0  0  0  0  0  0  0  0  0  0  0  0
    0.6706    3.8031    7.1017 H   0  0  0  0  0  0  0  0  0  0  0  0
    2.1397    4.6070    6.8881 H   0  0  0  0  0  0  0  0  0  0  0  0
  1  2  2  0
  1 41  1  0
  1 42  1  0
  2  3  1  0
  4  2  1  6
  3 43  1  0
  3 44  1  0
  3 45  1  0
  4 16  1  0
  4 40  1  0
  4  5  1  0
  5  6  2  0
  5 46  1  0
  6  7  1  0
  6 47  1  0
  7 30  1  0
  7  8  1  1
  7 13  1  0
  8  9  1  0
  9 10  2  0
  9 11  1  0
 11 12  1  0
 11 48  1  0
 11 49  1  0
 12 50  1  0
 12 51  1  0
 12 52  1  0
 13 30  1  0
 13 14  1  0
 13 53  1  1
 14 33  1  0
 14 15  1  1
 14 16  1  0
 15 54  1  0
 15 55  1  0
 15 56  1  0
 16 17  1  0
 16 57  1  6
 17 18  1  6
 17 19  1  0
 17 33  1  0
 18 58  1  0
 19 20  1  0
 19 21  1  0
 19 59  1  1
 20 60  1  0
 21 31  1  0
 21 22  1  1
 21 24  1  0
 22 23  1  0
 22 61  1  0
 22 62  1  0
 23 63  1  0
 24 25  2  0
 24 64  1  0
 25 26  1  0
 25 27  1  0
 26 65  1  0
 26 66  1  0
 26 67  1  0
 27 28  2  0
 27 29  1  0
 30 29  1  1
 29 68  1  0
 29 69  1  0
 30 31  1  0
 31 32  1  0
 31 70  1  1
 32 71  1  0
 32 72  1  0
 32 73  1  0
 33 34  1  6
 33 35  1  0
 34 74  1  0
 34 75  1  0
 34 76  1  0
 35 36  1  0
 35 37  1  0
 35 77  1  6
 36 78  1  0
 37 38  1  0
 37 39  1  0
 37 79  1  6
 38 80  1  0
 39 40  1  0
 40 81  1  0
 40 82  1  0
M  END
>  <i_m_ct_stereo_status>  (269) 
1

>  <s_m_source_file>  (269) 
/var/tmp/pbs.5076255.sched01/tmpinim70aj/80j3ziidn5.sdf

>  <i_m_source_file_index>  (269) 
30

>  <i_lp_mmshare_version>  (269) 
48012

>  <i_f3d_flags>  (269) 
0

>  <s_epik_input>  (269) 
W0NIM11bQ0gyXUMoPU8pT1tDQEBdMShbQ0BdMjM0KVtDQEhdMltDQEBdNShbQ0gzXSlbQ0BIXTZbQ0BdKEMoPVtDSDJdKVtDSDNdKShbQ0hdPVtDSF0xKVtDSDJdT1tDQEhdKFtPSF0pW0NASF0oW09IXSlbQ0BAXTUoW0NIM10pW0NAXTYoW09IXSlbQ0BASF0oW09IXSlbQ0BAXShbQ0gyXVtPSF0pKFtDQEBIXTRbQ0gzXSlbQ0hdPUMoW0NIM10pQyg9TylbQ0gyXTM=

>  <s_epik_cmdline>  (269) 
J2VwaWtfcHl0aG9uJywgJy1waHQnLCAnMi4wJywgJy1waCcsICc3LjAnLCAnLXRuJywgJzgnLCAnLW1hJywgJzIwMCcsICctaW1hZScsICc8aW5maWxlLm1hZT4nLCAnLW9tYWUnLCAnPG91dGZpbGUubWFlPic=

>  <r_lp_tautomer_probability>  (269) 
1

>  <r_epik_Ionization_Penalty>  (269) 
3.6894e-07

>  <r_epik_Ionization_Penalty_Charging>  (269) 
0

>  <r_epik_Ionization_Penalty_Neutral>  (269) 
3.6894e-07

>  <r_epik_State_Penalty>  (269) 
-0

>  <r_epik_Charging_Adjusted_Penalty>  (269) 
0

>  <i_epik_Tot_Q>  (269) 
0

>  <i_epik_Tot_abs_Q>  (269) 
0

>  <s_epik_Chemistry_Notes>  (269) 
This compound has an ester and may undergo hydrolysis at high or low pH. This compound contains an acetal/aminal-like group ( X-CH(R)-Y where X, Y are N, S, or O) that may be acid/base labile, releasing an aldehyde.

>  <s_lp_Force_Field>  (269) 
OPLS3e

>  <r_lp_Energy>  (269) 
193.169

>  <b_lp_Chiralities_Consistent>  (269) 
1

>  <s_lp_Variant>  (269) 
84:0-1

>  <s_i_glide_gridfile>  (269) 
pfpi4k_grid

>  <i_i_glide_lignum>  (269) 
30

>  <i_i_glide_rotatable_bonds>  (269) 
10

>  <r_i_docking_score>  (269) 
-1.78137

>  <r_i_glide_ligand_efficiency>  (269) 
-0.0445343

>  <r_i_glide_ligand_efficiency_sa>  (269) 
-0.152305

>  <r_i_glide_ligand_efficiency_ln>  (269) 
-0.379914

>  <r_i_glide_gscore>  (269) 
-1.78137

>  <r_i_glide_lipo>  (269) 
-0.0791987

>  <r_i_glide_hbond>  (269) 
-0.0382725

>  <r_i_glide_metal>  (269) 
-0

>  <r_i_glide_rewards>  (269) 
-0.506841

>  <r_i_glide_evdw>  (269) 
-19.6627

>  <r_i_glide_ecoul>  (269) 
-1.91555

>  <r_i_glide_erotb>  (269) 
0.188215

>  <r_i_glide_esite>  (269) 
-0.0748043

>  <r_i_glide_emodel>  (269) 
-28.0074

>  <r_i_glide_energy>  (269) 
-21.5783

>  <r_i_glide_einternal>  (269) 
2.41052

>  <r_i_glide_intrahb_reward>  (269) 
-0.5

>  <i_i_glide_confnum>  (269) 
1

>  <i_i_glide_posenum>  (269) 
14

>  <r_i_glide_eff_state_penalty>  (269) 
0

>  <ligand_id>  (269) 
84

>  <original_smiles>  (269) 
C=C(C)C12C=CC3(OC(=O)CC)C4C5(C)C1C(O)(C(O)C1(CO)C=C(C)C(=O)CC43C1C)C5(C)C(O)C(O)OC2

>  <smiles>  (269) 
[H]OC([H])([H])C12C([H])=C(C([H])([H])[H])C(=O)C([H])([H])C3(C4(OC(=O)C([H])([H])C([H])([H])[H])C([H])=C([H])C5(C(=C([H])[H])C([H])([H])[H])C([H])([H])OC([H])(O[H])C([H])(O[H])C6(C([H])([H])[H])C(O[H])(C1([H])O[H])C5([H])C6(C([H])([H])[H])C43[H])C2([H])C([H])([H])[H]

$$$$
87:0:0
     RDKit          3D

 57 63  0  0  1  0  0  0  0  0999 V2000
    3.5503   -3.3468   -0.2779 C   0  0  0  0  0  0  0  0  0  0  0  0
    4.5755   -2.2104    0.0229 C   0  0  1  0  0  0  0  0  0  0  0  0
    3.7689   -1.0462    0.6344 C   0  0  0  0  0  0  0  0  0  0  0  0
    3.3171   -1.4222    2.0511 C   0  0  0  0  0  0  0  0  0  0  0  0
    2.0396   -1.6901    2.3386 C   0  0  0  0  0  0  0  0  0  0  0  0
    1.6231   -2.2205    3.6821 C   0  0  2  0  0  0  0  0  0  0  0  0
    2.5256   -1.7968    4.6978 O   0  0  0  0  0  0  0  0  0  0  0  0
    3.8979   -2.0490    4.5730 C   0  0  1  0  0  0  0  0  0  0  0  0
    4.5446   -1.2742    5.5667 O   0  0  0  0  0  0  0  0  0  0  0  0
    4.1713   -3.4887    5.0530 C   0  0  0  0  0  0  0  0  0  0  0  0
    3.8999   -4.5190    3.9776 C   0  0  2  0  0  0  0  0  0  0  0  0
    4.7386   -4.2691    2.7094 C   0  0  0  0  0  0  0  0  0  0  0  0
    5.3233   -2.8350    2.5006 C   0  0  2  0  0  0  0  0  0  0  0  0
    4.4259   -1.6606    3.0900 C   0  0  1  0  0  0  0  0  0  0  0  0
    5.1890   -0.2956    3.2520 C   0  0  0  0  0  0  0  0  0  0  0  0
    5.7450   -2.5809    0.9931 C   0  0  2  0  0  0  0  0  0  0  0  0
    6.6520   -1.4924    1.0674 O   0  0  0  0  0  0  0  0  0  0  0  0
    6.6367   -3.5412    0.1596 C   0  0  1  0  0  0  0  0  0  0  0  0
    6.2790   -4.9039    0.2306 O   0  0  0  0  0  0  0  0  0  0  0  0
    6.4613   -3.0321   -1.3054 C   0  0  0  0  0  0  0  0  0  0  0  0
    5.3715   -1.9217   -1.2816 C   0  0  1  0  0  0  0  0  0  0  0  0
    4.5706   -1.7722   -2.5573 C   0  0  0  0  0  0  0  0  0  0  0  0
    4.0998   -0.5429   -3.1027 C   0  0  0  0  0  0  0  0  0  0  0  0
    3.4176   -0.8507   -4.2403 C   0  0  0  0  0  0  0  0  0  0  0  0
    3.4195   -2.1924   -4.4378 O   0  0  0  0  0  0  0  0  0  0  0  0
    4.1360   -2.7353   -3.4263 C   0  0  0  0  0  0  0  0  0  0  0  0
    2.4148   -4.8006    3.7981 C   0  0  2  0  0  0  0  0  0  0  0  0
    1.8302   -4.4488    2.5439 O   0  0  0  0  0  0  0  0  0  0  0  0
    1.3587   -3.7230    3.6807 C   0  0  2  0  0  0  0  0  0  0  0  0
    2.8185   -3.0349   -1.0262 H   0  0  0  0  0  0  0  0  0  0  0  0
    2.9479   -3.6077    0.5842 H   0  0  0  0  0  0  0  0  0  0  0  0
    4.0067   -4.2628   -0.6520 H   0  0  0  0  0  0  0  0  0  0  0  0
    4.3383   -0.1226    0.6144 H   0  0  0  0  0  0  0  0  0  0  0  0
    2.8979   -0.8375    0.0174 H   0  0  0  0  0  0  0  0  0  0  0  0
    1.2740   -1.5997    1.5810 H   0  0  0  0  0  0  0  0  0  0  0  0
    0.6748   -1.7390    3.9167 H   0  0  0  0  0  0  0  0  0  0  0  0
    4.4341   -0.3654    5.3310 H   0  0  0  0  0  0  0  0  0  0  0  0
    5.2108   -3.5769    5.3764 H   0  0  0  0  0  0  0  0  0  0  0  0
    3.5524   -3.6867    5.9275 H   0  0  0  0  0  0  0  0  0  0  0  0
    4.2792   -5.4580    4.3903 H   0  0  0  0  0  0  0  0  0  0  0  0
    5.6008   -4.9317    2.7892 H   0  0  0  0  0  0  0  0  0  0  0  0
    4.2166   -4.6559    1.8475 H   0  0  0  0  0  0  0  0  0  0  0  0
    6.2107   -2.8204    3.1140 H   0  0  0  0  0  0  0  0  0  0  0  0
    6.1136   -0.3984    3.8240 H   0  0  0  0  0  0  0  0  0  0  0  0
    4.5648    0.4545    3.7461 H   0  0  0  0  0  0  0  0  0  0  0  0
    5.4731    0.1830    2.3266 H   0  0  0  0  0  0  0  0  0  0  0  0
    6.2786   -0.8285    1.6285 H   0  0  0  0  0  0  0  0  0  0  0  0
    7.6839   -3.4951    0.4653 H   0  0  0  0  0  0  0  0  0  0  0  0
    5.3774   -4.9873   -0.0473 H   0  0  0  0  0  0  0  0  0  0  0  0
    7.3986   -2.6446   -1.7074 H   0  0  0  0  0  0  0  0  0  0  0  0
    6.1703   -3.8566   -1.9554 H   0  0  0  0  0  0  0  0  0  0  0  0
    5.8700   -0.9593   -1.1765 H   0  0  0  0  0  0  0  0  0  0  0  0
    4.2322    0.4577   -2.7162 H   0  0  0  0  0  0  0  0  0  0  0  0
    2.8912   -0.2665   -4.9813 H   0  0  0  0  0  0  0  0  0  0  0  0
    4.2160   -3.8108   -3.4705 H   0  0  0  0  0  0  0  0  0  0  0  0
    2.0846   -5.7669    4.1740 H   0  0  0  0  0  0  0  0  0  0  0  0
    0.3673   -4.0096    4.0205 H   0  0  0  0  0  0  0  0  0  0  0  0
  2  1  1  6
  1 30  1  0
  1 31  1  0
  1 32  1  0
  2 16  1  0
  2 21  1  0
  2  3  1  0
  3  4  1  0
  3 33  1  0
  3 34  1  0
  4 14  1  0
  4  5  2  0
  5  6  1  0
  5 35  1  0
  6 29  1  0
  6  7  1  0
  6 36  1  1
  7  8  1  0
  8 14  1  0
  8  9  1  1
  8 10  1  0
  9 37  1  0
 10 11  1  0
 10 38  1  0
 10 39  1  0
 11 12  1  0
 11 27  1  0
 11 40  1  1
 12 13  1  0
 12 41  1  0
 12 42  1  0
 13 14  1  0
 13 16  1  0
 13 43  1  1
 14 15  1  1
 15 44  1  0
 15 45  1  0
 15 46  1  0
 16 17  1  1
 16 18  1  0
 17 47  1  0
 18 19  1  0
 18 20  1  0
 18 48  1  1
 19 49  1  0
 20 21  1  0
 20 50  1  0
 20 51  1  0
 21 22  1  0
 21 52  1  1
 22 26  2  0
 22 23  1  0
 23 24  2  0
 23 53  1  0
 24 25  1  0
 24 54  1  0
 25 26  1  0
 26 55  1  0
 27 29  1  0
 27 28  1  0
 27 56  1  1
 28 29  1  0
 29 57  1  1
M  END
>  <i_m_ct_stereo_status>  (270) 
1

>  <s_m_source_file>  (270) 
/var/tmp/pbs.5076255.sched01/tmpinim70aj/80j3ziidn5.sdf

>  <i_m_source_file_index>  (270) 
33

>  <i_lp_mmshare_version>  (270) 
48012

>  <i_f3d_flags>  (270) 
0

>  <s_epik_input>  (270) 
W2NIXTFvW2NIXVtjSF1jMVtDQEBIXTJbQ0gyXVtDQEhdKFtPSF0pW0NAQF0oW09IXSkoW0NAXTIzW0NIM10pW0NASF00W0NAQF01KFtDSDNdKUMoW0NIMl0zKT1bQ0hdW0NASF02W0NAQEhdN1tDQEBIXShPNylbQ0BASF0oW0NIMl00KVtDSDJdW0NAQF01KE82KVtPSF0=

>  <s_epik_cmdline>  (270) 
J2VwaWtfcHl0aG9uJywgJy1waHQnLCAnMi4wJywgJy1waCcsICc3LjAnLCAnLXRuJywgJzgnLCAnLW1hJywgJzIwMCcsICctaW1hZScsICc8aW5maWxlLm1hZT4nLCAnLW9tYWUnLCAnPG91dGZpbGUubWFlPic=

>  <r_lp_tautomer_probability>  (270) 
1

>  <r_epik_Ionization_Penalty>  (270) 
6.93731e-07

>  <r_epik_Ionization_Penalty_Charging>  (270) 
0

>  <r_epik_Ionization_Penalty_Neutral>  (270) 
6.93731e-07

>  <r_epik_State_Penalty>  (270) 
-0

>  <r_epik_Charging_Adjusted_Penalty>  (270) 
0

>  <i_epik_Tot_Q>  (270) 
0

>  <i_epik_Tot_abs_Q>  (270) 
0

>  <s_lp_Force_Field>  (270) 
OPLS3e

>  <r_lp_Energy>  (270) 
79.6446

>  <b_lp_Chiralities_Consistent>  (270) 
1

>  <s_lp_Variant>  (270) 
87:0-1

>  <s_i_glide_gridfile>  (270) 
pfpi4k_grid

>  <i_i_glide_lignum>  (270) 
33

>  <i_i_glide_rotatable_bonds>  (270) 
4

>  <r_i_docking_score>  (270) 
-4.05012

>  <r_i_glide_ligand_efficiency>  (270) 
-0.139659

>  <r_i_glide_ligand_efficiency_sa>  (270) 
-0.429078

>  <r_i_glide_ligand_efficiency_ln>  (270) 
-0.927375

>  <r_i_glide_gscore>  (270) 
-4.05012

>  <r_i_glide_lipo>  (270) 
-1.05427

>  <r_i_glide_hbond>  (270) 
-0.32

>  <r_i_glide_metal>  (270) 
-0

>  <r_i_glide_rewards>  (270) 
-0.678649

>  <r_i_glide_evdw>  (270) 
-31.5931

>  <r_i_glide_ecoul>  (270) 
-3.59865

>  <r_i_glide_erotb>  (270) 
0.122244

>  <r_i_glide_esite>  (270) 
0

>  <r_i_glide_emodel>  (270) 
-43.6587

>  <r_i_glide_energy>  (270) 
-35.1917

>  <r_i_glide_einternal>  (270) 
0.0506779

>  <r_i_glide_intrahb_reward>  (270) 
-0

>  <i_i_glide_confnum>  (270) 
4

>  <i_i_glide_posenum>  (270) 
3

>  <r_i_glide_eff_state_penalty>  (270) 
0

>  <ligand_id>  (270) 
87

>  <original_smiles>  (270) 
CC12CC3=CC4OC5(O)CC(CC(C35C)C1(O)C(O)CC2c1ccoc1)C1OC41

>  <smiles>  (270) 
[H]OC1([H])C([H])([H])C([H])(c2c([H])oc([H])c2[H])C2(C([H])([H])[H])C([H])([H])C3=C([H])C4([H])OC5(O[H])C([H])([H])C([H])(C([H])([H])C([H])(C12O[H])C35C([H])([H])[H])C1([H])OC41[H]

$$$$
87:0:1
     RDKit          3D

 57 63  0  0  1  0  0  0  0  0999 V2000
    3.5266   -3.4417   -0.1095 C   0  0  0  0  0  0  0  0  0  0  0  0
    4.5148   -2.2697    0.1844 C   0  0  1  0  0  0  0  0  0  0  0  0
    3.6628   -1.1238    0.7713 C   0  0  0  0  0  0  0  0  0  0  0  0
    3.2061   -1.4965    2.1891 C   0  0  0  0  0  0  0  0  0  0  0  0
    1.9317   -1.7972    2.4617 C   0  0  0  0  0  0  0  0  0  0  0  0
    1.5106   -2.3216    3.8074 C   0  0  2  0  0  0  0  0  0  0  0  0
    2.3859   -1.8598    4.8300 O   0  0  0  0  0  0  0  0  0  0  0  0
    3.7663   -2.0726    4.7261 C   0  0  1  0  0  0  0  0  0  0  0  0
    4.3749   -1.2680    5.7173 O   0  0  0  0  0  0  0  0  0  0  0  0
    4.0757   -3.4977    5.2262 C   0  0  0  0  0  0  0  0  0  0  0  0
    3.8503   -4.5469    4.1607 C   0  0  2  0  0  0  0  0  0  0  0  0
    4.7059   -4.2868    2.9048 C   0  0  0  0  0  0  0  0  0  0  0  0
    5.2559   -2.8378    2.6831 C   0  0  2  0  0  0  0  0  0  0  0  0
    4.3091   -1.6869    3.2450 C   0  0  1  0  0  0  0  0  0  0  0  0
    5.0271   -0.2967    3.3974 C   0  0  0  0  0  0  0  0  0  0  0  0
    5.6858   -2.5925    1.1764 C   0  0  2  0  0  0  0  0  0  0  0  0
    6.5663   -1.4777    1.2544 O   0  0  0  0  0  0  0  0  0  0  0  0
    6.6143   -3.5419    0.3681 C   0  0  1  0  0  0  0  0  0  0  0  0
    6.2991   -4.9162    0.4580 O   0  0  0  0  0  0  0  0  0  0  0  0
    6.4413   -3.0518   -1.1032 C   0  0  0  0  0  0  0  0  0  0  0  0
    5.3186   -1.9748   -1.1121 C   0  0  1  0  0  0  0  0  0  0  0  0
    4.5369   -1.8672   -2.4093 C   0  0  0  0  0  0  0  0  0  0  0  0
    4.1033   -0.6566   -3.0169 C   0  0  0  0  0  0  0  0  0  0  0  0
    3.4287   -0.9974   -4.1526 C   0  0  0  0  0  0  0  0  0  0  0  0
    3.4281   -2.3458   -4.3183 O   0  0  0  0  0  0  0  0  0  0  0  0
    4.0895   -2.8556   -3.2447 C   0  0  0  0  0  0  0  0  0  0  0  0
    2.3768   -4.8751    3.9650 C   0  0  2  0  0  0  0  0  0  0  0  0
    1.8002   -4.5560    2.6989 O   0  0  0  0  0  0  0  0  0  0  0  0
    1.2873   -3.8301    3.8197 C   0  0  2  0  0  0  0  0  0  0  0  0
    2.7951   -3.1603   -0.8684 H   0  0  0  0  0  0  0  0  0  0  0  0
    2.9210   -3.7093    0.7482 H   0  0  0  0  0  0  0  0  0  0  0  0
    4.0156   -4.3473   -0.4668 H   0  0  0  0  0  0  0  0  0  0  0  0
    4.2052   -0.1835    0.7491 H   0  0  0  0  0  0  0  0  0  0  0  0
    2.7946   -0.9489    0.1390 H   0  0  0  0  0  0  0  0  0  0  0  0
    1.1758   -1.7368    1.6926 H   0  0  0  0  0  0  0  0  0  0  0  0
    0.5462   -1.8627    4.0203 H   0  0  0  0  0  0  0  0  0  0  0  0
    4.0856   -1.5807    6.5592 H   0  0  0  0  0  0  0  0  0  0  0  0
    5.1145   -3.5524    5.5627 H   0  0  0  0  0  0  0  0  0  0  0  0
    3.4488   -3.7066    6.0949 H   0  0  0  0  0  0  0  0  0  0  0  0
    4.2498   -5.4687    4.5914 H   0  0  0  0  0  0  0  0  0  0  0  0
    5.5808   -4.9275    3.0039 H   0  0  0  0  0  0  0  0  0  0  0  0
    4.2040   -4.6965    2.0417 H   0  0  0  0  0  0  0  0  0  0  0  0
    6.1528   -2.7889    3.2946 H   0  0  0  0  0  0  0  0  0  0  0  0
    5.9434   -0.3684    3.9879 H   0  0  0  0  0  0  0  0  0  0  0  0
    4.3725    0.4304    3.8861 H   0  0  0  0  0  0  0  0  0  0  0  0
    5.3068    0.1859    2.4701 H   0  0  0  0  0  0  0  0  0  0  0  0
    6.1264   -0.7903    1.7303 H   0  0  0  0  0  0  0  0  0  0  0  0
    7.6548   -3.4588    0.6886 H   0  0  0  0  0  0  0  0  0  0  0  0
    5.3938   -5.0226    0.2046 H   0  0  0  0  0  0  0  0  0  0  0  0
    7.3724   -2.6420   -1.4954 H   0  0  0  0  0  0  0  0  0  0  0  0
    6.1781   -3.8861   -1.7501 H   0  0  0  0  0  0  0  0  0  0  0  0
    5.7956   -1.0001   -1.0132 H   0  0  0  0  0  0  0  0  0  0  0  0
    4.2540    0.3559   -2.6675 H   0  0  0  0  0  0  0  0  0  0  0  0
    2.9148   -0.4307   -4.9148 H   0  0  0  0  0  0  0  0  0  0  0  0
    4.1328   -3.9347   -3.2255 H   0  0  0  0  0  0  0  0  0  0  0  0
    2.0682   -5.8448    4.3492 H   0  0  0  0  0  0  0  0  0  0  0  0
    0.2977   -4.1399    4.1495 H   0  0  0  0  0  0  0  0  0  0  0  0
  2  1  1  6
  1 30  1  0
  1 31  1  0
  1 32  1  0
  2 16  1  0
  2 21  1  0
  2  3  1  0
  3  4  1  0
  3 33  1  0
  3 34  1  0
  4 14  1  0
  4  5  2  0
  5  6  1  0
  5 35  1  0
  6 29  1  0
  6  7  1  0
  6 36  1  1
  7  8  1  0
  8 14  1  0
  8  9  1  1
  8 10  1  0
  9 37  1  0
 10 11  1  0
 10 38  1  0
 10 39  1  0
 11 12  1  0
 11 27  1  0
 11 40  1  1
 12 13  1  0
 12 41  1  0
 12 42  1  0
 13 14  1  0
 13 16  1  0
 13 43  1  1
 14 15  1  1
 15 44  1  0
 15 45  1  0
 15 46  1  0
 16 17  1  1
 16 18  1  0
 17 47  1  0
 18 19  1  0
 18 20  1  0
 18 48  1  1
 19 49  1  0
 20 21  1  0
 20 50  1  0
 20 51  1  0
 21 22  1  0
 21 52  1  1
 22 26  2  0
 22 23  1  0
 23 24  2  0
 23 53  1  0
 24 25  1  0
 24 54  1  0
 25 26  1  0
 26 55  1  0
 27 29  1  0
 27 28  1  0
 27 56  1  1
 28 29  1  0
 29 57  1  1
M  END
>  <i_m_ct_stereo_status>  (271) 
1

>  <s_m_source_file>  (271) 
/var/tmp/pbs.5076255.sched01/tmpinim70aj/80j3ziidn5.sdf

>  <i_m_source_file_index>  (271) 
33

>  <i_lp_mmshare_version>  (271) 
48012

>  <i_f3d_flags>  (271) 
0

>  <s_epik_input>  (271) 
W2NIXTFvW2NIXVtjSF1jMVtDQEBIXTJbQ0gyXVtDQEhdKFtPSF0pW0NAQF0oW09IXSkoW0NAXTIzW0NIM10pW0NASF00W0NAQF01KFtDSDNdKUMoW0NIMl0zKT1bQ0hdW0NASF02W0NAQEhdN1tDQEBIXShPNylbQ0BASF0oW0NIMl00KVtDSDJdW0NAQF01KE82KVtPSF0=

>  <s_epik_cmdline>  (271) 
J2VwaWtfcHl0aG9uJywgJy1waHQnLCAnMi4wJywgJy1waCcsICc3LjAnLCAnLXRuJywgJzgnLCAnLW1hJywgJzIwMCcsICctaW1hZScsICc8aW5maWxlLm1hZT4nLCAnLW9tYWUnLCAnPG91dGZpbGUubWFlPic=

>  <r_lp_tautomer_probability>  (271) 
1

>  <r_epik_Ionization_Penalty>  (271) 
6.93731e-07

>  <r_epik_Ionization_Penalty_Charging>  (271) 
0

>  <r_epik_Ionization_Penalty_Neutral>  (271) 
6.93731e-07

>  <r_epik_State_Penalty>  (271) 
-0

>  <r_epik_Charging_Adjusted_Penalty>  (271) 
0

>  <i_epik_Tot_Q>  (271) 
0

>  <i_epik_Tot_abs_Q>  (271) 
0

>  <s_lp_Force_Field>  (271) 
OPLS3e

>  <r_lp_Energy>  (271) 
79.6446

>  <b_lp_Chiralities_Consistent>  (271) 
1

>  <s_lp_Variant>  (271) 
87:0-1

>  <s_i_glide_gridfile>  (271) 
pfpi4k_grid

>  <i_i_glide_lignum>  (271) 
33

>  <i_i_glide_rotatable_bonds>  (271) 
4

>  <r_i_docking_score>  (271) 
-3.84981

>  <r_i_glide_ligand_efficiency>  (271) 
-0.132752

>  <r_i_glide_ligand_efficiency_sa>  (271) 
-0.407856

>  <r_i_glide_ligand_efficiency_ln>  (271) 
-0.881508

>  <r_i_glide_gscore>  (271) 
-3.84981

>  <r_i_glide_lipo>  (271) 
-0.90753

>  <r_i_glide_hbond>  (271) 
-0.32

>  <r_i_glide_metal>  (271) 
-0

>  <r_i_glide_rewards>  (271) 
-0.678649

>  <r_i_glide_evdw>  (271) 
-31.9077

>  <r_i_glide_ecoul>  (271) 
-3.13659

>  <r_i_glide_erotb>  (271) 
0.122244

>  <r_i_glide_esite>  (271) 
0

>  <r_i_glide_emodel>  (271) 
-43.0699

>  <r_i_glide_energy>  (271) 
-35.0443

>  <r_i_glide_einternal>  (271) 
0.121168

>  <r_i_glide_intrahb_reward>  (271) 
-0

>  <i_i_glide_confnum>  (271) 
4

>  <i_i_glide_posenum>  (271) 
7

>  <r_i_glide_eff_state_penalty>  (271) 
0

>  <ligand_id>  (271) 
87

>  <original_smiles>  (271) 
CC12CC3=CC4OC5(O)CC(CC(C35C)C1(O)C(O)CC2c1ccoc1)C1OC41

>  <smiles>  (271) 
[H]OC1([H])C([H])([H])C([H])(c2c([H])oc([H])c2[H])C2(C([H])([H])[H])C([H])([H])C3=C([H])C4([H])OC5(O[H])C([H])([H])C([H])(C([H])([H])C([H])(C12O[H])C35C([H])([H])[H])C1([H])OC41[H]

$$$$
87:0:2
     RDKit          3D

 57 63  0  0  1  0  0  0  0  0999 V2000
    3.5616   -3.4667   -0.1553 C   0  0  0  0  0  0  0  0  0  0  0  0
    4.5330   -2.2824    0.1434 C   0  0  1  0  0  0  0  0  0  0  0  0
    3.6637   -1.1479    0.7252 C   0  0  0  0  0  0  0  0  0  0  0  0
    3.2075   -1.5256    2.1416 C   0  0  0  0  0  0  0  0  0  0  0  0
    1.9370   -1.8437    2.4123 C   0  0  0  0  0  0  0  0  0  0  0  0
    1.5216   -2.3717    3.7577 C   0  0  2  0  0  0  0  0  0  0  0  0
    2.3900   -1.8918    4.7793 O   0  0  0  0  0  0  0  0  0  0  0  0
    3.7728   -2.0862    4.6791 C   0  0  1  0  0  0  0  0  0  0  0  0
    4.3671   -1.2701    5.6698 O   0  0  0  0  0  0  0  0  0  0  0  0
    4.0995   -3.5062    5.1823 C   0  0  0  0  0  0  0  0  0  0  0  0
    3.8901   -4.5617    4.1163 C   0  0  2  0  0  0  0  0  0  0  0  0
    4.7447   -4.2930    2.8621 C   0  0  0  0  0  0  0  0  0  0  0  0
    5.2753   -2.8389    2.6430 C   0  0  2  0  0  0  0  0  0  0  0  0
    4.3111   -1.6984    3.2002 C   0  0  1  0  0  0  0  0  0  0  0  0
    5.0089   -0.2995    3.3502 C   0  0  0  0  0  0  0  0  0  0  0  0
    5.7051   -2.5889    1.1371 C   0  0  2  0  0  0  0  0  0  0  0  0
    6.5589   -1.4570    1.2247 O   0  0  0  0  0  0  0  0  0  0  0  0
    6.6493   -3.5263    0.3289 C   0  0  1  0  0  0  0  0  0  0  0  0
    6.3516   -4.9039    0.4193 O   0  0  0  0  0  0  0  0  0  0  0  0
    6.4686   -3.0377   -1.1435 C   0  0  0  0  0  0  0  0  0  0  0  0
    5.3375   -1.9704   -1.1494 C   0  0  1  0  0  0  0  0  0  0  0  0
    4.5542   -1.8738   -2.4411 C   0  0  0  0  0  0  0  0  0  0  0  0
    4.0872   -0.6695   -3.0464 C   0  0  0  0  0  0  0  0  0  0  0  0
    3.4151   -1.0313   -4.1747 C   0  0  0  0  0  0  0  0  0  0  0  0
    3.4135   -2.3812   -4.3195 O   0  0  0  0  0  0  0  0  0  0  0  0
    4.1272   -2.8747   -3.2736 C   0  0  0  0  0  0  0  0  0  0  0  0
    2.4219   -4.9124    3.9165 C   0  0  2  0  0  0  0  0  0  0  0  0
    1.8351   -4.6036    2.6506 O   0  0  0  0  0  0  0  0  0  0  0  0
    1.3179   -3.8835    3.7720 C   0  0  2  0  0  0  0  0  0  0  0  0
    2.8287   -3.1945   -0.9163 H   0  0  0  0  0  0  0  0  0  0  0  0
    2.9571   -3.7411    0.7002 H   0  0  0  0  0  0  0  0  0  0  0  0
    4.0624   -4.3653   -0.5129 H   0  0  0  0  0  0  0  0  0  0  0  0
    4.1957   -0.2015    0.7033 H   0  0  0  0  0  0  0  0  0  0  0  0
    2.7963   -0.9857    0.0912 H   0  0  0  0  0  0  0  0  0  0  0  0
    1.1818   -1.7949    1.6433 H   0  0  0  0  0  0  0  0  0  0  0  0
    0.5495   -1.9262    3.9672 H   0  0  0  0  0  0  0  0  0  0  0  0
    4.2241   -0.3720    5.4150 H   0  0  0  0  0  0  0  0  0  0  0  0
    5.1371   -3.5456    5.5200 H   0  0  0  0  0  0  0  0  0  0  0  0
    3.4774   -3.7189    6.0526 H   0  0  0  0  0  0  0  0  0  0  0  0
    4.3032   -5.4764    4.5484 H   0  0  0  0  0  0  0  0  0  0  0  0
    5.6273   -4.9219    2.9633 H   0  0  0  0  0  0  0  0  0  0  0  0
    4.2495   -4.7102    1.9971 H   0  0  0  0  0  0  0  0  0  0  0  0
    6.1666   -2.7779    3.2648 H   0  0  0  0  0  0  0  0  0  0  0  0
    5.9254   -0.3541    3.9404 H   0  0  0  0  0  0  0  0  0  0  0  0
    4.3441    0.4342    3.8136 H   0  0  0  0  0  0  0  0  0  0  0  0
    5.2982    0.1612    2.4149 H   0  0  0  0  0  0  0  0  0  0  0  0
    7.2226   -1.6456    1.8693 H   0  0  0  0  0  0  0  0  0  0  0  0
    7.6921   -3.4346    0.6400 H   0  0  0  0  0  0  0  0  0  0  0  0
    5.4509   -5.0267    0.1535 H   0  0  0  0  0  0  0  0  0  0  0  0
    7.3926   -2.6179   -1.5432 H   0  0  0  0  0  0  0  0  0  0  0  0
    6.2083   -3.8723   -1.7925 H   0  0  0  0  0  0  0  0  0  0  0  0
    5.8008   -0.9888   -1.0459 H   0  0  0  0  0  0  0  0  0  0  0  0
    4.2149    0.3447   -2.6992 H   0  0  0  0  0  0  0  0  0  0  0  0
    2.8962   -0.4810   -4.9470 H   0  0  0  0  0  0  0  0  0  0  0  0
    4.2032   -3.9523   -3.2687 H   0  0  0  0  0  0  0  0  0  0  0  0
    2.1277   -5.8845    4.3055 H   0  0  0  0  0  0  0  0  0  0  0  0
    0.3348   -4.2049    4.1046 H   0  0  0  0  0  0  0  0  0  0  0  0
  2  1  1  6
  1 30  1  0
  1 31  1  0
  1 32  1  0
  2 16  1  0
  2 21  1  0
  2  3  1  0
  3  4  1  0
  3 33  1  0
  3 34  1  0
  4 14  1  0
  4  5  2  0
  5  6  1  0
  5 35  1  0
  6 29  1  0
  6  7  1  0
  6 36  1  1
  7  8  1  0
  8 14  1  0
  8  9  1  1
  8 10  1  0
  9 37  1  0
 10 11  1  0
 10 38  1  0
 10 39  1  0
 11 12  1  0
 11 27  1  0
 11 40  1  1
 12 13  1  0
 12 41  1  0
 12 42  1  0
 13 14  1  0
 13 16  1  0
 13 43  1  1
 14 15  1  1
 15 44  1  0
 15 45  1  0
 15 46  1  0
 16 17  1  1
 16 18  1  0
 17 47  1  0
 18 19  1  0
 18 20  1  0
 18 48  1  1
 19 49  1  0
 20 21  1  0
 20 50  1  0
 20 51  1  0
 21 22  1  0
 21 52  1  1
 22 26  2  0
 22 23  1  0
 23 24  2  0
 23 53  1  0
 24 25  1  0
 24 54  1  0
 25 26  1  0
 26 55  1  0
 27 29  1  0
 27 28  1  0
 27 56  1  1
 28 29  1  0
 29 57  1  1
M  END
>  <i_m_ct_stereo_status>  (272) 
1

>  <s_m_source_file>  (272) 
/var/tmp/pbs.5076255.sched01/tmpinim70aj/80j3ziidn5.sdf

>  <i_m_source_file_index>  (272) 
33

>  <i_lp_mmshare_version>  (272) 
48012

>  <i_f3d_flags>  (272) 
0

>  <s_epik_input>  (272) 
W2NIXTFvW2NIXVtjSF1jMVtDQEBIXTJbQ0gyXVtDQEhdKFtPSF0pW0NAQF0oW09IXSkoW0NAXTIzW0NIM10pW0NASF00W0NAQF01KFtDSDNdKUMoW0NIMl0zKT1bQ0hdW0NASF02W0NAQEhdN1tDQEBIXShPNylbQ0BASF0oW0NIMl00KVtDSDJdW0NAQF01KE82KVtPSF0=

>  <s_epik_cmdline>  (272) 
J2VwaWtfcHl0aG9uJywgJy1waHQnLCAnMi4wJywgJy1waCcsICc3LjAnLCAnLXRuJywgJzgnLCAnLW1hJywgJzIwMCcsICctaW1hZScsICc8aW5maWxlLm1hZT4nLCAnLW9tYWUnLCAnPG91dGZpbGUubWFlPic=

>  <r_lp_tautomer_probability>  (272) 
1

>  <r_epik_Ionization_Penalty>  (272) 
6.93731e-07

>  <r_epik_Ionization_Penalty_Charging>  (272) 
0

>  <r_epik_Ionization_Penalty_Neutral>  (272) 
6.93731e-07

>  <r_epik_State_Penalty>  (272) 
-0

>  <r_epik_Charging_Adjusted_Penalty>  (272) 
0

>  <i_epik_Tot_Q>  (272) 
0

>  <i_epik_Tot_abs_Q>  (272) 
0

>  <s_lp_Force_Field>  (272) 
OPLS3e

>  <r_lp_Energy>  (272) 
79.6446

>  <b_lp_Chiralities_Consistent>  (272) 
1

>  <s_lp_Variant>  (272) 
87:0-1

>  <s_i_glide_gridfile>  (272) 
pfpi4k_grid

>  <i_i_glide_lignum>  (272) 
33

>  <i_i_glide_rotatable_bonds>  (272) 
4

>  <r_i_docking_score>  (272) 
-3.78567

>  <r_i_glide_ligand_efficiency>  (272) 
-0.13054

>  <r_i_glide_ligand_efficiency_sa>  (272) 
-0.401061

>  <r_i_glide_ligand_efficiency_ln>  (272) 
-0.866822

>  <r_i_glide_gscore>  (272) 
-3.78567

>  <r_i_glide_lipo>  (272) 
-0.891959

>  <r_i_glide_hbond>  (272) 
-0.32

>  <r_i_glide_metal>  (272) 
-0

>  <r_i_glide_rewards>  (272) 
-0.678649

>  <r_i_glide_evdw>  (272) 
-32.0813

>  <r_i_glide_ecoul>  (272) 
-2.75493

>  <r_i_glide_erotb>  (272) 
0.122244

>  <r_i_glide_esite>  (272) 
0

>  <r_i_glide_emodel>  (272) 
-42.7267

>  <r_i_glide_energy>  (272) 
-34.8363

>  <r_i_glide_einternal>  (272) 
0.0824086

>  <r_i_glide_intrahb_reward>  (272) 
-0

>  <i_i_glide_confnum>  (272) 
1

>  <i_i_glide_posenum>  (272) 
11

>  <r_i_glide_eff_state_penalty>  (272) 
0

>  <ligand_id>  (272) 
87

>  <original_smiles>  (272) 
CC12CC3=CC4OC5(O)CC(CC(C35C)C1(O)C(O)CC2c1ccoc1)C1OC41

>  <smiles>  (272) 
[H]OC1([H])C([H])([H])C([H])(c2c([H])oc([H])c2[H])C2(C([H])([H])[H])C([H])([H])C3=C([H])C4([H])OC5(O[H])C([H])([H])C([H])(C([H])([H])C([H])(C12O[H])C35C([H])([H])[H])C1([H])OC41[H]

$$$$
88:0:0
     RDKit          3D

 15 15  0  0  1  0  0  0  0  0999 V2000
    0.2003   -2.1446    4.4842 C   0  0  0  0  0  0  0  0  0  0  0  0
   -0.4182   -0.7701    4.5951 C   0  0  0  0  0  0  0  0  0  0  0  0
   -0.1854    0.2234    3.6252 C   0  0  0  0  0  0  0  0  0  0  0  0
   -0.8087    1.4703    3.8160 C   0  0  0  0  0  0  0  0  0  0  0  0
   -1.6180    1.6485    4.9618 C   0  0  0  0  0  0  0  0  0  0  0  0
   -2.2761    2.9527    5.1867 N   0  0  0  0  0  0  0  0  0  0  0  0
   -2.1486    3.8378    4.3466 O   0  0  0  0  0  0  0  0  0  0  0  0
   -2.9271    3.0980    6.2168 O   0  0  0  0  0  0  0  0  0  0  0  0
   -1.7850    0.6291    5.8484 N   0  0  0  0  0  0  0  0  0  0  0  0
   -1.2084   -0.5640    5.6703 N   0  0  0  0  0  0  0  0  0  0  0  0
    0.8069   -2.2357    3.5842 H   0  0  0  0  0  0  0  0  0  0  0  0
   -0.5826   -2.9017    4.4544 H   0  0  0  0  0  0  0  0  0  0  0  0
    0.8312   -2.3398    5.3529 H   0  0  0  0  0  0  0  0  0  0  0  0
    0.4390    0.0418    2.7624 H   0  0  0  0  0  0  0  0  0  0  0  0
   -0.6652    2.2650    3.0966 H   0  0  0  0  0  0  0  0  0  0  0  0
  1  2  1  0
  1 11  1  0
  1 12  1  0
  1 13  1  0
  2 10  2  0
  2  3  1  0
  3  4  2  0
  3 14  1  0
  4  5  1  0
  4 15  1  0
  5  6  1  0
  5  9  2  0
  6  7  2  0
  6  8  1  0
  9 10  1  0
M  CHG  2   6   1   8  -1
M  END
>  <i_m_ct_stereo_status>  (273) 
1

>  <s_m_source_file>  (273) 
/var/tmp/pbs.5076255.sched01/tmpinim70aj/80j3ziidn5.sdf

>  <i_m_source_file_index>  (273) 
34

>  <i_lp_mmshare_version>  (273) 
48012

>  <i_f3d_flags>  (273) 
0

>  <s_epik_input>  (273) 
W0NIM11jMVtjSF1bY0hdYyhbTitdKD1PKVtPLV0pbm4x

>  <s_epik_cmdline>  (273) 
J2VwaWtfcHl0aG9uJywgJy1waHQnLCAnMi4wJywgJy1waCcsICc3LjAnLCAnLXRuJywgJzgnLCAnLW1hJywgJzIwMCcsICctaW1hZScsICc8aW5maWxlLm1hZT4nLCAnLW9tYWUnLCAnPG91dGZpbGUubWFlPic=

>  <r_lp_tautomer_probability>  (273) 
1

>  <r_epik_Ionization_Penalty>  (273) 
0.0451317

>  <r_epik_Ionization_Penalty_Charging>  (273) 
0

>  <r_epik_Ionization_Penalty_Neutral>  (273) 
0.0451317

>  <r_epik_State_Penalty>  (273) 
0.0334702

>  <r_epik_Charging_Adjusted_Penalty>  (273) 
0.0334702

>  <i_epik_Tot_Q>  (273) 
0

>  <i_epik_Tot_abs_Q>  (273) 
2

>  <s_lp_Force_Field>  (273) 
OPLS3e

>  <r_lp_Energy>  (273) 
15.5815

>  <b_lp_Chiralities_Consistent>  (273) 
1

>  <s_lp_Variant>  (273) 
88:0-1

>  <s_i_glide_gridfile>  (273) 
pfpi4k_grid

>  <i_i_glide_lignum>  (273) 
34

>  <i_i_glide_rotatable_bonds>  (273) 
1

>  <r_i_docking_score>  (273) 
-3.91171

>  <r_i_glide_ligand_efficiency>  (273) 
-0.391171

>  <r_i_glide_ligand_efficiency_sa>  (273) 
-0.842752

>  <r_i_glide_ligand_efficiency_ln>  (273) 
-1.18444

>  <r_i_glide_gscore>  (273) 
-3.91171

>  <r_i_glide_lipo>  (273) 
-0.0480792

>  <r_i_glide_hbond>  (273) 
0

>  <r_i_glide_metal>  (273) 
-0

>  <r_i_glide_rewards>  (273) 
-2.25

>  <r_i_glide_evdw>  (273) 
-12.9808

>  <r_i_glide_ecoul>  (273) 
-5.23903

>  <r_i_glide_erotb>  (273) 
0

>  <r_i_glide_esite>  (273) 
-0.178734

>  <r_i_glide_emodel>  (273) 
-23.6582

>  <r_i_glide_energy>  (273) 
-18.2198

>  <r_i_glide_einternal>  (273) 
0.00573419

>  <r_i_glide_intrahb_reward>  (273) 
-0

>  <i_i_glide_confnum>  (273) 
2

>  <i_i_glide_posenum>  (273) 
16

>  <r_i_glide_eff_state_penalty>  (273) 
0

>  <ligand_id>  (273) 
88

>  <original_smiles>  (273) 
Cc1ccc([N+](=O)[O-])nn1

>  <smiles>  (273) 
[H]c1c([N+](=O)[O-])nnc(C([H])([H])[H])c1[H]

$$$$
88:0:1
     RDKit          3D

 15 15  0  0  1  0  0  0  0  0999 V2000
    1.2276   -1.5498    3.2180 C   0  0  0  0  0  0  0  0  0  0  0  0
    0.3501   -0.3220    3.3267 C   0  0  0  0  0  0  0  0  0  0  0  0
    0.3070    0.6472    2.3064 C   0  0  0  0  0  0  0  0  0  0  0  0
   -0.5573    1.7384    2.4976 C   0  0  0  0  0  0  0  0  0  0  0  0
   -1.3261    1.7940    3.6865 C   0  0  0  0  0  0  0  0  0  0  0  0
   -2.2186    2.9461    3.9192 N   0  0  0  0  0  0  0  0  0  0  0  0
   -2.5922    3.1594    5.0702 O   0  0  0  0  0  0  0  0  0  0  0  0
   -2.5400    3.6516    2.9717 O   0  0  0  0  0  0  0  0  0  0  0  0
   -1.2233    0.8093    4.6169 N   0  0  0  0  0  0  0  0  0  0  0  0
   -0.4040   -0.2343    4.4444 N   0  0  0  0  0  0  0  0  0  0  0  0
    1.7888   -1.5524    2.2850 H   0  0  0  0  0  0  0  0  0  0  0  0
    0.6133   -2.4495    3.2564 H   0  0  0  0  0  0  0  0  0  0  0  0
    1.9295   -1.5794    4.0513 H   0  0  0  0  0  0  0  0  0  0  0  0
    0.9040    0.5578    1.4095 H   0  0  0  0  0  0  0  0  0  0  0  0
   -0.6121    2.5179    1.7542 H   0  0  0  0  0  0  0  0  0  0  0  0
  1  2  1  0
  1 11  1  0
  1 12  1  0
  1 13  1  0
  2 10  2  0
  2  3  1  0
  3  4  2  0
  3 14  1  0
  4  5  1  0
  4 15  1  0
  5  6  1  0
  5  9  2  0
  6  7  2  0
  6  8  1  0
  9 10  1  0
M  CHG  2   6   1   8  -1
M  END
>  <i_m_ct_stereo_status>  (274) 
1

>  <s_m_source_file>  (274) 
/var/tmp/pbs.5076255.sched01/tmpinim70aj/80j3ziidn5.sdf

>  <i_m_source_file_index>  (274) 
34

>  <i_lp_mmshare_version>  (274) 
48012

>  <i_f3d_flags>  (274) 
0

>  <s_epik_input>  (274) 
W0NIM11jMVtjSF1bY0hdYyhbTitdKD1PKVtPLV0pbm4x

>  <s_epik_cmdline>  (274) 
J2VwaWtfcHl0aG9uJywgJy1waHQnLCAnMi4wJywgJy1waCcsICc3LjAnLCAnLXRuJywgJzgnLCAnLW1hJywgJzIwMCcsICctaW1hZScsICc8aW5maWxlLm1hZT4nLCAnLW9tYWUnLCAnPG91dGZpbGUubWFlPic=

>  <r_lp_tautomer_probability>  (274) 
1

>  <r_epik_Ionization_Penalty>  (274) 
0.0451317

>  <r_epik_Ionization_Penalty_Charging>  (274) 
0

>  <r_epik_Ionization_Penalty_Neutral>  (274) 
0.0451317

>  <r_epik_State_Penalty>  (274) 
0.0334702

>  <r_epik_Charging_Adjusted_Penalty>  (274) 
0.0334702

>  <i_epik_Tot_Q>  (274) 
0

>  <i_epik_Tot_abs_Q>  (274) 
2

>  <s_lp_Force_Field>  (274) 
OPLS3e

>  <r_lp_Energy>  (274) 
15.5815

>  <b_lp_Chiralities_Consistent>  (274) 
1

>  <s_lp_Variant>  (274) 
88:0-1

>  <s_i_glide_gridfile>  (274) 
pfpi4k_grid

>  <i_i_glide_lignum>  (274) 
34

>  <i_i_glide_rotatable_bonds>  (274) 
1

>  <r_i_docking_score>  (274) 
-3.72782

>  <r_i_glide_ligand_efficiency>  (274) 
-0.372782

>  <r_i_glide_ligand_efficiency_sa>  (274) 
-0.803135

>  <r_i_glide_ligand_efficiency_ln>  (274) 
-1.12876

>  <r_i_glide_gscore>  (274) 
-3.72782

>  <r_i_glide_lipo>  (274) 
0

>  <r_i_glide_hbond>  (274) 
0

>  <r_i_glide_metal>  (274) 
-0

>  <r_i_glide_rewards>  (274) 
-2.25

>  <r_i_glide_evdw>  (274) 
-14.0965

>  <r_i_glide_ecoul>  (274) 
-4.01768

>  <r_i_glide_erotb>  (274) 
0

>  <r_i_glide_esite>  (274) 
-0.170346

>  <r_i_glide_emodel>  (274) 
-23.0604

>  <r_i_glide_energy>  (274) 
-18.1142

>  <r_i_glide_einternal>  (274) 
0.377704

>  <r_i_glide_intrahb_reward>  (274) 
-0

>  <i_i_glide_confnum>  (274) 
1

>  <i_i_glide_posenum>  (274) 
31

>  <r_i_glide_eff_state_penalty>  (274) 
0

>  <ligand_id>  (274) 
88

>  <original_smiles>  (274) 
Cc1ccc([N+](=O)[O-])nn1

>  <smiles>  (274) 
[H]c1c([N+](=O)[O-])nnc(C([H])([H])[H])c1[H]

$$$$
88:0:2
     RDKit          3D

 15 15  0  0  1  0  0  0  0  0999 V2000
   -1.9649   -8.8497    2.8767 C   0  0  0  0  0  0  0  0  0  0  0  0
   -0.6078   -8.3057    2.4947 C   0  0  0  0  0  0  0  0  0  0  0  0
    0.5647   -9.0698    2.6517 C   0  0  0  0  0  0  0  0  0  0  0  0
    1.7735   -8.4755    2.2434 C   0  0  0  0  0  0  0  0  0  0  0  0
    1.7357   -7.1677    1.7029 C   0  0  0  0  0  0  0  0  0  0  0  0
    2.9909   -6.5181    1.2785 N   0  0  0  0  0  0  0  0  0  0  0  0
    2.9294   -5.3602    0.8749 O   0  0  0  0  0  0  0  0  0  0  0  0
    4.0330   -7.1587    1.3462 O   0  0  0  0  0  0  0  0  0  0  0  0
    0.5558   -6.5062    1.5878 N   0  0  0  0  0  0  0  0  0  0  0  0
   -0.5941   -7.0534    1.9871 N   0  0  0  0  0  0  0  0  0  0  0  0
   -1.8850   -9.8551    3.2807 H   0  0  0  0  0  0  0  0  0  0  0  0
   -2.6082   -8.8841    2.0005 H   0  0  0  0  0  0  0  0  0  0  0  0
   -2.4282   -8.2133    3.6277 H   0  0  0  0  0  0  0  0  0  0  0  0
    0.5340  -10.0719    3.0610 H   0  0  0  0  0  0  0  0  0  0  0  0
    2.7025   -9.0159    2.3420 H   0  0  0  0  0  0  0  0  0  0  0  0
  1  2  1  0
  1 11  1  0
  1 12  1  0
  1 13  1  0
  2 10  2  0
  2  3  1  0
  3  4  2  0
  3 14  1  0
  4  5  1  0
  4 15  1  0
  5  6  1  0
  5  9  2  0
  6  7  2  0
  6  8  1  0
  9 10  1  0
M  CHG  2   6   1   8  -1
M  END
>  <i_m_ct_stereo_status>  (275) 
1

>  <s_m_source_file>  (275) 
/var/tmp/pbs.5076255.sched01/tmpinim70aj/80j3ziidn5.sdf

>  <i_m_source_file_index>  (275) 
34

>  <i_lp_mmshare_version>  (275) 
48012

>  <i_f3d_flags>  (275) 
0

>  <s_epik_input>  (275) 
W0NIM11jMVtjSF1bY0hdYyhbTitdKD1PKVtPLV0pbm4x

>  <s_epik_cmdline>  (275) 
J2VwaWtfcHl0aG9uJywgJy1waHQnLCAnMi4wJywgJy1waCcsICc3LjAnLCAnLXRuJywgJzgnLCAnLW1hJywgJzIwMCcsICctaW1hZScsICc8aW5maWxlLm1hZT4nLCAnLW9tYWUnLCAnPG91dGZpbGUubWFlPic=

>  <r_lp_tautomer_probability>  (275) 
1

>  <r_epik_Ionization_Penalty>  (275) 
0.0451317

>  <r_epik_Ionization_Penalty_Charging>  (275) 
0

>  <r_epik_Ionization_Penalty_Neutral>  (275) 
0.0451317

>  <r_epik_State_Penalty>  (275) 
0.0334702

>  <r_epik_Charging_Adjusted_Penalty>  (275) 
0.0334702

>  <i_epik_Tot_Q>  (275) 
0

>  <i_epik_Tot_abs_Q>  (275) 
2

>  <s_lp_Force_Field>  (275) 
OPLS3e

>  <r_lp_Energy>  (275) 
15.5815

>  <b_lp_Chiralities_Consistent>  (275) 
1

>  <s_lp_Variant>  (275) 
88:0-1

>  <s_i_glide_gridfile>  (275) 
pfpi4k_grid

>  <i_i_glide_lignum>  (275) 
34

>  <i_i_glide_rotatable_bonds>  (275) 
1

>  <r_i_docking_score>  (275) 
-3.71576

>  <r_i_glide_ligand_efficiency>  (275) 
-0.371576

>  <r_i_glide_ligand_efficiency_sa>  (275) 
-0.800536

>  <r_i_glide_ligand_efficiency_ln>  (275) 
-1.12511

>  <r_i_glide_gscore>  (275) 
-3.71576

>  <r_i_glide_lipo>  (275) 
0

>  <r_i_glide_hbond>  (275) 
0

>  <r_i_glide_metal>  (275) 
-0

>  <r_i_glide_rewards>  (275) 
-2.29202

>  <r_i_glide_evdw>  (275) 
-14.789

>  <r_i_glide_ecoul>  (275) 
-3.0865

>  <r_i_glide_erotb>  (275) 
0

>  <r_i_glide_esite>  (275) 
-0.221315

>  <r_i_glide_emodel>  (275) 
-22.9972

>  <r_i_glide_energy>  (275) 
-17.8755

>  <r_i_glide_einternal>  (275) 
0.0901487

>  <r_i_glide_intrahb_reward>  (275) 
-0

>  <i_i_glide_confnum>  (275) 
1

>  <i_i_glide_posenum>  (275) 
5

>  <r_i_glide_eff_state_penalty>  (275) 
0

>  <ligand_id>  (275) 
88

>  <original_smiles>  (275) 
Cc1ccc([N+](=O)[O-])nn1

>  <smiles>  (275) 
[H]c1c([N+](=O)[O-])nnc(C([H])([H])[H])c1[H]

$$$$
88:1:0
     RDKit          3D

 16 16  0  0  1  0  0  0  0  0999 V2000
    3.4890   -0.0648   -4.6476 C   0  0  0  0  0  0  0  0  0  0  0  0
    3.4315   -1.0123   -3.4687 C   0  0  0  0  0  0  0  0  0  0  0  0
    2.6297   -2.1733   -3.4686 C   0  0  0  0  0  0  0  0  0  0  0  0
    2.6316   -2.9707   -2.3081 C   0  0  0  0  0  0  0  0  0  0  0  0
    3.4368   -2.5785   -1.2178 C   0  0  0  0  0  0  0  0  0  0  0  0
    3.4402   -3.4119    0.0041 N   0  0  0  0  0  0  0  0  0  0  0  0
    2.6079   -4.3113    0.1090 O   0  0  0  0  0  0  0  0  0  0  0  0
    4.2800   -3.1633    0.8553 O   0  0  0  0  0  0  0  0  0  0  0  0
    4.2117   -1.4580   -1.2836 N   0  0  0  0  0  0  0  0  0  0  0  0
    4.1789   -0.7000   -2.3868 N   0  0  0  0  0  0  0  0  0  0  0  0
    2.8508   -0.3938   -5.4666 H   0  0  0  0  0  0  0  0  0  0  0  0
    4.5088    0.0030   -5.0227 H   0  0  0  0  0  0  0  0  0  0  0  0
    3.1702    0.9365   -4.3549 H   0  0  0  0  0  0  0  0  0  0  0  0
    2.0096   -2.4410   -4.3159 H   0  0  0  0  0  0  0  0  0  0  0  0
    2.0039   -3.8507   -2.2625 H   0  0  0  0  0  0  0  0  0  0  0  0
    4.7194    0.1711   -2.4094 H   0  0  0  0  0  0  0  0  0  0  0  0
  1  2  1  0
  1 11  1  0
  1 12  1  0
  1 13  1  0
  2 10  2  0
  2  3  1  0
  3  4  2  0
  3 14  1  0
  4  5  1  0
  4 15  1  0
  5  6  1  0
  5  9  2  0
  6  7  2  0
  6  8  1  0
  9 10  1  0
 10 16  1  0
M  CHG  3   6   1   8  -1  10   1
M  END
>  <i_m_ct_stereo_status>  (276) 
1

>  <s_m_source_file>  (276) 
/var/tmp/pbs.5076255.sched01/tmpinim70aj/80j3ziidn5.sdf

>  <i_m_source_file_index>  (276) 
35

>  <i_lp_mmshare_version>  (276) 
48012

>  <i_f3d_flags>  (276) 
0

>  <s_epik_input>  (276) 
W0NIM11jMVtjSF1bY0hdYyhbTitdKD1PKVtPLV0pbm4x

>  <s_epik_cmdline>  (276) 
J2VwaWtfcHl0aG9uJywgJy1waHQnLCAnMi4wJywgJy1waCcsICc3LjAnLCAnLXRuJywgJzgnLCAnLW1hJywgJzIwMCcsICctaW1hZScsICc8aW5maWxlLm1hZT4nLCAnLW9tYWUnLCAnPG91dGZpbGUubWFlPic=

>  <r_lp_tautomer_probability>  (276) 
0.5088

>  <r_epik_Ionization_Penalty>  (276) 
1.75996

>  <r_epik_Ionization_Penalty_Charging>  (276) 
1.75996

>  <r_epik_Ionization_Penalty_Neutral>  (276) 
1.91944e-13

>  <r_epik_State_Penalty>  (276) 
2.04354

>  <r_epik_Charging_Adjusted_Penalty>  (276) 
3.80351

>  <i_epik_Tot_Q>  (276) 
1

>  <i_epik_Tot_abs_Q>  (276) 
3

>  <s_lp_Force_Field>  (276) 
OPLS3e

>  <r_lp_Energy>  (276) 
19.0013

>  <b_lp_Chiralities_Consistent>  (276) 
1

>  <s_lp_Variant>  (276) 
88:0-2

>  <s_i_glide_gridfile>  (276) 
pfpi4k_grid

>  <i_i_glide_lignum>  (276) 
35

>  <i_i_glide_rotatable_bonds>  (276) 
1

>  <r_i_docking_score>  (276) 
-4.57884

>  <r_i_glide_ligand_efficiency>  (276) 
-0.457884

>  <r_i_glide_ligand_efficiency_sa>  (276) 
-0.986482

>  <r_i_glide_ligand_efficiency_ln>  (276) 
-1.38644

>  <r_i_glide_gscore>  (276) 
-4.57884

>  <r_i_glide_lipo>  (276) 
-0.613637

>  <r_i_glide_hbond>  (276) 
0

>  <r_i_glide_metal>  (276) 
-0

>  <r_i_glide_rewards>  (276) 
-2.2657

>  <r_i_glide_evdw>  (276) 
-15.5883

>  <r_i_glide_ecoul>  (276) 
-5.85128

>  <r_i_glide_erotb>  (276) 
0

>  <r_i_glide_esite>  (276) 
-0.0423923

>  <r_i_glide_emodel>  (276) 
-31.5205

>  <r_i_glide_energy>  (276) 
-21.4396

>  <r_i_glide_einternal>  (276) 
0.0948019

>  <r_i_glide_intrahb_reward>  (276) 
-0

>  <i_i_glide_confnum>  (276) 
1

>  <i_i_glide_posenum>  (276) 
28

>  <r_i_glide_eff_state_penalty>  (276) 
0

>  <ligand_id>  (276) 
88

>  <original_smiles>  (276) 
Cc1ccc([N+](=O)[O-])nn1

>  <smiles>  (276) 
[H]c1c([N+](=O)[O-])n[n+]([H])c(C([H])([H])[H])c1[H]

$$$$
88:1:1
     RDKit          3D

 16 16  0  0  1  0  0  0  0  0999 V2000
    3.4120  -12.2246    3.6386 C   0  0  0  0  0  0  0  0  0  0  0  0
    2.5090  -11.0610    3.2834 C   0  0  0  0  0  0  0  0  0  0  0  0
    1.2961  -10.8121    3.9541 C   0  0  0  0  0  0  0  0  0  0  0  0
    0.5240   -9.7130    3.5370 C   0  0  0  0  0  0  0  0  0  0  0  0
    1.0021   -8.9142    2.4719 C   0  0  0  0  0  0  0  0  0  0  0  0
    0.1921   -7.7580    2.0206 N   0  0  0  0  0  0  0  0  0  0  0  0
   -0.8929   -7.5388    2.5538 O   0  0  0  0  0  0  0  0  0  0  0  0
    0.6448   -7.0426    1.1318 O   0  0  0  0  0  0  0  0  0  0  0  0
    2.1860   -9.1937    1.8624 N   0  0  0  0  0  0  0  0  0  0  0  0
    2.8994  -10.2571    2.2714 N   0  0  0  0  0  0  0  0  0  0  0  0
    3.0094  -12.7947    4.4758 H   0  0  0  0  0  0  0  0  0  0  0  0
    4.4016  -11.8612    3.9210 H   0  0  0  0  0  0  0  0  0  0  0  0
    3.5246  -12.8937    2.7797 H   0  0  0  0  0  0  0  0  0  0  0  0
    0.9658  -11.4465    4.7658 H   0  0  0  0  0  0  0  0  0  0  0  0
   -0.4138   -9.4944    4.0299 H   0  0  0  0  0  0  0  0  0  0  0  0
    3.7529  -10.5195    1.7668 H   0  0  0  0  0  0  0  0  0  0  0  0
  1  2  1  0
  1 11  1  0
  1 12  1  0
  1 13  1  0
  2 10  2  0
  2  3  1  0
  3  4  2  0
  3 14  1  0
  4  5  1  0
  4 15  1  0
  5  6  1  0
  5  9  2  0
  6  7  2  0
  6  8  1  0
  9 10  1  0
 10 16  1  0
M  CHG  3   6   1   8  -1  10   1
M  END
>  <i_m_ct_stereo_status>  (277) 
1

>  <s_m_source_file>  (277) 
/var/tmp/pbs.5076255.sched01/tmpinim70aj/80j3ziidn5.sdf

>  <i_m_source_file_index>  (277) 
35

>  <i_lp_mmshare_version>  (277) 
48012

>  <i_f3d_flags>  (277) 
0

>  <s_epik_input>  (277) 
W0NIM11jMVtjSF1bY0hdYyhbTitdKD1PKVtPLV0pbm4x

>  <s_epik_cmdline>  (277) 
J2VwaWtfcHl0aG9uJywgJy1waHQnLCAnMi4wJywgJy1waCcsICc3LjAnLCAnLXRuJywgJzgnLCAnLW1hJywgJzIwMCcsICctaW1hZScsICc8aW5maWxlLm1hZT4nLCAnLW9tYWUnLCAnPG91dGZpbGUubWFlPic=

>  <r_lp_tautomer_probability>  (277) 
0.5088

>  <r_epik_Ionization_Penalty>  (277) 
1.75996

>  <r_epik_Ionization_Penalty_Charging>  (277) 
1.75996

>  <r_epik_Ionization_Penalty_Neutral>  (277) 
1.91944e-13

>  <r_epik_State_Penalty>  (277) 
2.04354

>  <r_epik_Charging_Adjusted_Penalty>  (277) 
3.80351

>  <i_epik_Tot_Q>  (277) 
1

>  <i_epik_Tot_abs_Q>  (277) 
3

>  <s_lp_Force_Field>  (277) 
OPLS3e

>  <r_lp_Energy>  (277) 
19.0013

>  <b_lp_Chiralities_Consistent>  (277) 
1

>  <s_lp_Variant>  (277) 
88:0-2

>  <s_i_glide_gridfile>  (277) 
pfpi4k_grid

>  <i_i_glide_lignum>  (277) 
35

>  <i_i_glide_rotatable_bonds>  (277) 
1

>  <r_i_docking_score>  (277) 
-4.57419

>  <r_i_glide_ligand_efficiency>  (277) 
-0.457419

>  <r_i_glide_ligand_efficiency_sa>  (277) 
-0.985479

>  <r_i_glide_ligand_efficiency_ln>  (277) 
-1.38503

>  <r_i_glide_gscore>  (277) 
-4.57419

>  <r_i_glide_lipo>  (277) 
-0.0909048

>  <r_i_glide_hbond>  (277) 
-0.0732534

>  <r_i_glide_metal>  (277) 
-0

>  <r_i_glide_rewards>  (277) 
-2.25

>  <r_i_glide_evdw>  (277) 
-14.9648

>  <r_i_glide_ecoul>  (277) 
-7.52554

>  <r_i_glide_erotb>  (277) 
0

>  <r_i_glide_esite>  (277) 
-0.282958

>  <r_i_glide_emodel>  (277) 
-32.6156

>  <r_i_glide_energy>  (277) 
-22.4904

>  <r_i_glide_einternal>  (277) 
0.0112911

>  <r_i_glide_intrahb_reward>  (277) 
-0

>  <i_i_glide_confnum>  (277) 
2

>  <i_i_glide_posenum>  (277) 
8

>  <r_i_glide_eff_state_penalty>  (277) 
0

>  <ligand_id>  (277) 
88

>  <original_smiles>  (277) 
Cc1ccc([N+](=O)[O-])nn1

>  <smiles>  (277) 
[H]c1c([N+](=O)[O-])n[n+]([H])c(C([H])([H])[H])c1[H]

$$$$
88:1:2
     RDKit          3D

 16 16  0  0  1  0  0  0  0  0999 V2000
    2.5200   -4.4578   -0.1413 C   0  0  0  0  0  0  0  0  0  0  0  0
    2.8872   -3.3163   -1.0727 C   0  0  0  0  0  0  0  0  0  0  0  0
    3.5303   -2.1518   -0.6085 C   0  0  0  0  0  0  0  0  0  0  0  0
    3.8458   -1.1739   -1.5648 C   0  0  0  0  0  0  0  0  0  0  0  0
    3.4995   -1.3920   -2.9202 C   0  0  0  0  0  0  0  0  0  0  0  0
    3.8211   -0.3622   -3.9159 N   0  0  0  0  0  0  0  0  0  0  0  0
    4.2136    0.7255   -3.5236 O   0  0  0  0  0  0  0  0  0  0  0  0
    3.7609   -0.6666   -5.1003 O   0  0  0  0  0  0  0  0  0  0  0  0
    2.9175   -2.5503   -3.3074 N   0  0  0  0  0  0  0  0  0  0  0  0
    2.5829   -3.4578   -2.3803 N   0  0  0  0  0  0  0  0  0  0  0  0
    2.7582   -4.2312    0.8982 H   0  0  0  0  0  0  0  0  0  0  0  0
    3.0437   -5.3811   -0.3816 H   0  0  0  0  0  0  0  0  0  0  0  0
    1.4567   -4.6672   -0.2172 H   0  0  0  0  0  0  0  0  0  0  0  0
    3.7368   -2.0098    0.4479 H   0  0  0  0  0  0  0  0  0  0  0  0
    4.3301   -0.2683   -1.2410 H   0  0  0  0  0  0  0  0  0  0  0  0
    2.2092   -4.3582   -2.6677 H   0  0  0  0  0  0  0  0  0  0  0  0
  1  2  1  0
  1 11  1  0
  1 12  1  0
  1 13  1  0
  2 10  2  0
  2  3  1  0
  3  4  2  0
  3 14  1  0
  4  5  1  0
  4 15  1  0
  5  6  1  0
  5  9  2  0
  6  7  2  0
  6  8  1  0
  9 10  1  0
 10 16  1  0
M  CHG  3   6   1   8  -1  10   1
M  END
>  <i_m_ct_stereo_status>  (278) 
1

>  <s_m_source_file>  (278) 
/var/tmp/pbs.5076255.sched01/tmpinim70aj/80j3ziidn5.sdf

>  <i_m_source_file_index>  (278) 
35

>  <i_lp_mmshare_version>  (278) 
48012

>  <i_f3d_flags>  (278) 
0

>  <s_epik_input>  (278) 
W0NIM11jMVtjSF1bY0hdYyhbTitdKD1PKVtPLV0pbm4x

>  <s_epik_cmdline>  (278) 
J2VwaWtfcHl0aG9uJywgJy1waHQnLCAnMi4wJywgJy1waCcsICc3LjAnLCAnLXRuJywgJzgnLCAnLW1hJywgJzIwMCcsICctaW1hZScsICc8aW5maWxlLm1hZT4nLCAnLW9tYWUnLCAnPG91dGZpbGUubWFlPic=

>  <r_lp_tautomer_probability>  (278) 
0.5088

>  <r_epik_Ionization_Penalty>  (278) 
1.75996

>  <r_epik_Ionization_Penalty_Charging>  (278) 
1.75996

>  <r_epik_Ionization_Penalty_Neutral>  (278) 
1.91944e-13

>  <r_epik_State_Penalty>  (278) 
2.04354

>  <r_epik_Charging_Adjusted_Penalty>  (278) 
3.80351

>  <i_epik_Tot_Q>  (278) 
1

>  <i_epik_Tot_abs_Q>  (278) 
3

>  <s_lp_Force_Field>  (278) 
OPLS3e

>  <r_lp_Energy>  (278) 
19.0013

>  <b_lp_Chiralities_Consistent>  (278) 
1

>  <s_lp_Variant>  (278) 
88:0-2

>  <s_i_glide_gridfile>  (278) 
pfpi4k_grid

>  <i_i_glide_lignum>  (278) 
35

>  <i_i_glide_rotatable_bonds>  (278) 
1

>  <r_i_docking_score>  (278) 
-4.392

>  <r_i_glide_ligand_efficiency>  (278) 
-0.4392

>  <r_i_glide_ligand_efficiency_sa>  (278) 
-0.946229

>  <r_i_glide_ligand_efficiency_ln>  (278) 
-1.32987

>  <r_i_glide_gscore>  (278) 
-4.392

>  <r_i_glide_lipo>  (278) 
-0.0559217

>  <r_i_glide_hbond>  (278) 
0

>  <r_i_glide_metal>  (278) 
-0

>  <r_i_glide_rewards>  (278) 
-2.63779

>  <r_i_glide_evdw>  (278) 
-13.8466

>  <r_i_glide_ecoul>  (278) 
-6.29172

>  <r_i_glide_erotb>  (278) 
0

>  <r_i_glide_esite>  (278) 
-0.0622041

>  <r_i_glide_emodel>  (278) 
-29.7999

>  <r_i_glide_energy>  (278) 
-20.1383

>  <r_i_glide_einternal>  (278) 
0.0851435

>  <r_i_glide_intrahb_reward>  (278) 
-0

>  <i_i_glide_confnum>  (278) 
1

>  <i_i_glide_posenum>  (278) 
12

>  <r_i_glide_eff_state_penalty>  (278) 
0

>  <ligand_id>  (278) 
88

>  <original_smiles>  (278) 
Cc1ccc([N+](=O)[O-])nn1

>  <smiles>  (278) 
[H]c1c([N+](=O)[O-])n[n+]([H])c(C([H])([H])[H])c1[H]

$$$$
88:2:0
     RDKit          3D

 16 16  0  0  1  0  0  0  0  0999 V2000
   -5.3515   -6.7882   -4.7840 C   0  0  0  0  0  0  0  0  0  0  0  0
   -6.5627   -6.1216   -5.3967 C   0  0  0  0  0  0  0  0  0  0  0  0
   -7.0902   -4.9251   -4.8725 C   0  0  0  0  0  0  0  0  0  0  0  0
   -8.2183   -4.3838   -5.5157 C   0  0  0  0  0  0  0  0  0  0  0  0
   -8.7528   -5.0525   -6.6406 C   0  0  0  0  0  0  0  0  0  0  0  0
   -9.9243   -4.5211   -7.3456 N   0  0  0  0  0  0  0  0  0  0  0  0
  -10.3968   -3.4553   -6.9744 O   0  0  0  0  0  0  0  0  0  0  0  0
  -10.3424   -5.1683   -8.2985 O   0  0  0  0  0  0  0  0  0  0  0  0
   -8.1598   -6.1965   -7.0621 N   0  0  0  0  0  0  0  0  0  0  0  0
   -7.0850   -6.7486   -6.4730 N   0  0  0  0  0  0  0  0  0  0  0  0
   -4.9865   -6.2322   -3.9232 H   0  0  0  0  0  0  0  0  0  0  0  0
   -4.5432   -6.8557   -5.5087 H   0  0  0  0  0  0  0  0  0  0  0  0
   -5.5945   -7.7969   -4.4572 H   0  0  0  0  0  0  0  0  0  0  0  0
   -6.6561   -4.4379   -4.0083 H   0  0  0  0  0  0  0  0  0  0  0  0
   -8.6695   -3.4690   -5.1519 H   0  0  0  0  0  0  0  0  0  0  0  0
   -8.5682   -6.6553   -7.8777 H   0  0  0  0  0  0  0  0  0  0  0  0
  1  2  1  0
  1 11  1  0
  1 12  1  0
  1 13  1  0
  2 10  2  0
  2  3  1  0
  3  4  2  0
  3 14  1  0
  4  5  1  0
  4 15  1  0
  5  6  1  0
  5  9  2  0
  6  7  2  0
  6  8  1  0
  9 10  1  0
  9 16  1  0
M  CHG  3   6   1   8  -1   9   1
M  END
>  <i_m_ct_stereo_status>  (279) 
1

>  <s_m_source_file>  (279) 
/var/tmp/pbs.5076255.sched01/tmpinim70aj/80j3ziidn5.sdf

>  <i_m_source_file_index>  (279) 
36

>  <i_lp_mmshare_version>  (279) 
48012

>  <i_f3d_flags>  (279) 
0

>  <s_epik_input>  (279) 
W0NIM11jMVtjSF1bY0hdYyhbTitdKD1PKVtPLV0pbm4x

>  <s_epik_cmdline>  (279) 
J2VwaWtfcHl0aG9uJywgJy1waHQnLCAnMi4wJywgJy1waCcsICc3LjAnLCAnLXRuJywgJzgnLCAnLW1hJywgJzIwMCcsICctaW1hZScsICc8aW5maWxlLm1hZT4nLCAnLW9tYWUnLCAnPG91dGZpbGUubWFlPic=

>  <r_lp_tautomer_probability>  (279) 
0.4912

>  <r_epik_Ionization_Penalty>  (279) 
2.22839

>  <r_epik_Ionization_Penalty_Charging>  (279) 
2.22839

>  <r_epik_Ionization_Penalty_Neutral>  (279) 
1.91944e-13

>  <r_epik_State_Penalty>  (279) 
2.23113

>  <r_epik_Charging_Adjusted_Penalty>  (279) 
4.45953

>  <i_epik_Tot_Q>  (279) 
1

>  <i_epik_Tot_abs_Q>  (279) 
3

>  <s_lp_Force_Field>  (279) 
OPLS3e

>  <r_lp_Energy>  (279) 
17.6152

>  <b_lp_Chiralities_Consistent>  (279) 
1

>  <s_lp_Variant>  (279) 
88:0-3

>  <s_i_glide_gridfile>  (279) 
pfpi4k_grid

>  <i_i_glide_lignum>  (279) 
36

>  <i_i_glide_rotatable_bonds>  (279) 
1

>  <r_i_docking_score>  (279) 
-5.10048

>  <r_i_glide_ligand_efficiency>  (279) 
-0.510048

>  <r_i_glide_ligand_efficiency_sa>  (279) 
-1.09887

>  <r_i_glide_ligand_efficiency_ln>  (279) 
-1.54439

>  <r_i_glide_gscore>  (279) 
-5.10048

>  <r_i_glide_lipo>  (279) 
-1.43927

>  <r_i_glide_hbond>  (279) 
0

>  <r_i_glide_metal>  (279) 
-0

>  <r_i_glide_rewards>  (279) 
-2.4488

>  <r_i_glide_evdw>  (279) 
-19.6139

>  <r_i_glide_ecoul>  (279) 
-1.05488

>  <r_i_glide_erotb>  (279) 
0

>  <r_i_glide_esite>  (279) 
-0.0734744

>  <r_i_glide_emodel>  (279) 
-28.3911

>  <r_i_glide_energy>  (279) 
-20.6688

>  <r_i_glide_einternal>  (279) 
0.00744639

>  <r_i_glide_intrahb_reward>  (279) 
-0

>  <i_i_glide_confnum>  (279) 
1

>  <i_i_glide_posenum>  (279) 
8

>  <r_i_glide_eff_state_penalty>  (279) 
0

>  <ligand_id>  (279) 
88

>  <original_smiles>  (279) 
Cc1ccc([N+](=O)[O-])nn1

>  <smiles>  (279) 
[H]c1c(C([H])([H])[H])n[n+]([H])c([N+](=O)[O-])c1[H]

$$$$
88:2:1
     RDKit          3D

 16 16  0  0  1  0  0  0  0  0999 V2000
    4.4339   -3.3690   -0.4547 C   0  0  0  0  0  0  0  0  0  0  0  0
    3.9892   -2.4888   -1.6042 C   0  0  0  0  0  0  0  0  0  0  0  0
    2.9806   -2.8997   -2.4918 C   0  0  0  0  0  0  0  0  0  0  0  0
    2.6356   -2.0175   -3.5298 C   0  0  0  0  0  0  0  0  0  0  0  0
    3.3003   -0.7703   -3.6231 C   0  0  0  0  0  0  0  0  0  0  0  0
    2.9567    0.1755   -4.6886 N   0  0  0  0  0  0  0  0  0  0  0  0
    1.8167    0.1948   -5.1199 O   0  0  0  0  0  0  0  0  0  0  0  0
    3.8406    0.9308   -5.0652 O   0  0  0  0  0  0  0  0  0  0  0  0
    4.2545   -0.4708   -2.7141 N   0  0  0  0  0  0  0  0  0  0  0  0
    4.6252   -1.3012   -1.7212 N   0  0  0  0  0  0  0  0  0  0  0  0
    3.8886   -4.3111   -0.4363 H   0  0  0  0  0  0  0  0  0  0  0  0
    4.2770   -2.8595    0.4981 H   0  0  0  0  0  0  0  0  0  0  0  0
    5.4982   -3.5924   -0.5450 H   0  0  0  0  0  0  0  0  0  0  0  0
    2.4667   -3.8479   -2.3782 H   0  0  0  0  0  0  0  0  0  0  0  0
    1.8583   -2.2951   -4.2279 H   0  0  0  0  0  0  0  0  0  0  0  0
    4.6860    0.4566   -2.7993 H   0  0  0  0  0  0  0  0  0  0  0  0
  1  2  1  0
  1 11  1  0
  1 12  1  0
  1 13  1  0
  2 10  2  0
  2  3  1  0
  3  4  2  0
  3 14  1  0
  4  5  1  0
  4 15  1  0
  5  6  1  0
  5  9  2  0
  6  7  2  0
  6  8  1  0
  9 10  1  0
  9 16  1  0
M  CHG  3   6   1   8  -1   9   1
M  END
>  <i_m_ct_stereo_status>  (280) 
1

>  <s_m_source_file>  (280) 
/var/tmp/pbs.5076255.sched01/tmpinim70aj/80j3ziidn5.sdf

>  <i_m_source_file_index>  (280) 
36

>  <i_lp_mmshare_version>  (280) 
48012

>  <i_f3d_flags>  (280) 
0

>  <s_epik_input>  (280) 
W0NIM11jMVtjSF1bY0hdYyhbTitdKD1PKVtPLV0pbm4x

>  <s_epik_cmdline>  (280) 
J2VwaWtfcHl0aG9uJywgJy1waHQnLCAnMi4wJywgJy1waCcsICc3LjAnLCAnLXRuJywgJzgnLCAnLW1hJywgJzIwMCcsICctaW1hZScsICc8aW5maWxlLm1hZT4nLCAnLW9tYWUnLCAnPG91dGZpbGUubWFlPic=

>  <r_lp_tautomer_probability>  (280) 
0.4912

>  <r_epik_Ionization_Penalty>  (280) 
2.22839

>  <r_epik_Ionization_Penalty_Charging>  (280) 
2.22839

>  <r_epik_Ionization_Penalty_Neutral>  (280) 
1.91944e-13

>  <r_epik_State_Penalty>  (280) 
2.23113

>  <r_epik_Charging_Adjusted_Penalty>  (280) 
4.45953

>  <i_epik_Tot_Q>  (280) 
1

>  <i_epik_Tot_abs_Q>  (280) 
3

>  <s_lp_Force_Field>  (280) 
OPLS3e

>  <r_lp_Energy>  (280) 
17.6152

>  <b_lp_Chiralities_Consistent>  (280) 
1

>  <s_lp_Variant>  (280) 
88:0-3

>  <s_i_glide_gridfile>  (280) 
pfpi4k_grid

>  <i_i_glide_lignum>  (280) 
36

>  <i_i_glide_rotatable_bonds>  (280) 
1

>  <r_i_docking_score>  (280) 
-4.57532

>  <r_i_glide_ligand_efficiency>  (280) 
-0.457532

>  <r_i_glide_ligand_efficiency_sa>  (280) 
-0.985722

>  <r_i_glide_ligand_efficiency_ln>  (280) 
-1.38537

>  <r_i_glide_gscore>  (280) 
-4.57532

>  <r_i_glide_lipo>  (280) 
-0.484373

>  <r_i_glide_hbond>  (280) 
0

>  <r_i_glide_metal>  (280) 
-0

>  <r_i_glide_rewards>  (280) 
-2.3019

>  <r_i_glide_evdw>  (280) 
-16.8054

>  <r_i_glide_ecoul>  (280) 
-6.20246

>  <r_i_glide_erotb>  (280) 
0

>  <r_i_glide_esite>  (280) 
-0.018403

>  <r_i_glide_emodel>  (280) 
-29.2257

>  <r_i_glide_energy>  (280) 
-23.0078

>  <r_i_glide_einternal>  (280) 
1.03528

>  <r_i_glide_intrahb_reward>  (280) 
-0

>  <i_i_glide_confnum>  (280) 
1

>  <i_i_glide_posenum>  (280) 
3

>  <r_i_glide_eff_state_penalty>  (280) 
0

>  <ligand_id>  (280) 
88

>  <original_smiles>  (280) 
Cc1ccc([N+](=O)[O-])nn1

>  <smiles>  (280) 
[H]c1c(C([H])([H])[H])n[n+]([H])c([N+](=O)[O-])c1[H]

$$$$
88:2:2
     RDKit          3D

 16 16  0  0  1  0  0  0  0  0999 V2000
    3.5810   -0.1243   -4.6132 C   0  0  0  0  0  0  0  0  0  0  0  0
    3.4797   -1.0753   -3.4397 C   0  0  0  0  0  0  0  0  0  0  0  0
    2.6314   -2.1956   -3.4667 C   0  0  0  0  0  0  0  0  0  0  0  0
    2.5905   -3.0062   -2.3202 C   0  0  0  0  0  0  0  0  0  0  0  0
    3.4066   -2.6725   -1.2180 C   0  0  0  0  0  0  0  0  0  0  0  0
    3.3930   -3.4935   -0.0011 N   0  0  0  0  0  0  0  0  0  0  0  0
    2.5876   -4.4193    0.0791 O   0  0  0  0  0  0  0  0  0  0  0  0
    4.1973   -3.1980    0.8736 O   0  0  0  0  0  0  0  0  0  0  0  0
    4.1975   -1.5741   -1.2991 N   0  0  0  0  0  0  0  0  0  0  0  0
    4.2673   -0.7798   -2.3810 N   0  0  0  0  0  0  0  0  0  0  0  0
    2.9291   -0.4200   -5.4340 H   0  0  0  0  0  0  0  0  0  0  0  0
    4.6043   -0.1057   -4.9806 H   0  0  0  0  0  0  0  0  0  0  0  0
    3.3153    0.8913   -4.3193 H   0  0  0  0  0  0  0  0  0  0  0  0
    1.9892   -2.4103   -4.3086 H   0  0  0  0  0  0  0  0  0  0  0  0
    1.9142   -3.8555   -2.2864 H   0  0  0  0  0  0  0  0  0  0  0  0
    4.7651   -1.3601   -0.4735 H   0  0  0  0  0  0  0  0  0  0  0  0
  1  2  1  0
  1 11  1  0
  1 12  1  0
  1 13  1  0
  2 10  2  0
  2  3  1  0
  3  4  2  0
  3 14  1  0
  4  5  1  0
  4 15  1  0
  5  6  1  0
  5  9  2  0
  6  7  2  0
  6  8  1  0
  9 10  1  0
  9 16  1  0
M  CHG  3   6   1   8  -1   9   1
M  END
>  <i_m_ct_stereo_status>  (281) 
1

>  <s_m_source_file>  (281) 
/var/tmp/pbs.5076255.sched01/tmpinim70aj/80j3ziidn5.sdf

>  <i_m_source_file_index>  (281) 
36

>  <i_lp_mmshare_version>  (281) 
48012

>  <i_f3d_flags>  (281) 
0

>  <s_epik_input>  (281) 
W0NIM11jMVtjSF1bY0hdYyhbTitdKD1PKVtPLV0pbm4x

>  <s_epik_cmdline>  (281) 
J2VwaWtfcHl0aG9uJywgJy1waHQnLCAnMi4wJywgJy1waCcsICc3LjAnLCAnLXRuJywgJzgnLCAnLW1hJywgJzIwMCcsICctaW1hZScsICc8aW5maWxlLm1hZT4nLCAnLW9tYWUnLCAnPG91dGZpbGUubWFlPic=

>  <r_lp_tautomer_probability>  (281) 
0.4912

>  <r_epik_Ionization_Penalty>  (281) 
2.22839

>  <r_epik_Ionization_Penalty_Charging>  (281) 
2.22839

>  <r_epik_Ionization_Penalty_Neutral>  (281) 
1.91944e-13

>  <r_epik_State_Penalty>  (281) 
2.23113

>  <r_epik_Charging_Adjusted_Penalty>  (281) 
4.45953

>  <i_epik_Tot_Q>  (281) 
1

>  <i_epik_Tot_abs_Q>  (281) 
3

>  <s_lp_Force_Field>  (281) 
OPLS3e

>  <r_lp_Energy>  (281) 
17.6152

>  <b_lp_Chiralities_Consistent>  (281) 
1

>  <s_lp_Variant>  (281) 
88:0-3

>  <s_i_glide_gridfile>  (281) 
pfpi4k_grid

>  <i_i_glide_lignum>  (281) 
36

>  <i_i_glide_rotatable_bonds>  (281) 
1

>  <r_i_docking_score>  (281) 
-4.55697

>  <r_i_glide_ligand_efficiency>  (281) 
-0.455697

>  <r_i_glide_ligand_efficiency_sa>  (281) 
-0.981769

>  <r_i_glide_ligand_efficiency_ln>  (281) 
-1.37982

>  <r_i_glide_gscore>  (281) 
-4.55697

>  <r_i_glide_lipo>  (281) 
-0.640241

>  <r_i_glide_hbond>  (281) 
0

>  <r_i_glide_metal>  (281) 
-0

>  <r_i_glide_rewards>  (281) 
-2.25503

>  <r_i_glide_evdw>  (281) 
-16.0667

>  <r_i_glide_ecoul>  (281) 
-5.13841

>  <r_i_glide_erotb>  (281) 
0

>  <r_i_glide_esite>  (281) 
-0.0875988

>  <r_i_glide_emodel>  (281) 
-28.0872

>  <r_i_glide_energy>  (281) 
-21.2051

>  <r_i_glide_einternal>  (281) 
0.0289308

>  <r_i_glide_intrahb_reward>  (281) 
-0

>  <i_i_glide_confnum>  (281) 
1

>  <i_i_glide_posenum>  (281) 
6

>  <r_i_glide_eff_state_penalty>  (281) 
0

>  <ligand_id>  (281) 
88

>  <original_smiles>  (281) 
Cc1ccc([N+](=O)[O-])nn1

>  <smiles>  (281) 
[H]c1c(C([H])([H])[H])n[n+]([H])c([N+](=O)[O-])c1[H]

$$$$
89:0:0
     RDKit          3D

 42 44  0  0  1  0  0  0  0  0999 V2000
    0.3800   -6.8442    7.1867 C   0  0  0  0  0  0  0  0  0  0  0  0
    0.5952   -5.8945    6.0114 C   0  0  0  0  0  0  0  0  0  0  0  0
   -0.1722   -4.9499    5.8245 O   0  0  0  0  0  0  0  0  0  0  0  0
    1.7887   -6.1697    5.0790 C   0  0  2  0  0  0  0  0  0  0  0  0
    2.9897   -5.2596    5.4130 C   0  0  0  0  0  0  0  0  0  0  0  0
    3.4205   -5.1632    6.8650 C   0  0  0  0  0  0  0  0  0  0  0  0
    3.6752   -4.6305    4.5480 N   0  0  0  0  0  0  0  0  0  0  0  0
    3.4642   -4.7678    3.1809 C   0  0  0  0  0  0  0  0  0  0  0  0
    4.0676   -3.8580    2.3878 C   0  0  0  0  0  0  0  0  0  0  0  0
    3.9839   -3.8369    0.8731 C   0  0  1  0  0  0  0  0  0  0  0  0
    5.3482   -3.4923    0.2563 C   0  0  0  0  0  0  0  0  0  0  0  0
    3.4314   -5.1611    0.3130 C   0  0  0  0  0  0  0  0  0  0  0  0
    2.2693   -5.6724    1.1587 C   0  0  0  0  0  0  0  0  0  0  0  0
    1.1602   -5.8595    0.6606 O   0  0  0  0  0  0  0  0  0  0  0  0
    2.5941   -5.9150    2.6495 C   0  0  2  0  0  0  0  0  0  0  0  0
    1.3649   -6.1061    3.5783 C   0  0  1  0  0  0  0  0  0  0  0  0
    0.5121   -7.3196    3.2019 C   0  0  0  0  0  0  0  0  0  0  0  0
    1.0376   -8.6302    3.2407 C   0  0  0  0  0  0  0  0  0  0  0  0
    0.2050   -9.7061    2.8813 C   0  0  0  0  0  0  0  0  0  0  0  0
   -1.1156   -9.4321    2.4847 C   0  0  0  0  0  0  0  0  0  0  0  0
   -1.5530   -8.0967    2.4911 C   0  0  0  0  0  0  0  0  0  0  0  0
   -0.7686   -7.0552    2.8440 N   0  0  0  0  0  0  0  0  0  0  0  0
    0.2268   -7.8656    6.8340 H   0  0  0  0  0  0  0  0  0  0  0  0
   -0.5024   -6.5383    7.7478 H   0  0  0  0  0  0  0  0  0  0  0  0
    1.2371   -6.8335    7.8608 H   0  0  0  0  0  0  0  0  0  0  0  0
    3.6574   -6.1467    7.2705 H   0  0  0  0  0  0  0  0  0  0  0  0
    2.6644   -4.6796    7.4806 H   0  0  0  0  0  0  0  0  0  0  0  0
    4.3270   -4.5618    6.9377 H   0  0  0  0  0  0  0  0  0  0  0  0
    4.6565   -3.0696    2.8302 H   0  0  0  0  0  0  0  0  0  0  0  0
    2.1341   -7.1822    5.2858 H   0  0  0  0  0  0  0  0  0  0  0  0
    3.2894   -3.0343    0.6159 H   0  0  0  0  0  0  0  0  0  0  0  0
    5.6901   -2.5124    0.5931 H   0  0  0  0  0  0  0  0  0  0  0  0
    5.2895   -3.4662   -0.8315 H   0  0  0  0  0  0  0  0  0  0  0  0
    6.1077   -4.2240    0.5372 H   0  0  0  0  0  0  0  0  0  0  0  0
    3.1191   -5.0346   -0.7210 H   0  0  0  0  0  0  0  0  0  0  0  0
    4.2098   -5.9235    0.3330 H   0  0  0  0  0  0  0  0  0  0  0  0
    3.2034   -6.8172    2.6909 H   0  0  0  0  0  0  0  0  0  0  0  0
    0.7493   -5.2116    3.4424 H   0  0  0  0  0  0  0  0  0  0  0  0
    2.0590   -8.8113    3.5376 H   0  0  0  0  0  0  0  0  0  0  0  0
    0.5662  -10.7257    2.9018 H   0  0  0  0  0  0  0  0  0  0  0  0
   -1.7829  -10.2281    2.1938 H   0  0  0  0  0  0  0  0  0  0  0  0
   -2.5669   -7.8559    2.2056 H   0  0  0  0  0  0  0  0  0  0  0  0
  1  2  1  0
  1 23  1  0
  1 24  1  0
  1 25  1  0
  2  3  2  0
  2  4  1  0
  4 16  1  0
  4 30  1  1
  4  5  1  0
  5  6  1  0
  5  7  2  0
  6 26  1  0
  6 27  1  0
  6 28  1  0
  7  8  1  0
  8 15  1  0
  8  9  2  0
  9 10  1  0
  9 29  1  0
 10 11  1  0
 10 12  1  0
 10 31  1  1
 11 32  1  0
 11 33  1  0
 11 34  1  0
 12 13  1  0
 12 35  1  0
 12 36  1  0
 13 14  2  0
 13 15  1  0
 15 16  1  0
 15 37  1  6
 16 17  1  0
 16 38  1  1
 17 22  1  0
 17 18  2  0
 18 19  1  0
 18 39  1  0
 19 20  2  0
 19 40  1  0
 20 21  1  0
 20 41  1  0
 21 22  2  0
 21 42  1  0
M  END
>  <i_m_ct_stereo_status>  (282) 
1

>  <s_m_source_file>  (282) 
/var/tmp/pbs.5076255.sched01/tmpinim70aj/80j3ziidn5.sdf

>  <i_m_source_file_index>  (282) 
37

>  <i_lp_mmshare_version>  (282) 
48012

>  <i_f3d_flags>  (282) 
0

>  <s_epik_input>  (282) 
W0NIMl0xW0NAQEhdKFtDSDNdKVtDSDJdQyg9TylbQ0BASF0oQzEyKVtDQEhdKEMoQyg9TylbQ0gzXSk9QyhOPTIpW0NIM10pYzNbY0hdW2NIXVtjSF1bY0hdbjM=

>  <s_epik_cmdline>  (282) 
J2VwaWtfcHl0aG9uJywgJy1waHQnLCAnMi4wJywgJy1waCcsICc3LjAnLCAnLXRuJywgJzgnLCAnLW1hJywgJzIwMCcsICctaW1hZScsICc8aW5maWxlLm1hZT4nLCAnLW9tYWUnLCAnPG91dGZpbGUubWFlPic=

>  <r_lp_tautomer_probability>  (282) 
0.499981

>  <r_epik_Ionization_Penalty>  (282) 
0.000526835

>  <r_epik_Ionization_Penalty_Charging>  (282) 
0

>  <r_epik_Ionization_Penalty_Neutral>  (282) 
0.000526835

>  <r_epik_State_Penalty>  (282) 
0.389633

>  <r_epik_Charging_Adjusted_Penalty>  (282) 
0.389633

>  <i_epik_Tot_Q>  (282) 
0

>  <i_epik_Tot_abs_Q>  (282) 
0

>  <s_epik_Chemistry_Notes>  (282) 
This compound has an imine and may undergo hydrolysis.

>  <s_lp_Force_Field>  (282) 
OPLS3e

>  <r_lp_Energy>  (282) 
17.1824

>  <b_lp_Chiralities_Consistent>  (282) 
1

>  <s_lp_Variant>  (282) 
89:0-1

>  <s_i_glide_gridfile>  (282) 
pfpi4k_grid

>  <i_i_glide_lignum>  (282) 
37

>  <i_i_glide_rotatable_bonds>  (282) 
2

>  <r_i_docking_score>  (282) 
-3.6727

>  <r_i_glide_ligand_efficiency>  (282) 
-0.166941

>  <r_i_glide_ligand_efficiency_sa>  (282) 
-0.467775

>  <r_i_glide_ligand_efficiency_ln>  (282) 
-0.897743

>  <r_i_glide_gscore>  (282) 
-3.6727

>  <r_i_glide_lipo>  (282) 
-0.270393

>  <r_i_glide_hbond>  (282) 
-0.316331

>  <r_i_glide_metal>  (282) 
-0

>  <r_i_glide_rewards>  (282) 
-1.38843

>  <r_i_glide_evdw>  (282) 
-19.0582

>  <r_i_glide_ecoul>  (282) 
-6.10176

>  <r_i_glide_erotb>  (282) 
0.208568

>  <r_i_glide_esite>  (282) 
-0.037941

>  <r_i_glide_emodel>  (282) 
-31.0183

>  <r_i_glide_energy>  (282) 
-25.16

>  <r_i_glide_einternal>  (282) 
1.91645

>  <r_i_glide_intrahb_reward>  (282) 
-0

>  <i_i_glide_confnum>  (282) 
2

>  <i_i_glide_posenum>  (282) 
1

>  <r_i_glide_eff_state_penalty>  (282) 
0

>  <ligand_id>  (282) 
89

>  <original_smiles>  (282) 
CC(=O)C1=C(C)N=C2CC(C)CC(=O)C2C1c1ccccn1

>  <smiles>  (282) 
[H]C1=C2N=C(C([H])([H])[H])C([H])(C(=O)C([H])([H])[H])C([H])(c3nc([H])c([H])c([H])c3[H])C2([H])C(=O)C([H])([H])C1([H])C([H])([H])[H]

$$$$
89:0:1
     RDKit          3D

 42 44  0  0  1  0  0  0  0  0999 V2000
    0.0624   -3.9388    5.6801 C   0  0  0  0  0  0  0  0  0  0  0  0
    0.6160   -5.3566    5.8273 C   0  0  0  0  0  0  0  0  0  0  0  0
    0.0734   -6.1725    6.5679 O   0  0  0  0  0  0  0  0  0  0  0  0
    1.8659   -5.7431    5.0237 C   0  0  2  0  0  0  0  0  0  0  0  0
    3.0619   -4.8317    5.3739 C   0  0  0  0  0  0  0  0  0  0  0  0
    3.3729   -4.6119    6.8453 C   0  0  0  0  0  0  0  0  0  0  0  0
    3.8158   -4.2851    4.5148 N   0  0  0  0  0  0  0  0  0  0  0  0
    3.6972   -4.5363    3.1513 C   0  0  0  0  0  0  0  0  0  0  0  0
    4.3724   -3.7055    2.3308 C   0  0  0  0  0  0  0  0  0  0  0  0
    4.3995   -3.8219    0.8167 C   0  0  1  0  0  0  0  0  0  0  0  0
    5.8150   -3.5515    0.2794 C   0  0  0  0  0  0  0  0  0  0  0  0
    3.8560   -5.1827    0.3375 C   0  0  0  0  0  0  0  0  0  0  0  0
    2.6229   -5.6062    1.1324 C   0  0  0  0  0  0  0  0  0  0  0  0
    1.5468   -5.8510    0.5824 O   0  0  0  0  0  0  0  0  0  0  0  0
    2.8465   -5.7154    2.6557 C   0  0  2  0  0  0  0  0  0  0  0  0
    1.5542   -5.8149    3.4998 C   0  0  1  0  0  0  0  0  0  0  0  0
    0.7074   -7.0452    3.1657 C   0  0  0  0  0  0  0  0  0  0  0  0
    1.2456   -8.3497    3.2266 C   0  0  0  0  0  0  0  0  0  0  0  0
    0.4141   -9.4399    2.9027 C   0  0  0  0  0  0  0  0  0  0  0  0
   -0.9195   -9.1864    2.5416 C   0  0  0  0  0  0  0  0  0  0  0  0
   -1.3663   -7.8548    2.5197 C   0  0  0  0  0  0  0  0  0  0  0  0
   -0.5776   -6.8000    2.8207 N   0  0  0  0  0  0  0  0  0  0  0  0
    0.8067   -3.1996    5.9817 H   0  0  0  0  0  0  0  0  0  0  0  0
   -0.8281   -3.8090    6.2965 H   0  0  0  0  0  0  0  0  0  0  0  0
   -0.2035   -3.7438    4.6426 H   0  0  0  0  0  0  0  0  0  0  0  0
    3.5492   -5.5571    7.3578 H   0  0  0  0  0  0  0  0  0  0  0  0
    2.5800   -4.0679    7.3527 H   0  0  0  0  0  0  0  0  0  0  0  0
    4.2782   -4.0112    6.9376 H   0  0  0  0  0  0  0  0  0  0  0  0
    4.9468   -2.8891    2.7486 H   0  0  0  0  0  0  0  0  0  0  0  0
    2.1548   -6.7412    5.3530 H   0  0  0  0  0  0  0  0  0  0  0  0
    3.7454   -3.0336    0.4413 H   0  0  0  0  0  0  0  0  0  0  0  0
    6.1504   -2.5502    0.5520 H   0  0  0  0  0  0  0  0  0  0  0  0
    5.8420   -3.6195   -0.8076 H   0  0  0  0  0  0  0  0  0  0  0  0
    6.5394   -4.2624    0.6810 H   0  0  0  0  0  0  0  0  0  0  0  0
    3.6331   -5.1418   -0.7220 H   0  0  0  0  0  0  0  0  0  0  0  0
    4.6163   -5.9483    0.4849 H   0  0  0  0  0  0  0  0  0  0  0  0
    3.4388   -6.6129    2.8169 H   0  0  0  0  0  0  0  0  0  0  0  0
    0.9647   -4.9361    3.2354 H   0  0  0  0  0  0  0  0  0  0  0  0
    2.2719   -8.5105    3.5117 H   0  0  0  0  0  0  0  0  0  0  0  0
    0.7885  -10.4560    2.9328 H   0  0  0  0  0  0  0  0  0  0  0  0
   -1.5929   -9.9932    2.2908 H   0  0  0  0  0  0  0  0  0  0  0  0
   -2.3869   -7.6279    2.2590 H   0  0  0  0  0  0  0  0  0  0  0  0
  1  2  1  0
  1 23  1  0
  1 24  1  0
  1 25  1  0
  2  3  2  0
  2  4  1  0
  4 16  1  0
  4 30  1  1
  4  5  1  0
  5  6  1  0
  5  7  2  0
  6 26  1  0
  6 27  1  0
  6 28  1  0
  7  8  1  0
  8 15  1  0
  8  9  2  0
  9 10  1  0
  9 29  1  0
 10 11  1  0
 10 12  1  0
 10 31  1  6
 11 32  1  0
 11 33  1  0
 11 34  1  0
 12 13  1  0
 12 35  1  0
 12 36  1  0
 13 14  2  0
 13 15  1  0
 15 16  1  0
 15 37  1  6
 16 17  1  0
 16 38  1  6
 17 22  1  0
 17 18  2  0
 18 19  1  0
 18 39  1  0
 19 20  2  0
 19 40  1  0
 20 21  1  0
 20 41  1  0
 21 22  2  0
 21 42  1  0
M  END
>  <i_m_ct_stereo_status>  (283) 
1

>  <s_m_source_file>  (283) 
/var/tmp/pbs.5076255.sched01/tmpinim70aj/80j3ziidn5.sdf

>  <i_m_source_file_index>  (283) 
37

>  <i_lp_mmshare_version>  (283) 
48012

>  <i_f3d_flags>  (283) 
0

>  <s_epik_input>  (283) 
W0NIMl0xW0NAQEhdKFtDSDNdKVtDSDJdQyg9TylbQ0BASF0oQzEyKVtDQEhdKEMoQyg9TylbQ0gzXSk9QyhOPTIpW0NIM10pYzNbY0hdW2NIXVtjSF1bY0hdbjM=

>  <s_epik_cmdline>  (283) 
J2VwaWtfcHl0aG9uJywgJy1waHQnLCAnMi4wJywgJy1waCcsICc3LjAnLCAnLXRuJywgJzgnLCAnLW1hJywgJzIwMCcsICctaW1hZScsICc8aW5maWxlLm1hZT4nLCAnLW9tYWUnLCAnPG91dGZpbGUubWFlPic=

>  <r_lp_tautomer_probability>  (283) 
0.499981

>  <r_epik_Ionization_Penalty>  (283) 
0.000526835

>  <r_epik_Ionization_Penalty_Charging>  (283) 
0

>  <r_epik_Ionization_Penalty_Neutral>  (283) 
0.000526835

>  <r_epik_State_Penalty>  (283) 
0.389633

>  <r_epik_Charging_Adjusted_Penalty>  (283) 
0.389633

>  <i_epik_Tot_Q>  (283) 
0

>  <i_epik_Tot_abs_Q>  (283) 
0

>  <s_epik_Chemistry_Notes>  (283) 
This compound has an imine and may undergo hydrolysis.

>  <s_lp_Force_Field>  (283) 
OPLS3e

>  <r_lp_Energy>  (283) 
17.1824

>  <b_lp_Chiralities_Consistent>  (283) 
1

>  <s_lp_Variant>  (283) 
89:0-1

>  <s_i_glide_gridfile>  (283) 
pfpi4k_grid

>  <i_i_glide_lignum>  (283) 
37

>  <i_i_glide_rotatable_bonds>  (283) 
2

>  <r_i_docking_score>  (283) 
-3.64351

>  <r_i_glide_ligand_efficiency>  (283) 
-0.165614

>  <r_i_glide_ligand_efficiency_sa>  (283) 
-0.464058

>  <r_i_glide_ligand_efficiency_ln>  (283) 
-0.890608

>  <r_i_glide_gscore>  (283) 
-3.64351

>  <r_i_glide_lipo>  (283) 
-0.228905

>  <r_i_glide_hbond>  (283) 
-0.308903

>  <r_i_glide_metal>  (283) 
-0

>  <r_i_glide_rewards>  (283) 
-1.38843

>  <r_i_glide_evdw>  (283) 
-18.9583

>  <r_i_glide_ecoul>  (283) 
-6.35371

>  <r_i_glide_erotb>  (283) 
0.208568

>  <r_i_glide_esite>  (283) 
-0.0248747

>  <r_i_glide_emodel>  (283) 
-30.7974

>  <r_i_glide_energy>  (283) 
-25.312

>  <r_i_glide_einternal>  (283) 
2.51309

>  <r_i_glide_intrahb_reward>  (283) 
-0

>  <i_i_glide_confnum>  (283) 
4

>  <i_i_glide_posenum>  (283) 
15

>  <r_i_glide_eff_state_penalty>  (283) 
0

>  <ligand_id>  (283) 
89

>  <original_smiles>  (283) 
CC(=O)C1=C(C)N=C2CC(C)CC(=O)C2C1c1ccccn1

>  <smiles>  (283) 
[H]C1=C2N=C(C([H])([H])[H])C([H])(C(=O)C([H])([H])[H])C([H])(c3nc([H])c([H])c([H])c3[H])C2([H])C(=O)C([H])([H])C1([H])C([H])([H])[H]

$$$$
89:0:2
     RDKit          3D

 42 44  0  0  1  0  0  0  0  0999 V2000
    5.5766   -9.8564    1.0383 C   0  0  0  0  0  0  0  0  0  0  0  0
    5.8181   -8.6623    1.9534 C   0  0  0  0  0  0  0  0  0  0  0  0
    6.9211   -8.1243    2.0086 O   0  0  0  0  0  0  0  0  0  0  0  0
    4.6387   -8.1292    2.7787 C   0  0  2  0  0  0  0  0  0  0  0  0
    3.9672   -9.2484    3.6068 C   0  0  0  0  0  0  0  0  0  0  0  0
    4.8672  -10.1513    4.4326 C   0  0  0  0  0  0  0  0  0  0  0  0
    2.7141   -9.4356    3.6679 N   0  0  0  0  0  0  0  0  0  0  0  0
    1.7991   -8.5846    3.0594 C   0  0  0  0  0  0  0  0  0  0  0  0
    0.5271   -9.0298    2.9789 C   0  0  0  0  0  0  0  0  0  0  0  0
   -0.6270   -8.2372    2.3881 C   0  0  1  0  0  0  0  0  0  0  0  0
   -1.8913   -8.4035    3.2386 C   0  0  0  0  0  0  0  0  0  0  0  0
   -0.2654   -6.7540    2.2012 C   0  0  0  0  0  0  0  0  0  0  0  0
    1.1495   -6.6029    1.6583 C   0  0  0  0  0  0  0  0  0  0  0  0
    1.3501   -6.0007    0.6039 O   0  0  0  0  0  0  0  0  0  0  0  0
    2.2546   -7.2143    2.5402 C   0  0  2  0  0  0  0  0  0  0  0  0
    3.6489   -7.3343    1.8747 C   0  0  1  0  0  0  0  0  0  0  0  0
    4.2313   -5.9833    1.4516 C   0  0  0  0  0  0  0  0  0  0  0  0
    4.5405   -5.7308    0.0999 C   0  0  0  0  0  0  0  0  0  0  0  0
    5.0512   -4.4702   -0.2593 C   0  0  0  0  0  0  0  0  0  0  0  0
    5.2590   -3.5179    0.7551 C   0  0  0  0  0  0  0  0  0  0  0  0
    4.9311   -3.8656    2.0790 C   0  0  0  0  0  0  0  0  0  0  0  0
    4.4295   -5.0709    2.4282 N   0  0  0  0  0  0  0  0  0  0  0  0
    5.2593  -10.7192    1.6215 H   0  0  0  0  0  0  0  0  0  0  0  0
    6.4799  -10.1340    0.4937 H   0  0  0  0  0  0  0  0  0  0  0  0
    4.7782   -9.6326    0.3319 H   0  0  0  0  0  0  0  0  0  0  0  0
    5.4749   -9.5715    5.1282 H   0  0  0  0  0  0  0  0  0  0  0  0
    5.5199  -10.7619    3.8116 H   0  0  0  0  0  0  0  0  0  0  0  0
    4.2542  -10.8410    5.0146 H   0  0  0  0  0  0  0  0  0  0  0  0
    0.2761  -10.0124    3.3587 H   0  0  0  0  0  0  0  0  0  0  0  0
    5.0581   -7.4370    3.5080 H   0  0  0  0  0  0  0  0  0  0  0  0
   -0.8400   -8.6598    1.4057 H   0  0  0  0  0  0  0  0  0  0  0  0
   -2.1868   -9.4519    3.2778 H   0  0  0  0  0  0  0  0  0  0  0  0
   -2.7147   -7.8426    2.8077 H   0  0  0  0  0  0  0  0  0  0  0  0
   -1.7414   -8.0682    4.2661 H   0  0  0  0  0  0  0  0  0  0  0  0
   -0.9774   -6.2806    1.5280 H   0  0  0  0  0  0  0  0  0  0  0  0
   -0.3009   -6.2485    3.1681 H   0  0  0  0  0  0  0  0  0  0  0  0
    2.3496   -6.5682    3.4119 H   0  0  0  0  0  0  0  0  0  0  0  0
    3.4976   -7.9069    0.9586 H   0  0  0  0  0  0  0  0  0  0  0  0
    4.3595   -6.4730   -0.6613 H   0  0  0  0  0  0  0  0  0  0  0  0
    5.2798   -4.2396   -1.2916 H   0  0  0  0  0  0  0  0  0  0  0  0
    5.6516   -2.5354    0.5242 H   0  0  0  0  0  0  0  0  0  0  0  0
    5.0740   -3.1589    2.8822 H   0  0  0  0  0  0  0  0  0  0  0  0
  1  2  1  0
  1 23  1  0
  1 24  1  0
  1 25  1  0
  2  3  2  0
  2  4  1  0
  4 16  1  0
  4 30  1  1
  4  5  1  0
  5  6  1  0
  5  7  2  0
  6 26  1  0
  6 27  1  0
  6 28  1  0
  7  8  1  0
  8 15  1  0
  8  9  2  0
  9 10  1  0
  9 29  1  0
 10 11  1  0
 10 12  1  0
 10 31  1  6
 11 32  1  0
 11 33  1  0
 11 34  1  0
 12 13  1  0
 12 35  1  0
 12 36  1  0
 13 14  2  0
 13 15  1  0
 15 16  1  0
 15 37  1  1
 16 17  1  0
 16 38  1  6
 17 22  1  0
 17 18  2  0
 18 19  1  0
 18 39  1  0
 19 20  2  0
 19 40  1  0
 20 21  1  0
 20 41  1  0
 21 22  2  0
 21 42  1  0
M  END
>  <i_m_ct_stereo_status>  (284) 
1

>  <s_m_source_file>  (284) 
/var/tmp/pbs.5076255.sched01/tmpinim70aj/80j3ziidn5.sdf

>  <i_m_source_file_index>  (284) 
37

>  <i_lp_mmshare_version>  (284) 
48012

>  <i_f3d_flags>  (284) 
0

>  <s_epik_input>  (284) 
W0NIMl0xW0NAQEhdKFtDSDNdKVtDSDJdQyg9TylbQ0BASF0oQzEyKVtDQEhdKEMoQyg9TylbQ0gzXSk9QyhOPTIpW0NIM10pYzNbY0hdW2NIXVtjSF1bY0hdbjM=

>  <s_epik_cmdline>  (284) 
J2VwaWtfcHl0aG9uJywgJy1waHQnLCAnMi4wJywgJy1waCcsICc3LjAnLCAnLXRuJywgJzgnLCAnLW1hJywgJzIwMCcsICctaW1hZScsICc8aW5maWxlLm1hZT4nLCAnLW9tYWUnLCAnPG91dGZpbGUubWFlPic=

>  <r_lp_tautomer_probability>  (284) 
0.499981

>  <r_epik_Ionization_Penalty>  (284) 
0.000526835

>  <r_epik_Ionization_Penalty_Charging>  (284) 
0

>  <r_epik_Ionization_Penalty_Neutral>  (284) 
0.000526835

>  <r_epik_State_Penalty>  (284) 
0.389633

>  <r_epik_Charging_Adjusted_Penalty>  (284) 
0.389633

>  <i_epik_Tot_Q>  (284) 
0

>  <i_epik_Tot_abs_Q>  (284) 
0

>  <s_epik_Chemistry_Notes>  (284) 
This compound has an imine and may undergo hydrolysis.

>  <s_lp_Force_Field>  (284) 
OPLS3e

>  <r_lp_Energy>  (284) 
17.1824

>  <b_lp_Chiralities_Consistent>  (284) 
1

>  <s_lp_Variant>  (284) 
89:0-1

>  <s_i_glide_gridfile>  (284) 
pfpi4k_grid

>  <i_i_glide_lignum>  (284) 
37

>  <i_i_glide_rotatable_bonds>  (284) 
2

>  <r_i_docking_score>  (284) 
-3.03529

>  <r_i_glide_ligand_efficiency>  (284) 
-0.137968

>  <r_i_glide_ligand_efficiency_sa>  (284) 
-0.386592

>  <r_i_glide_ligand_efficiency_ln>  (284) 
-0.741937

>  <r_i_glide_gscore>  (284) 
-3.03529

>  <r_i_glide_lipo>  (284) 
-0.2459

>  <r_i_glide_hbond>  (284) 
-0.16

>  <r_i_glide_metal>  (284) 
-0

>  <r_i_glide_rewards>  (284) 
-1.44123

>  <r_i_glide_evdw>  (284) 
-23.2183

>  <r_i_glide_ecoul>  (284) 
-1.11225

>  <r_i_glide_erotb>  (284) 
0.208568

>  <r_i_glide_esite>  (284) 
-0.068983

>  <r_i_glide_emodel>  (284) 
-29.396

>  <r_i_glide_energy>  (284) 
-24.3305

>  <r_i_glide_einternal>  (284) 
0.916371

>  <r_i_glide_intrahb_reward>  (284) 
-0

>  <i_i_glide_confnum>  (284) 
3

>  <i_i_glide_posenum>  (284) 
3

>  <r_i_glide_eff_state_penalty>  (284) 
0

>  <ligand_id>  (284) 
89

>  <original_smiles>  (284) 
CC(=O)C1=C(C)N=C2CC(C)CC(=O)C2C1c1ccccn1

>  <smiles>  (284) 
[H]C1=C2N=C(C([H])([H])[H])C([H])(C(=O)C([H])([H])[H])C([H])(c3nc([H])c([H])c([H])c3[H])C2([H])C(=O)C([H])([H])C1([H])C([H])([H])[H]

$$$$
89:1:0
     RDKit          3D

 42 44  0  0  1  0  0  0  0  0999 V2000
    7.6707   -6.9529    2.2198 C   0  0  0  0  0  0  0  0  0  0  0  0
    6.7204   -5.7774    2.4517 C   0  0  0  0  0  0  0  0  0  0  0  0
    6.2879   -5.5730    3.5832 O   0  0  0  0  0  0  0  0  0  0  0  0
    6.3117   -4.9555    1.2909 C   0  0  0  0  0  0  0  0  0  0  0  0
    7.2104   -4.2385    0.5751 C   0  0  0  0  0  0  0  0  0  0  0  0
    8.7085   -4.2077    0.8773 C   0  0  0  0  0  0  0  0  0  0  0  0
    6.8139   -3.4473   -0.5150 N   0  0  0  0  0  0  0  0  0  0  0  0
    5.6406   -3.4944   -1.0146 C   0  0  0  0  0  0  0  0  0  0  0  0
    5.3044   -2.6776   -2.2639 C   0  0  0  0  0  0  0  0  0  0  0  0
    3.8997   -2.0406   -2.2498 C   0  0  1  0  0  0  0  0  0  0  0  0
    3.6149   -1.3145   -3.5723 C   0  0  0  0  0  0  0  0  0  0  0  0
    2.8198   -3.0907   -1.9745 C   0  0  0  0  0  0  0  0  0  0  0  0
    3.1203   -3.8241   -0.6720 C   0  0  0  0  0  0  0  0  0  0  0  0
    2.2283   -3.9772    0.1609 O   0  0  0  0  0  0  0  0  0  0  0  0
    4.5328   -4.4189   -0.4860 C   0  0  2  0  0  0  0  0  0  0  0  0
    4.8169   -4.9240    0.9580 C   0  0  1  0  0  0  0  0  0  0  0  0
    4.1169   -6.2701    1.1869 C   0  0  0  0  0  0  0  0  0  0  0  0
    2.9380   -6.3713    1.9617 C   0  0  0  0  0  0  0  0  0  0  0  0
    2.3690   -7.6427    2.1728 C   0  0  0  0  0  0  0  0  0  0  0  0
    3.0141   -8.7678    1.6302 C   0  0  0  0  0  0  0  0  0  0  0  0
    4.1828   -8.5767    0.8761 C   0  0  0  0  0  0  0  0  0  0  0  0
    4.7018   -7.3537    0.6218 N   0  0  0  0  0  0  0  0  0  0  0  0
    7.1548   -7.7417    1.6548 H   0  0  0  0  0  0  0  0  0  0  0  0
    7.9632   -7.3962    3.1808 H   0  0  0  0  0  0  0  0  0  0  0  0
    8.5623   -6.6258    1.6789 H   0  0  0  0  0  0  0  0  0  0  0  0
    9.0312   -4.9030    1.6645 H   0  0  0  0  0  0  0  0  0  0  0  0
    9.0078   -3.1745    1.1465 H   0  0  0  0  0  0  0  0  0  0  0  0
    9.2636   -4.4669   -0.0380 H   0  0  0  0  0  0  0  0  0  0  0  0
    6.0488   -1.8930   -2.3665 H   0  0  0  0  0  0  0  0  0  0  0  0
    5.4041   -3.3297   -3.1361 H   0  0  0  0  0  0  0  0  0  0  0  0
    3.8623   -1.3024   -1.4507 H   0  0  0  0  0  0  0  0  0  0  0  0
    3.6690   -2.0052   -4.4192 H   0  0  0  0  0  0  0  0  0  0  0  0
    4.3288   -0.5070   -3.7468 H   0  0  0  0  0  0  0  0  0  0  0  0
    2.6142   -0.8773   -3.5727 H   0  0  0  0  0  0  0  0  0  0  0  0
    1.8303   -2.6399   -1.9168 H   0  0  0  0  0  0  0  0  0  0  0  0
    2.7809   -3.8244   -2.7803 H   0  0  0  0  0  0  0  0  0  0  0  0
    4.5744   -5.2962   -1.1353 H   0  0  0  0  0  0  0  0  0  0  0  0
    4.3854   -4.2114    1.6565 H   0  0  0  0  0  0  0  0  0  0  0  0
    2.4906   -5.4790    2.3838 H   0  0  0  0  0  0  0  0  0  0  0  0
    1.4584   -7.7435    2.7476 H   0  0  0  0  0  0  0  0  0  0  0  0
    2.6216   -9.7632    1.7649 H   0  0  0  0  0  0  0  0  0  0  0  0
    4.7236   -9.4113    0.4563 H   0  0  0  0  0  0  0  0  0  0  0  0
  1  2  1  0
  1 23  1  0
  1 24  1  0
  1 25  1  0
  2  3  2  0
  2  4  1  0
  4 16  1  0
  4  5  2  0
  5  6  1  0
  5  7  1  0
  6 26  1  0
  6 27  1  0
  6 28  1  0
  7  8  2  0
  8 15  1  0
  8  9  1  0
  9 10  1  0
  9 29  1  0
  9 30  1  0
 10 11  1  0
 10 12  1  0
 10 31  1  1
 11 32  1  0
 11 33  1  0
 11 34  1  0
 12 13  1  0
 12 35  1  0
 12 36  1  0
 13 14  2  0
 13 15  1  0
 15 16  1  0
 15 37  1  6
 16 17  1  0
 16 38  1  1
 17 22  1  0
 17 18  2  0
 18 19  1  0
 18 39  1  0
 19 20  2  0
 19 40  1  0
 20 21  1  0
 20 41  1  0
 21 22  2  0
 21 42  1  0
M  END
>  <i_m_ct_stereo_status>  (285) 
1

>  <s_m_source_file>  (285) 
/var/tmp/pbs.5076255.sched01/tmpinim70aj/80j3ziidn5.sdf

>  <i_m_source_file_index>  (285) 
38

>  <i_lp_mmshare_version>  (285) 
48012

>  <i_f3d_flags>  (285) 
0

>  <s_epik_input>  (285) 
W0NIMl0xW0NAQEhdKFtDSDNdKVtDSDJdQyg9TylbQ0BASF0oQzEyKVtDQEhdKEMoQyg9TylbQ0gzXSk9QyhOPTIpW0NIM10pYzNbY0hdW2NIXVtjSF1bY0hdbjM=

>  <s_epik_cmdline>  (285) 
J2VwaWtfcHl0aG9uJywgJy1waHQnLCAnMi4wJywgJy1waCcsICc3LjAnLCAnLXRuJywgJzgnLCAnLW1hJywgJzIwMCcsICctaW1hZScsICc8aW5maWxlLm1hZT4nLCAnLW9tYWUnLCAnPG91dGZpbGUubWFlPic=

>  <r_lp_tautomer_probability>  (285) 
0.499981

>  <r_epik_Ionization_Penalty>  (285) 
0.000694348

>  <r_epik_Ionization_Penalty_Charging>  (285) 
0

>  <r_epik_Ionization_Penalty_Neutral>  (285) 
0.000694348

>  <r_epik_State_Penalty>  (285) 
0.433293

>  <r_epik_Charging_Adjusted_Penalty>  (285) 
0.433293

>  <i_epik_Tot_Q>  (285) 
0

>  <i_epik_Tot_abs_Q>  (285) 
0

>  <s_epik_Chemistry_Notes>  (285) 
This compound has an imine and may undergo hydrolysis.

>  <s_lp_Force_Field>  (285) 
OPLS3e

>  <r_lp_Energy>  (285) 
26.8472

>  <b_lp_Chiralities_Consistent>  (285) 
1

>  <s_lp_Variant>  (285) 
89:0-2

>  <s_i_glide_gridfile>  (285) 
pfpi4k_grid

>  <i_i_glide_lignum>  (285) 
38

>  <i_i_glide_rotatable_bonds>  (285) 
2

>  <r_i_docking_score>  (285) 
-3.84352

>  <r_i_glide_ligand_efficiency>  (285) 
-0.174706

>  <r_i_glide_ligand_efficiency_sa>  (285) 
-0.489532

>  <r_i_glide_ligand_efficiency_ln>  (285) 
-0.939497

>  <r_i_glide_gscore>  (285) 
-3.84352

>  <r_i_glide_lipo>  (285) 
-0.686198

>  <r_i_glide_hbond>  (285) 
0

>  <r_i_glide_metal>  (285) 
-0

>  <r_i_glide_rewards>  (285) 
-1.53746

>  <r_i_glide_evdw>  (285) 
-28.685

>  <r_i_glide_ecoul>  (285) 
-2.56706

>  <r_i_glide_erotb>  (285) 
0.208568

>  <r_i_glide_esite>  (285) 
-0.00911779

>  <r_i_glide_emodel>  (285) 
-38.1559

>  <r_i_glide_energy>  (285) 
-31.2521

>  <r_i_glide_einternal>  (285) 
0.469288

>  <r_i_glide_intrahb_reward>  (285) 
-0

>  <i_i_glide_confnum>  (285) 
3

>  <i_i_glide_posenum>  (285) 
15

>  <r_i_glide_eff_state_penalty>  (285) 
0

>  <ligand_id>  (285) 
89

>  <original_smiles>  (285) 
CC(=O)C1=C(C)N=C2CC(C)CC(=O)C2C1c1ccccn1

>  <smiles>  (285) 
[H]c1nc(C2([H])C(C(=O)C([H])([H])[H])=C(C([H])([H])[H])N=C3C([H])([H])C([H])(C([H])([H])[H])C([H])([H])C(=O)C32[H])c([H])c([H])c1[H]

$$$$
89:1:1
     RDKit          3D

 42 44  0  0  1  0  0  0  0  0999 V2000
    7.3899   -7.4496    2.5561 C   0  0  0  0  0  0  0  0  0  0  0  0
    6.5904   -6.1557    2.8154 C   0  0  0  0  0  0  0  0  0  0  0  0
    6.2299   -5.8935    3.9386 O   0  0  0  0  0  0  0  0  0  0  0  0
    6.2224   -5.3035    1.6464 C   0  0  0  0  0  0  0  0  0  0  0  0
    7.1698   -4.6601    0.9122 C   0  0  0  0  0  0  0  0  0  0  0  0
    8.6702   -4.7326    1.1670 C   0  0  0  0  0  0  0  0  0  0  0  0
    6.7915   -3.8472   -0.1723 N   0  0  0  0  0  0  0  0  0  0  0  0
    5.6200   -3.8095   -0.6589 C   0  0  0  0  0  0  0  0  0  0  0  0
    5.3309   -2.9824   -1.9182 C   0  0  0  0  0  0  0  0  0  0  0  0
    3.9852   -2.2306   -1.8837 C   0  0  1  0  0  0  0  0  0  0  0  0
    3.7265   -1.4923   -3.2065 C   0  0  0  0  0  0  0  0  0  0  0  0
    2.8318   -3.1827   -1.5738 C   0  0  0  0  0  0  0  0  0  0  0  0
    3.0757   -3.9399   -0.2607 C   0  0  0  0  0  0  0  0  0  0  0  0
    2.2180   -4.0277    0.5705 O   0  0  0  0  0  0  0  0  0  0  0  0
    4.4528   -4.6477   -0.1086 C   0  0  2  0  0  0  0  0  0  0  0  0
    4.7247   -5.1591    1.3406 C   0  0  1  0  0  0  0  0  0  0  0  0
    3.9314   -6.4487    1.6090 C   0  0  0  0  0  0  0  0  0  0  0  0
    4.3163   -7.6518    0.9636 C   0  0  0  0  0  0  0  0  0  0  0  0
    3.6353   -8.8445    1.2768 C   0  0  0  0  0  0  0  0  0  0  0  0
    2.5698   -8.7813    2.1939 C   0  0  0  0  0  0  0  0  0  0  0  0
    2.2480   -7.5344    2.7671 C   0  0  0  0  0  0  0  0  0  0  0  0
    2.9065   -6.3896    2.4755 N   0  0  0  0  0  0  0  0  0  0  0  0
    6.7580   -8.1784    2.0413 H   0  0  0  0  0  0  0  0  0  0  0  0
    7.6633   -7.8927    3.5199 H   0  0  0  0  0  0  0  0  0  0  0  0
    8.2922   -7.2596    1.9746 H   0  0  0  0  0  0  0  0  0  0  0  0
    8.9722   -5.4090    1.9727 H   0  0  0  0  0  0  0  0  0  0  0  0
    9.0423   -3.7239    1.4011 H   0  0  0  0  0  0  0  0  0  0  0  0
    9.1735   -5.0615    0.2497 H   0  0  0  0  0  0  0  0  0  0  0  0
    6.1423   -2.2680   -2.0656 H   0  0  0  0  0  0  0  0  0  0  0  0
    5.3596   -3.6517   -2.7797 H   0  0  0  0  0  0  0  0  0  0  0  0
    4.0223   -1.4912   -1.0841 H   0  0  0  0  0  0  0  0  0  0  0  0
    3.7114   -2.1863   -4.0490 H   0  0  0  0  0  0  0  0  0  0  0  0
    4.4970   -0.7459   -3.4013 H   0  0  0  0  0  0  0  0  0  0  0  0
    2.7620   -0.9826   -3.1906 H   0  0  0  0  0  0  0  0  0  0  0  0
    1.8891   -2.6331   -1.4980 H   0  0  0  0  0  0  0  0  0  0  0  0
    2.7118   -3.8883   -2.3899 H   0  0  0  0  0  0  0  0  0  0  0  0
    4.4057   -5.5193   -0.7588 H   0  0  0  0  0  0  0  0  0  0  0  0
    4.3674   -4.3938    2.0358 H   0  0  0  0  0  0  0  0  0  0  0  0
    5.1312   -7.6475    0.2703 H   0  0  0  0  0  0  0  0  0  0  0  0
    3.9246   -9.7758    0.8107 H   0  0  0  0  0  0  0  0  0  0  0  0
    2.0065   -9.6653    2.4398 H   0  0  0  0  0  0  0  0  0  0  0  0
    1.4447   -7.4441    3.4837 H   0  0  0  0  0  0  0  0  0  0  0  0
  1  2  1  0
  1 23  1  0
  1 24  1  0
  1 25  1  0
  2  3  2  0
  2  4  1  0
  4 16  1  0
  4  5  2  0
  5  6  1  0
  5  7  1  0
  6 26  1  0
  6 27  1  0
  6 28  1  0
  7  8  2  0
  8 15  1  0
  8  9  1  0
  9 10  1  0
  9 29  1  0
  9 30  1  0
 10 11  1  0
 10 12  1  0
 10 31  1  1
 11 32  1  0
 11 33  1  0
 11 34  1  0
 12 13  1  0
 12 35  1  0
 12 36  1  0
 13 14  2  0
 13 15  1  0
 15 16  1  0
 15 37  1  6
 16 17  1  0
 16 38  1  1
 17 22  1  0
 17 18  2  0
 18 19  1  0
 18 39  1  0
 19 20  2  0
 19 40  1  0
 20 21  1  0
 20 41  1  0
 21 22  2  0
 21 42  1  0
M  END
>  <i_m_ct_stereo_status>  (286) 
1

>  <s_m_source_file>  (286) 
/var/tmp/pbs.5076255.sched01/tmpinim70aj/80j3ziidn5.sdf

>  <i_m_source_file_index>  (286) 
38

>  <i_lp_mmshare_version>  (286) 
48012

>  <i_f3d_flags>  (286) 
0

>  <s_epik_input>  (286) 
W0NIMl0xW0NAQEhdKFtDSDNdKVtDSDJdQyg9TylbQ0BASF0oQzEyKVtDQEhdKEMoQyg9TylbQ0gzXSk9QyhOPTIpW0NIM10pYzNbY0hdW2NIXVtjSF1bY0hdbjM=

>  <s_epik_cmdline>  (286) 
J2VwaWtfcHl0aG9uJywgJy1waHQnLCAnMi4wJywgJy1waCcsICc3LjAnLCAnLXRuJywgJzgnLCAnLW1hJywgJzIwMCcsICctaW1hZScsICc8aW5maWxlLm1hZT4nLCAnLW9tYWUnLCAnPG91dGZpbGUubWFlPic=

>  <r_lp_tautomer_probability>  (286) 
0.499981

>  <r_epik_Ionization_Penalty>  (286) 
0.000694348

>  <r_epik_Ionization_Penalty_Charging>  (286) 
0

>  <r_epik_Ionization_Penalty_Neutral>  (286) 
0.000694348

>  <r_epik_State_Penalty>  (286) 
0.433293

>  <r_epik_Charging_Adjusted_Penalty>  (286) 
0.433293

>  <i_epik_Tot_Q>  (286) 
0

>  <i_epik_Tot_abs_Q>  (286) 
0

>  <s_epik_Chemistry_Notes>  (286) 
This compound has an imine and may undergo hydrolysis.

>  <s_lp_Force_Field>  (286) 
OPLS3e

>  <r_lp_Energy>  (286) 
26.8472

>  <b_lp_Chiralities_Consistent>  (286) 
1

>  <s_lp_Variant>  (286) 
89:0-2

>  <s_i_glide_gridfile>  (286) 
pfpi4k_grid

>  <i_i_glide_lignum>  (286) 
38

>  <i_i_glide_rotatable_bonds>  (286) 
2

>  <r_i_docking_score>  (286) 
-3.47605

>  <r_i_glide_ligand_efficiency>  (286) 
-0.158002

>  <r_i_glide_ligand_efficiency_sa>  (286) 
-0.442729

>  <r_i_glide_ligand_efficiency_ln>  (286) 
-0.849673

>  <r_i_glide_gscore>  (286) 
-3.47605

>  <r_i_glide_lipo>  (286) 
-0.578443

>  <r_i_glide_hbond>  (286) 
0

>  <r_i_glide_metal>  (286) 
-0

>  <r_i_glide_rewards>  (286) 
-1.48211

>  <r_i_glide_evdw>  (286) 
-25.9255

>  <r_i_glide_ecoul>  (286) 
-2.06269

>  <r_i_glide_erotb>  (286) 
0.208568

>  <r_i_glide_esite>  (286) 
-0.0183815

>  <r_i_glide_emodel>  (286) 
-34.2939

>  <r_i_glide_energy>  (286) 
-27.9882

>  <r_i_glide_einternal>  (286) 
0.862262

>  <r_i_glide_intrahb_reward>  (286) 
-0

>  <i_i_glide_confnum>  (286) 
4

>  <i_i_glide_posenum>  (286) 
33

>  <r_i_glide_eff_state_penalty>  (286) 
0

>  <ligand_id>  (286) 
89

>  <original_smiles>  (286) 
CC(=O)C1=C(C)N=C2CC(C)CC(=O)C2C1c1ccccn1

>  <smiles>  (286) 
[H]c1nc(C2([H])C(C(=O)C([H])([H])[H])=C(C([H])([H])[H])N=C3C([H])([H])C([H])(C([H])([H])[H])C([H])([H])C(=O)C32[H])c([H])c([H])c1[H]

$$$$
89:1:2
     RDKit          3D

 42 44  0  0  1  0  0  0  0  0999 V2000
    8.2177   -3.2134   -1.2559 C   0  0  0  0  0  0  0  0  0  0  0  0
    7.3836   -3.1108    0.0155 C   0  0  0  0  0  0  0  0  0  0  0  0
    7.3265   -2.0027    0.5470 O   0  0  0  0  0  0  0  0  0  0  0  0
    6.6845   -4.3238    0.5418 C   0  0  0  0  0  0  0  0  0  0  0  0
    7.3738   -5.4357    0.8891 C   0  0  0  0  0  0  0  0  0  0  0  0
    8.8997   -5.5425    0.8686 C   0  0  0  0  0  0  0  0  0  0  0  0
    6.7421   -6.6147    1.2985 N   0  0  0  0  0  0  0  0  0  0  0  0
    5.4971   -6.6775    1.5917 C   0  0  0  0  0  0  0  0  0  0  0  0
    4.9043   -7.9704    2.1492 C   0  0  0  0  0  0  0  0  0  0  0  0
    3.4859   -8.2817    1.6383 C   0  0  1  0  0  0  0  0  0  0  0  0
    2.9100   -9.5386    2.3035 C   0  0  0  0  0  0  0  0  0  0  0  0
    2.5435   -7.0921    1.8512 C   0  0  0  0  0  0  0  0  0  0  0  0
    3.0989   -5.8394    1.1859 C   0  0  0  0  0  0  0  0  0  0  0  0
    2.3756   -5.1544    0.4803 O   0  0  0  0  0  0  0  0  0  0  0  0
    4.5695   -5.4601    1.5204 C   0  0  2  0  0  0  0  0  0  0  0  0
    5.1491   -4.3205    0.6245 C   0  0  1  0  0  0  0  0  0  0  0  0
    4.6035   -2.9791    1.1024 C   0  0  0  0  0  0  0  0  0  0  0  0
    4.9512   -2.4668    2.3658 C   0  0  0  0  0  0  0  0  0  0  0  0
    4.5136   -1.1770    2.7408 C   0  0  0  0  0  0  0  0  0  0  0  0
    3.7223   -0.4579    1.8267 C   0  0  0  0  0  0  0  0  0  0  0  0
    3.4084   -1.0584    0.5962 C   0  0  0  0  0  0  0  0  0  0  0  0
    3.8208   -2.2890    0.2356 N   0  0  0  0  0  0  0  0  0  0  0  0
    9.0958   -3.8426   -1.0623 H   0  0  0  0  0  0  0  0  0  0  0  0
    8.5506   -2.2056   -1.5376 H   0  0  0  0  0  0  0  0  0  0  0  0
    7.5994   -3.6121   -2.0768 H   0  0  0  0  0  0  0  0  0  0  0  0
    9.4012   -4.5701    0.7435 H   0  0  0  0  0  0  0  0  0  0  0  0
    9.2189   -6.1784    0.0255 H   0  0  0  0  0  0  0  0  0  0  0  0
    9.2706   -6.0342    1.7925 H   0  0  0  0  0  0  0  0  0  0  0  0
    5.5659   -8.8097    1.9102 H   0  0  0  0  0  0  0  0  0  0  0  0
    4.8932   -7.9018    3.2401 H   0  0  0  0  0  0  0  0  0  0  0  0
    3.5586   -8.4781    0.5719 H   0  0  0  0  0  0  0  0  0  0  0  0
    2.8632   -9.4278    3.3902 H   0  0  0  0  0  0  0  0  0  0  0  0
    3.5236  -10.4181    2.0881 H   0  0  0  0  0  0  0  0  0  0  0  0
    1.8971   -9.7520    1.9524 H   0  0  0  0  0  0  0  0  0  0  0  0
    1.5587   -7.3006    1.4293 H   0  0  0  0  0  0  0  0  0  0  0  0
    2.4086   -6.8924    2.9138 H   0  0  0  0  0  0  0  0  0  0  0  0
    4.5410   -5.0989    2.5494 H   0  0  0  0  0  0  0  0  0  0  0  0
    4.8007   -4.4991   -0.3867 H   0  0  0  0  0  0  0  0  0  0  0  0
    5.6003   -3.0397    3.0196 H   0  0  0  0  0  0  0  0  0  0  0  0
    4.8220   -0.7502    3.6827 H   0  0  0  0  0  0  0  0  0  0  0  0
    3.3654    0.5256    2.0559 H   0  0  0  0  0  0  0  0  0  0  0  0
    2.8053   -0.5433   -0.1351 H   0  0  0  0  0  0  0  0  0  0  0  0
  1  2  1  0
  1 23  1  0
  1 24  1  0
  1 25  1  0
  2  3  2  0
  2  4  1  0
  4 16  1  0
  4  5  2  0
  5  6  1  0
  5  7  1  0
  6 26  1  0
  6 27  1  0
  6 28  1  0
  7  8  2  0
  8 15  1  0
  8  9  1  0
  9 10  1  0
  9 29  1  0
  9 30  1  0
 10 11  1  0
 10 12  1  0
 10 31  1  6
 11 32  1  0
 11 33  1  0
 11 34  1  0
 12 13  1  0
 12 35  1  0
 12 36  1  0
 13 14  2  0
 13 15  1  0
 15 16  1  0
 15 37  1  1
 16 17  1  0
 16 38  1  6
 17 22  1  0
 17 18  2  0
 18 19  1  0
 18 39  1  0
 19 20  2  0
 19 40  1  0
 20 21  1  0
 20 41  1  0
 21 22  2  0
 21 42  1  0
M  END
>  <i_m_ct_stereo_status>  (287) 
1

>  <s_m_source_file>  (287) 
/var/tmp/pbs.5076255.sched01/tmpinim70aj/80j3ziidn5.sdf

>  <i_m_source_file_index>  (287) 
38

>  <i_lp_mmshare_version>  (287) 
48012

>  <i_f3d_flags>  (287) 
0

>  <s_epik_input>  (287) 
W0NIMl0xW0NAQEhdKFtDSDNdKVtDSDJdQyg9TylbQ0BASF0oQzEyKVtDQEhdKEMoQyg9TylbQ0gzXSk9QyhOPTIpW0NIM10pYzNbY0hdW2NIXVtjSF1bY0hdbjM=

>  <s_epik_cmdline>  (287) 
J2VwaWtfcHl0aG9uJywgJy1waHQnLCAnMi4wJywgJy1waCcsICc3LjAnLCAnLXRuJywgJzgnLCAnLW1hJywgJzIwMCcsICctaW1hZScsICc8aW5maWxlLm1hZT4nLCAnLW9tYWUnLCAnPG91dGZpbGUubWFlPic=

>  <r_lp_tautomer_probability>  (287) 
0.499981

>  <r_epik_Ionization_Penalty>  (287) 
0.000694348

>  <r_epik_Ionization_Penalty_Charging>  (287) 
0

>  <r_epik_Ionization_Penalty_Neutral>  (287) 
0.000694348

>  <r_epik_State_Penalty>  (287) 
0.433293

>  <r_epik_Charging_Adjusted_Penalty>  (287) 
0.433293

>  <i_epik_Tot_Q>  (287) 
0

>  <i_epik_Tot_abs_Q>  (287) 
0

>  <s_epik_Chemistry_Notes>  (287) 
This compound has an imine and may undergo hydrolysis.

>  <s_lp_Force_Field>  (287) 
OPLS3e

>  <r_lp_Energy>  (287) 
26.8472

>  <b_lp_Chiralities_Consistent>  (287) 
1

>  <s_lp_Variant>  (287) 
89:0-2

>  <s_i_glide_gridfile>  (287) 
pfpi4k_grid

>  <i_i_glide_lignum>  (287) 
38

>  <i_i_glide_rotatable_bonds>  (287) 
2

>  <r_i_docking_score>  (287) 
-3.26264

>  <r_i_glide_ligand_efficiency>  (287) 
-0.148302

>  <r_i_glide_ligand_efficiency_sa>  (287) 
-0.415548

>  <r_i_glide_ligand_efficiency_ln>  (287) 
-0.797509

>  <r_i_glide_gscore>  (287) 
-3.26264

>  <r_i_glide_lipo>  (287) 
-0.452457

>  <r_i_glide_hbond>  (287) 
0

>  <r_i_glide_metal>  (287) 
-0

>  <r_i_glide_rewards>  (287) 
-1.69135

>  <r_i_glide_evdw>  (287) 
-26.3257

>  <r_i_glide_ecoul>  (287) 
-0.0741428

>  <r_i_glide_erotb>  (287) 
0.208568

>  <r_i_glide_esite>  (287) 
0

>  <r_i_glide_emodel>  (287) 
-31.4834

>  <r_i_glide_energy>  (287) 
-26.3998

>  <r_i_glide_einternal>  (287) 
1.95562

>  <r_i_glide_intrahb_reward>  (287) 
-0

>  <i_i_glide_confnum>  (287) 
4

>  <i_i_glide_posenum>  (287) 
28

>  <r_i_glide_eff_state_penalty>  (287) 
0

>  <ligand_id>  (287) 
89

>  <original_smiles>  (287) 
CC(=O)C1=C(C)N=C2CC(C)CC(=O)C2C1c1ccccn1

>  <smiles>  (287) 
[H]c1nc(C2([H])C(C(=O)C([H])([H])[H])=C(C([H])([H])[H])N=C3C([H])([H])C([H])(C([H])([H])[H])C([H])([H])C(=O)C32[H])c([H])c([H])c1[H]

$$$$
90:0:0
     RDKit          3D

 56 61  0  0  1  0  0  0  0  0999 V2000
   -2.7455    3.0257    8.0418 C   0  0  0  0  0  0  0  0  0  0  0  0
   -2.1426    2.4226    6.7961 C   0  0  0  0  0  0  0  0  0  0  0  0
   -2.4706    2.9320    5.5225 C   0  0  0  0  0  0  0  0  0  0  0  0
   -1.9208    2.3603    4.3645 C   0  0  0  0  0  0  0  0  0  0  0  0
   -1.0324    1.2698    4.4669 C   0  0  0  0  0  0  0  0  0  0  0  0
   -0.7062    0.7530    5.7487 C   0  0  0  0  0  0  0  0  0  0  0  0
   -1.2493    1.3410    6.9046 C   0  0  0  0  0  0  0  0  0  0  0  0
    0.2055   -0.4050    5.8695 C   0  0  0  0  0  0  0  0  0  0  0  0
    0.5993   -0.8832    6.9350 O   0  0  0  0  0  0  0  0  0  0  0  0
    0.6302   -1.0187    4.5496 C   0  0  0  0  0  0  0  0  0  0  0  0
    0.7450    0.0692    3.4649 C   0  0  1  0  0  0  0  0  0  0  0  0
    1.9012    1.0737    3.7081 C   0  0  0  0  0  0  0  0  0  0  0  0
    2.8709    0.8511    2.5688 C   0  0  0  0  0  0  0  0  0  0  0  0
    2.5768   -0.5109    2.0892 N   0  0  2  0  0  0  0  0  0  0  0  0
    3.1753   -0.8966    0.7949 C   0  0  2  0  0  0  0  0  0  0  0  0
    2.9478   -2.4077    0.4860 C   0  0  1  0  0  0  0  0  0  0  0  0
    3.4952   -2.7228   -0.9158 C   0  0  0  0  0  0  0  0  0  0  0  0
    5.0082   -2.4399   -0.9475 C   0  0  2  0  0  0  0  0  0  0  0  0
    5.7319   -3.2976    0.1194 C   0  0  0  0  0  0  0  0  0  0  0  0
    5.1727   -2.9745    1.5202 C   0  0  2  0  0  0  0  0  0  0  0  0
    3.6603   -3.2812    1.5450 C   0  0  0  0  0  0  0  0  0  0  0  0
    5.4179   -1.4779    1.8266 C   0  0  0  0  0  0  0  0  0  0  0  0
    4.6963   -0.6143    0.7582 C   0  0  1  0  0  0  0  0  0  0  0  0
    5.2421   -0.9494   -0.6382 C   0  0  0  0  0  0  0  0  0  0  0  0
    1.1076   -0.6169    2.1477 C   0  0  0  0  0  0  0  0  0  0  0  0
   -0.5027    0.7411    3.3114 O   0  0  0  0  0  0  0  0  0  0  0  0
   -3.7854    3.2988    7.8726 H   0  0  0  0  0  0  0  0  0  0  0  0
   -2.1932    3.9196    8.3311 H   0  0  0  0  0  0  0  0  0  0  0  0
   -2.7142    2.3206    8.8735 H   0  0  0  0  0  0  0  0  0  0  0  0
   -3.1711    3.7468    5.4354 H   0  0  0  0  0  0  0  0  0  0  0  0
   -2.1773    2.7504    3.3881 H   0  0  0  0  0  0  0  0  0  0  0  0
   -0.9789    0.9595    7.8796 H   0  0  0  0  0  0  0  0  0  0  0  0
    1.5906   -1.5231    4.6691 H   0  0  0  0  0  0  0  0  0  0  0  0
   -0.1020   -1.7759    4.2551 H   0  0  0  0  0  0  0  0  0  0  0  0
    1.5714    2.1144    3.7182 H   0  0  0  0  0  0  0  0  0  0  0  0
    2.4169    0.8739    4.6513 H   0  0  0  0  0  0  0  0  0  0  0  0
    2.6688    1.5631    1.7630 H   0  0  0  0  0  0  0  0  0  0  0  0
    3.8949    0.9775    2.9132 H   0  0  0  0  0  0  0  0  0  0  0  0
    2.6859   -0.2911    0.0325 H   0  0  0  0  0  0  0  0  0  0  0  0
    1.8853   -2.6460    0.4757 H   0  0  0  0  0  0  0  0  0  0  0  0
    3.2862   -3.7592   -1.1834 H   0  0  0  0  0  0  0  0  0  0  0  0
    2.9790   -2.1050   -1.6524 H   0  0  0  0  0  0  0  0  0  0  0  0
    5.4005   -2.6752   -1.9372 H   0  0  0  0  0  0  0  0  0  0  0  0
    5.6090   -4.3601   -0.1010 H   0  0  0  0  0  0  0  0  0  0  0  0
    6.8024   -3.0902    0.0959 H   0  0  0  0  0  0  0  0  0  0  0  0
    5.6787   -3.5887    2.2709 H   0  0  0  0  0  0  0  0  0  0  0  0
    3.2532   -3.1027    2.5405 H   0  0  0  0  0  0  0  0  0  0  0  0
    3.4829   -4.3378    1.3396 H   0  0  0  0  0  0  0  0  0  0  0  0
    5.0643   -1.2439    2.8314 H   0  0  0  0  0  0  0  0  0  0  0  0
    6.4852   -1.2585    1.8293 H   0  0  0  0  0  0  0  0  0  0  0  0
    4.9052    0.4458    0.9238 H   0  0  0  0  0  0  0  0  0  0  0  0
    6.3012   -0.7250   -0.6632 H   0  0  0  0  0  0  0  0  0  0  0  0
    4.7621   -0.3210   -1.3906 H   0  0  0  0  0  0  0  0  0  0  0  0
    0.7604   -1.6549    2.1143 H   0  0  0  0  0  0  0  0  0  0  0  0
    0.6683   -0.0784    1.2988 H   0  0  0  0  0  0  0  0  0  0  0  0
    2.9515   -1.1465    2.7835 H   0  0  0  0  0  0  0  0  0  0  0  0
  1  2  1  0
  1 27  1  0
  1 28  1  0
  1 29  1  0
  2  7  2  0
  2  3  1  0
  3  4  2  0
  3 30  1  0
  4  5  1  0
  4 31  1  0
  5 26  1  0
  5  6  2  0
  6  7  1  0
  6  8  1  0
  7 32  1  0
  8  9  2  0
  8 10  1  0
 10 11  1  0
 10 33  1  0
 10 34  1  0
 11 25  1  0
 11 12  1  0
 11 26  1  6
 12 13  1  0
 12 35  1  0
 12 36  1  0
 13 14  1  0
 13 37  1  0
 13 38  1  0
 14 15  1  0
 14 25  1  0
 14 56  1  1
 15 23  1  0
 15 16  1  0
 15 39  1  6
 16 21  1  0
 16 17  1  0
 16 40  1  6
 17 18  1  0
 17 41  1  0
 17 42  1  0
 18 24  1  0
 18 19  1  0
 18 43  1  6
 19 20  1  0
 19 44  1  0
 19 45  1  0
 20 21  1  0
 20 22  1  0
 20 46  1  1
 21 47  1  0
 21 48  1  0
 22 23  1  0
 22 49  1  0
 22 50  1  0
 23 24  1  0
 23 51  1  1
 24 52  1  0
 24 53  1  0
 25 54  1  0
 25 55  1  0
M  CHG  1  14   1
M  END
>  <i_m_ct_stereo_status>  (288) 
1

>  <s_m_source_file>  (288) 
/var/tmp/pbs.5076255.sched01/tmpinim70aj/80j3ziidn5.sdf

>  <i_m_source_file_index>  (288) 
39

>  <i_lp_mmshare_version>  (288) 
48012

>  <i_f3d_flags>  (288) 
0

>  <s_epik_input>  (288) 
W0NIM11jKFtjSF0xKVtjSF1bY0hdYyhPMiljMUMoPU8pW0NIMl1bQ0BdMjNbQ0gyXVtDSDJdTihbQ0gyXTMpW0NASF0oW0NAQEhdNDUpW0NASF02W0NIMl1bQ0BASF0oW0NIMl01KVtDSDJdW0NAQEhdKFtDSDJdNClbQ0gyXTY=

>  <s_epik_cmdline>  (288) 
J2VwaWtfcHl0aG9uJywgJy1waHQnLCAnMi4wJywgJy1waCcsICc3LjAnLCAnLXRuJywgJzgnLCAnLW1hJywgJzIwMCcsICctaW1hZScsICc8aW5maWxlLm1hZT4nLCAnLW9tYWUnLCAnPG91dGZpbGUubWFlPic=

>  <r_lp_tautomer_probability>  (288) 
0.99995

>  <r_epik_Ionization_Penalty>  (288) 
0.00477805

>  <r_epik_Ionization_Penalty_Charging>  (288) 
0.00477805

>  <r_epik_Ionization_Penalty_Neutral>  (288) 
6.05168e-15

>  <r_epik_State_Penalty>  (288) 
0.00346277

>  <r_epik_Charging_Adjusted_Penalty>  (288) 
0.00824082

>  <i_epik_Tot_Q>  (288) 
1

>  <i_epik_Tot_abs_Q>  (288) 
1

>  <s_lp_Force_Field>  (288) 
OPLS3e

>  <r_lp_Energy>  (288) 
15.3163

>  <b_lp_Chiralities_Consistent>  (288) 
1

>  <s_lp_Variant>  (288) 
90:0-1

>  <s_i_glide_gridfile>  (288) 
pfpi4k_grid

>  <i_i_glide_lignum>  (288) 
39

>  <i_i_glide_rotatable_bonds>  (288) 
1

>  <r_i_docking_score>  (288) 
-3.15513

>  <r_i_glide_ligand_efficiency>  (288) 
-0.121351

>  <r_i_glide_ligand_efficiency_sa>  (288) 
-0.359503

>  <r_i_glide_ligand_efficiency_ln>  (288) 
-0.740973

>  <r_i_glide_gscore>  (288) 
-3.15513

>  <r_i_glide_lipo>  (288) 
-0.552233

>  <r_i_glide_hbond>  (288) 
0

>  <r_i_glide_metal>  (288) 
-0

>  <r_i_glide_rewards>  (288) 
-1.00575

>  <r_i_glide_evdw>  (288) 
-23.1855

>  <r_i_glide_ecoul>  (288) 
-3.6188

>  <r_i_glide_erotb>  (288) 
0.153607

>  <r_i_glide_esite>  (288) 
-0.0486594

>  <r_i_glide_emodel>  (288) 
-32.9547

>  <r_i_glide_energy>  (288) 
-26.8043

>  <r_i_glide_einternal>  (288) 
0.146584

>  <r_i_glide_intrahb_reward>  (288) 
-0

>  <i_i_glide_confnum>  (288) 
2

>  <i_i_glide_posenum>  (288) 
9

>  <r_i_glide_eff_state_penalty>  (288) 
0

>  <ligand_id>  (288) 
90

>  <original_smiles>  (288) 
Cc1ccc2c(c1)C(=O)CC1(CCN(C3C4CC5CC(C4)CC3C5)C1)O2

>  <smiles>  (288) 
[H]c1c([H])c(C([H])([H])[H])c([H])c2c1OC1(C([H])([H])C2=O)C([H])([H])C([H])([H])[N+]([H])(C2([H])C3([H])C([H])([H])C4([H])C([H])([H])C([H])(C3([H])[H])C([H])([H])C2([H])C4([H])[H])C1([H])[H]

$$$$
90:0:1
     RDKit          3D

 56 61  0  0  1  0  0  0  0  0999 V2000
   -2.6103    2.6983    6.7146 C   0  0  0  0  0  0  0  0  0  0  0  0
   -1.7719    2.1396    5.5926 C   0  0  0  0  0  0  0  0  0  0  0  0
   -1.5601    2.8833    4.4155 C   0  0  0  0  0  0  0  0  0  0  0  0
   -0.7786    2.3568    3.3735 C   0  0  0  0  0  0  0  0  0  0  0  0
   -0.2063    1.0779    3.5024 C   0  0  0  0  0  0  0  0  0  0  0  0
   -0.4362    0.3154    4.6727 C   0  0  0  0  0  0  0  0  0  0  0  0
   -1.2017    0.8583    5.7262 C   0  0  0  0  0  0  0  0  0  0  0  0
    0.1283   -1.0400    4.8133 C   0  0  0  0  0  0  0  0  0  0  0  0
    0.0388   -1.7541    5.8207 O   0  0  0  0  0  0  0  0  0  0  0  0
    0.8617   -1.5456    3.5853 C   0  0  0  0  0  0  0  0  0  0  0  0
    1.5447   -0.3735    2.8496 C   0  0  1  0  0  0  0  0  0  0  0  0
    2.7484    0.2402    3.6051 C   0  0  0  0  0  0  0  0  0  0  0  0
    3.9713   -0.0710    2.7826 C   0  0  0  0  0  0  0  0  0  0  0  0
    3.5707   -1.2091    1.9390 N   0  0  2  0  0  0  0  0  0  0  0  0
    4.4589   -1.5620    0.8064 C   0  0  2  0  0  0  0  0  0  0  0  0
    3.8244   -2.6285   -0.1410 C   0  0  1  0  0  0  0  0  0  0  0  0
    4.7416   -2.8625   -1.3394 C   0  0  0  0  0  0  0  0  0  0  0  0
    6.0800   -3.4135   -0.8329 C   0  0  2  0  0  0  0  0  0  0  0  0
    5.8398   -4.7348   -0.0647 C   0  0  0  0  0  0  0  0  0  0  0  0
    4.9145   -4.4861    1.1410 C   0  0  2  0  0  0  0  0  0  0  0  0
    3.5681   -3.9502    0.6259 C   0  0  0  0  0  0  0  0  0  0  0  0
    5.5752   -3.4533    2.0829 C   0  0  0  0  0  0  0  0  0  0  0  0
    5.8134   -2.1265    1.3159 C   0  0  1  0  0  0  0  0  0  0  0  0
    6.7370   -2.3897    0.1156 C   0  0  0  0  0  0  0  0  0  0  0  0
    2.1724   -0.9257    1.5815 C   0  0  0  0  0  0  0  0  0  0  0  0
    0.5815    0.6030    2.4727 O   0  0  0  0  0  0  0  0  0  0  0  0
   -3.4508    3.2571    6.3048 H   0  0  0  0  0  0  0  0  0  0  0  0
   -2.0163    3.3654    7.3383 H   0  0  0  0  0  0  0  0  0  0  0  0
   -3.0017    1.8994    7.3439 H   0  0  0  0  0  0  0  0  0  0  0  0
   -1.9937    3.8676    4.3071 H   0  0  0  0  0  0  0  0  0  0  0  0
   -0.5967    2.9417    2.4824 H   0  0  0  0  0  0  0  0  0  0  0  0
   -1.3412    0.2867    6.6267 H   0  0  0  0  0  0  0  0  0  0  0  0
    1.6047   -2.2884    3.8644 H   0  0  0  0  0  0  0  0  0  0  0  0
    0.1652   -2.0498    2.9144 H   0  0  0  0  0  0  0  0  0  0  0  0
    2.6620    1.3119    3.7320 H   0  0  0  0  0  0  0  0  0  0  0  0
    2.8813   -0.2129    4.5808 H   0  0  0  0  0  0  0  0  0  0  0  0
    4.1646    0.7711    2.1320 H   0  0  0  0  0  0  0  0  0  0  0  0
    4.8416   -0.2606    3.4087 H   0  0  0  0  0  0  0  0  0  0  0  0
    4.6461   -0.6622    0.2090 H   0  0  0  0  0  0  0  0  0  0  0  0
    2.9040   -2.2702   -0.5840 H   0  0  0  0  0  0  0  0  0  0  0  0
    4.2661   -3.5498   -2.0373 H   0  0  0  0  0  0  0  0  0  0  0  0
    4.8846   -1.9210   -1.8673 H   0  0  0  0  0  0  0  0  0  0  0  0
    6.7290   -3.5955   -1.6881 H   0  0  0  0  0  0  0  0  0  0  0  0
    5.3915   -5.4848   -0.7189 H   0  0  0  0  0  0  0  0  0  0  0  0
    6.7916   -5.1375    0.2832 H   0  0  0  0  0  0  0  0  0  0  0  0
    4.7465   -5.4236    1.6786 H   0  0  0  0  0  0  0  0  0  0  0  0
    2.8873   -3.8155    1.4670 H   0  0  0  0  0  0  0  0  0  0  0  0
    3.0837   -4.6783   -0.0269 H   0  0  0  0  0  0  0  0  0  0  0  0
    4.9603   -3.3035    2.9739 H   0  0  0  0  0  0  0  0  0  0  0  0
    6.5193   -3.8576    2.4457 H   0  0  0  0  0  0  0  0  0  0  0  0
    6.3102   -1.4119    1.9720 H   0  0  0  0  0  0  0  0  0  0  0  0
    7.7014   -2.7603    0.4580 H   0  0  0  0  0  0  0  0  0  0  0  0
    6.9268   -1.4584   -0.4113 H   0  0  0  0  0  0  0  0  0  0  0  0
    1.6206   -1.8086    1.2454 H   0  0  0  0  0  0  0  0  0  0  0  0
    2.2001   -0.1829    0.7785 H   0  0  0  0  0  0  0  0  0  0  0  0
    3.5254   -2.0127    2.5503 H   0  0  0  0  0  0  0  0  0  0  0  0
  1  2  1  0
  1 27  1  0
  1 28  1  0
  1 29  1  0
  2  7  2  0
  2  3  1  0
  3  4  2  0
  3 30  1  0
  4  5  1  0
  4 31  1  0
  5 26  1  0
  5  6  2  0
  6  7  1  0
  6  8  1  0
  7 32  1  0
  8  9  2  0
  8 10  1  0
 10 11  1  0
 10 33  1  0
 10 34  1  0
 11 25  1  0
 11 12  1  0
 11 26  1  6
 12 13  1  0
 12 35  1  0
 12 36  1  0
 13 14  1  0
 13 37  1  0
 13 38  1  0
 14 15  1  0
 14 25  1  0
 14 56  1  1
 15 23  1  0
 15 16  1  0
 15 39  1  6
 16 21  1  0
 16 17  1  0
 16 40  1  6
 17 18  1  0
 17 41  1  0
 17 42  1  0
 18 24  1  0
 18 19  1  0
 18 43  1  6
 19 20  1  0
 19 44  1  0
 19 45  1  0
 20 21  1  0
 20 22  1  0
 20 46  1  1
 21 47  1  0
 21 48  1  0
 22 23  1  0
 22 49  1  0
 22 50  1  0
 23 24  1  0
 23 51  1  1
 24 52  1  0
 24 53  1  0
 25 54  1  0
 25 55  1  0
M  CHG  1  14   1
M  END
>  <i_m_ct_stereo_status>  (289) 
1

>  <s_m_source_file>  (289) 
/var/tmp/pbs.5076255.sched01/tmpinim70aj/80j3ziidn5.sdf

>  <i_m_source_file_index>  (289) 
39

>  <i_lp_mmshare_version>  (289) 
48012

>  <i_f3d_flags>  (289) 
0

>  <s_epik_input>  (289) 
W0NIM11jKFtjSF0xKVtjSF1bY0hdYyhPMiljMUMoPU8pW0NIMl1bQ0BdMjNbQ0gyXVtDSDJdTihbQ0gyXTMpW0NASF0oW0NAQEhdNDUpW0NASF02W0NIMl1bQ0BASF0oW0NIMl01KVtDSDJdW0NAQEhdKFtDSDJdNClbQ0gyXTY=

>  <s_epik_cmdline>  (289) 
J2VwaWtfcHl0aG9uJywgJy1waHQnLCAnMi4wJywgJy1waCcsICc3LjAnLCAnLXRuJywgJzgnLCAnLW1hJywgJzIwMCcsICctaW1hZScsICc8aW5maWxlLm1hZT4nLCAnLW9tYWUnLCAnPG91dGZpbGUubWFlPic=

>  <r_lp_tautomer_probability>  (289) 
0.99995

>  <r_epik_Ionization_Penalty>  (289) 
0.00477805

>  <r_epik_Ionization_Penalty_Charging>  (289) 
0.00477805

>  <r_epik_Ionization_Penalty_Neutral>  (289) 
6.05168e-15

>  <r_epik_State_Penalty>  (289) 
0.00346277

>  <r_epik_Charging_Adjusted_Penalty>  (289) 
0.00824082

>  <i_epik_Tot_Q>  (289) 
1

>  <i_epik_Tot_abs_Q>  (289) 
1

>  <s_lp_Force_Field>  (289) 
OPLS3e

>  <r_lp_Energy>  (289) 
15.3163

>  <b_lp_Chiralities_Consistent>  (289) 
1

>  <s_lp_Variant>  (289) 
90:0-1

>  <s_i_glide_gridfile>  (289) 
pfpi4k_grid

>  <i_i_glide_lignum>  (289) 
39

>  <i_i_glide_rotatable_bonds>  (289) 
1

>  <r_i_docking_score>  (289) 
-3.09675

>  <r_i_glide_ligand_efficiency>  (289) 
-0.119106

>  <r_i_glide_ligand_efficiency_sa>  (289) 
-0.352851

>  <r_i_glide_ligand_efficiency_ln>  (289) 
-0.727262

>  <r_i_glide_gscore>  (289) 
-3.09675

>  <r_i_glide_lipo>  (289) 
-0.576858

>  <r_i_glide_hbond>  (289) 
0

>  <r_i_glide_metal>  (289) 
-0

>  <r_i_glide_rewards>  (289) 
-1.00575

>  <r_i_glide_evdw>  (289) 
-23.0293

>  <r_i_glide_ecoul>  (289) 
-3.30031

>  <r_i_glide_erotb>  (289) 
0.153607

>  <r_i_glide_esite>  (289) 
-0.0212413

>  <r_i_glide_emodel>  (289) 
-31.7221

>  <r_i_glide_energy>  (289) 
-26.3296

>  <r_i_glide_einternal>  (289) 
0.99234

>  <r_i_glide_intrahb_reward>  (289) 
-0

>  <i_i_glide_confnum>  (289) 
4

>  <i_i_glide_posenum>  (289) 
16

>  <r_i_glide_eff_state_penalty>  (289) 
0

>  <ligand_id>  (289) 
90

>  <original_smiles>  (289) 
Cc1ccc2c(c1)C(=O)CC1(CCN(C3C4CC5CC(C4)CC3C5)C1)O2

>  <smiles>  (289) 
[H]c1c([H])c(C([H])([H])[H])c([H])c2c1OC1(C([H])([H])C2=O)C([H])([H])C([H])([H])[N+]([H])(C2([H])C3([H])C([H])([H])C4([H])C([H])([H])C([H])(C3([H])[H])C([H])([H])C2([H])C4([H])[H])C1([H])[H]

$$$$
90:0:2
     RDKit          3D

 56 61  0  0  1  0  0  0  0  0999 V2000
    3.0309   -0.6859   -3.1732 C   0  0  0  0  0  0  0  0  0  0  0  0
    3.6987   -1.7896   -2.3980 C   0  0  0  0  0  0  0  0  0  0  0  0
    4.4150   -2.7919   -3.0769 C   0  0  0  0  0  0  0  0  0  0  0  0
    5.0167   -3.8297   -2.3535 C   0  0  0  0  0  0  0  0  0  0  0  0
    4.9128   -3.8805   -0.9500 C   0  0  0  0  0  0  0  0  0  0  0  0
    4.2303   -2.8423   -0.2590 C   0  0  0  0  0  0  0  0  0  0  0  0
    3.6061   -1.8209   -0.9865 C   0  0  0  0  0  0  0  0  0  0  0  0
    4.1640   -2.8664    1.2240 C   0  0  0  0  0  0  0  0  0  0  0  0
    3.4827   -2.1106    1.9162 O   0  0  0  0  0  0  0  0  0  0  0  0
    4.9702   -3.9893    1.8792 C   0  0  0  0  0  0  0  0  0  0  0  0
    4.9212   -5.2550    0.9960 C   0  0  1  0  0  0  0  0  0  0  0  0
    5.7052   -6.4294    1.6160 C   0  0  0  0  0  0  0  0  0  0  0  0
    4.6852   -7.5154    1.8851 C   0  0  0  0  0  0  0  0  0  0  0  0
    3.3885   -6.8098    1.9316 N   0  0  2  0  0  0  0  0  0  0  0  0
    2.1567   -7.6173    1.8986 C   0  0  2  0  0  0  0  0  0  0  0  0
    0.8885   -6.7307    2.1459 C   0  0  1  0  0  0  0  0  0  0  0  0
   -0.3702   -7.5945    1.9936 C   0  0  0  0  0  0  0  0  0  0  0  0
   -0.3365   -8.7271    3.0372 C   0  0  2  0  0  0  0  0  0  0  0  0
   -0.2810   -8.1175    4.4582 C   0  0  0  0  0  0  0  0  0  0  0  0
    0.9797   -7.2365    4.6065 C   0  0  2  0  0  0  0  0  0  0  0  0
    0.9336   -6.1020    3.5622 C   0  0  0  0  0  0  0  0  0  0  0  0
    2.2335   -8.1145    4.3860 C   0  0  0  0  0  0  0  0  0  0  0  0
    2.1805   -8.7402    2.9653 C   0  0  1  0  0  0  0  0  0  0  0  0
    0.9162   -9.6010    2.8165 C   0  0  0  0  0  0  0  0  0  0  0  0
    3.4856   -5.8000    0.8686 C   0  0  0  0  0  0  0  0  0  0  0  0
    5.4520   -4.9658   -0.2956 O   0  0  0  0  0  0  0  0  0  0  0  0
    2.6244   -1.0541   -4.1164 H   0  0  0  0  0  0  0  0  0  0  0  0
    3.7567    0.0991   -3.3815 H   0  0  0  0  0  0  0  0  0  0  0  0
    2.2145   -0.2563   -2.5952 H   0  0  0  0  0  0  0  0  0  0  0  0
    4.4943   -2.7797   -4.1537 H   0  0  0  0  0  0  0  0  0  0  0  0
    5.5062   -4.6308   -2.8857 H   0  0  0  0  0  0  0  0  0  0  0  0
    3.0196   -1.0688   -0.4738 H   0  0  0  0  0  0  0  0  0  0  0  0
    5.9904   -3.6636    2.0732 H   0  0  0  0  0  0  0  0  0  0  0  0
    4.5200   -4.2157    2.8466 H   0  0  0  0  0  0  0  0  0  0  0  0
    6.4845   -6.8117    0.9542 H   0  0  0  0  0  0  0  0  0  0  0  0
    6.1781   -6.1290    2.5561 H   0  0  0  0  0  0  0  0  0  0  0  0
    4.6625   -8.2222    1.0509 H   0  0  0  0  0  0  0  0  0  0  0  0
    4.9302   -8.0538    2.8010 H   0  0  0  0  0  0  0  0  0  0  0  0
    2.0680   -8.0806    0.9144 H   0  0  0  0  0  0  0  0  0  0  0  0
    0.8166   -5.9433    1.3995 H   0  0  0  0  0  0  0  0  0  0  0  0
   -1.2704   -6.9971    2.1092 H   0  0  0  0  0  0  0  0  0  0  0  0
   -0.4028   -7.9924    0.9809 H   0  0  0  0  0  0  0  0  0  0  0  0
   -1.2293   -9.3441    2.9346 H   0  0  0  0  0  0  0  0  0  0  0  0
   -1.1796   -7.5296    4.6567 H   0  0  0  0  0  0  0  0  0  0  0  0
   -0.2578   -8.9222    5.1963 H   0  0  0  0  0  0  0  0  0  0  0  0
    1.0100   -6.8023    5.6102 H   0  0  0  0  0  0  0  0  0  0  0  0
    1.7915   -5.4420    3.6771 H   0  0  0  0  0  0  0  0  0  0  0  0
    0.0598   -5.4743    3.7267 H   0  0  0  0  0  0  0  0  0  0  0  0
    3.1332   -7.5171    4.5247 H   0  0  0  0  0  0  0  0  0  0  0  0
    2.2806   -8.9053    5.1324 H   0  0  0  0  0  0  0  0  0  0  0  0
    3.0348   -9.4052    2.8123 H   0  0  0  0  0  0  0  0  0  0  0  0
    0.9391  -10.4173    3.5346 H   0  0  0  0  0  0  0  0  0  0  0  0
    0.8971  -10.0564    1.8251 H   0  0  0  0  0  0  0  0  0  0  0  0
    2.7000   -5.0454    0.9740 H   0  0  0  0  0  0  0  0  0  0  0  0
    3.3484   -6.2792   -0.1119 H   0  0  0  0  0  0  0  0  0  0  0  0
    3.3932   -6.3007    2.8099 H   0  0  0  0  0  0  0  0  0  0  0  0
  1  2  1  0
  1 27  1  0
  1 28  1  0
  1 29  1  0
  2  7  2  0
  2  3  1  0
  3  4  2  0
  3 30  1  0
  4  5  1  0
  4 31  1  0
  5 26  1  0
  5  6  2  0
  6  7  1  0
  6  8  1  0
  7 32  1  0
  8  9  2  0
  8 10  1  0
 10 11  1  0
 10 33  1  0
 10 34  1  0
 11 25  1  0
 11 12  1  0
 11 26  1  6
 12 13  1  0
 12 35  1  0
 12 36  1  0
 13 14  1  0
 13 37  1  0
 13 38  1  0
 14 15  1  0
 14 25  1  0
 14 56  1  1
 15 23  1  0
 15 16  1  0
 15 39  1  6
 16 21  1  0
 16 17  1  0
 16 40  1  6
 17 18  1  0
 17 41  1  0
 17 42  1  0
 18 24  1  0
 18 19  1  0
 18 43  1  1
 19 20  1  0
 19 44  1  0
 19 45  1  0
 20 21  1  0
 20 22  1  0
 20 46  1  1
 21 47  1  0
 21 48  1  0
 22 23  1  0
 22 49  1  0
 22 50  1  0
 23 24  1  0
 23 51  1  6
 24 52  1  0
 24 53  1  0
 25 54  1  0
 25 55  1  0
M  CHG  1  14   1
M  END
>  <i_m_ct_stereo_status>  (290) 
1

>  <s_m_source_file>  (290) 
/var/tmp/pbs.5076255.sched01/tmpinim70aj/80j3ziidn5.sdf

>  <i_m_source_file_index>  (290) 
39

>  <i_lp_mmshare_version>  (290) 
48012

>  <i_f3d_flags>  (290) 
0

>  <s_epik_input>  (290) 
W0NIM11jKFtjSF0xKVtjSF1bY0hdYyhPMiljMUMoPU8pW0NIMl1bQ0BdMjNbQ0gyXVtDSDJdTihbQ0gyXTMpW0NASF0oW0NAQEhdNDUpW0NASF02W0NIMl1bQ0BASF0oW0NIMl01KVtDSDJdW0NAQEhdKFtDSDJdNClbQ0gyXTY=

>  <s_epik_cmdline>  (290) 
J2VwaWtfcHl0aG9uJywgJy1waHQnLCAnMi4wJywgJy1waCcsICc3LjAnLCAnLXRuJywgJzgnLCAnLW1hJywgJzIwMCcsICctaW1hZScsICc8aW5maWxlLm1hZT4nLCAnLW9tYWUnLCAnPG91dGZpbGUubWFlPic=

>  <r_lp_tautomer_probability>  (290) 
0.99995

>  <r_epik_Ionization_Penalty>  (290) 
0.00477805

>  <r_epik_Ionization_Penalty_Charging>  (290) 
0.00477805

>  <r_epik_Ionization_Penalty_Neutral>  (290) 
6.05168e-15

>  <r_epik_State_Penalty>  (290) 
0.00346277

>  <r_epik_Charging_Adjusted_Penalty>  (290) 
0.00824082

>  <i_epik_Tot_Q>  (290) 
1

>  <i_epik_Tot_abs_Q>  (290) 
1

>  <s_lp_Force_Field>  (290) 
OPLS3e

>  <r_lp_Energy>  (290) 
15.3163

>  <b_lp_Chiralities_Consistent>  (290) 
1

>  <s_lp_Variant>  (290) 
90:0-1

>  <s_i_glide_gridfile>  (290) 
pfpi4k_grid

>  <i_i_glide_lignum>  (290) 
39

>  <i_i_glide_rotatable_bonds>  (290) 
1

>  <r_i_docking_score>  (290) 
-2.63976

>  <r_i_glide_ligand_efficiency>  (290) 
-0.101529

>  <r_i_glide_ligand_efficiency_sa>  (290) 
-0.30078

>  <r_i_glide_ligand_efficiency_ln>  (290) 
-0.619939

>  <r_i_glide_gscore>  (290) 
-2.63976

>  <r_i_glide_lipo>  (290) 
-0.418856

>  <r_i_glide_hbond>  (290) 
0

>  <r_i_glide_metal>  (290) 
-0

>  <r_i_glide_rewards>  (290) 
-1.01221

>  <r_i_glide_evdw>  (290) 
-25.2358

>  <r_i_glide_ecoul>  (290) 
-0.670066

>  <r_i_glide_erotb>  (290) 
0.153607

>  <r_i_glide_esite>  (290) 
0

>  <r_i_glide_emodel>  (290) 
-30.8567

>  <r_i_glide_energy>  (290) 
-25.9059

>  <r_i_glide_einternal>  (290) 
0.128392

>  <r_i_glide_intrahb_reward>  (290) 
-0

>  <i_i_glide_confnum>  (290) 
1

>  <i_i_glide_posenum>  (290) 
17

>  <r_i_glide_eff_state_penalty>  (290) 
0

>  <ligand_id>  (290) 
90

>  <original_smiles>  (290) 
Cc1ccc2c(c1)C(=O)CC1(CCN(C3C4CC5CC(C4)CC3C5)C1)O2

>  <smiles>  (290) 
[H]c1c([H])c(C([H])([H])[H])c([H])c2c1OC1(C([H])([H])C2=O)C([H])([H])C([H])([H])[N+]([H])(C2([H])C3([H])C([H])([H])C4([H])C([H])([H])C([H])(C3([H])[H])C([H])([H])C2([H])C4([H])[H])C1([H])[H]

$$$$
91:0:0
     RDKit          3D

 66 69  0  0  1  0  0  0  0  0999 V2000
    6.7798   -9.5804    1.8662 C   0  0  0  0  0  0  0  0  0  0  0  0
    5.2728   -9.6824    2.0681 C   0  0  0  0  0  0  0  0  0  0  0  0
    4.8606   -9.5429    3.5409 C   0  0  0  0  0  0  0  0  0  0  0  0
    3.3447   -9.6157    3.7669 C   0  0  2  0  0  0  0  0  0  0  0  0
    2.7784  -11.0142    3.4568 C   0  0  0  0  0  0  0  0  0  0  0  0
    1.2600  -10.9876    3.5071 C   0  0  0  0  0  0  0  0  0  0  0  0
    0.6154  -11.8734    4.0566 O   0  0  0  0  0  0  0  0  0  0  0  0
    0.6023   -9.8098    2.7919 C   0  0  0  0  0  0  0  0  0  0  0  0
    1.2967   -8.4905    3.1856 C   0  0  1  0  0  0  0  0  0  0  0  0
    0.9943   -8.0556    4.6163 C   0  0  0  0  0  0  0  0  0  0  0  0
    1.0202   -6.7855    5.0462 C   0  0  0  0  0  0  0  0  0  0  0  0
    0.7793   -6.3707    6.4882 C   0  0  2  0  0  0  0  0  0  0  0  0
   -0.3014   -5.2776    6.5825 C   0  0  2  0  0  0  0  0  0  0  0  0
    0.0267   -4.2054    5.7170 O   0  0  0  0  0  0  0  0  0  0  0  0
   -0.1160   -3.0105    6.4021 C   0  0  0  0  0  0  0  0  0  0  0  0
    1.1224   -2.1539    6.1248 C   0  0  0  0  0  0  0  0  0  0  0  0
   -1.4127   -2.3223    5.9498 C   0  0  0  0  0  0  0  0  0  0  0  0
   -0.1772   -3.2397    7.7666 O   0  0  0  0  0  0  0  0  0  0  0  0
   -0.4440   -4.6135    7.9655 C   0  0  2  0  0  0  0  0  0  0  0  0
    0.4691   -5.1405    9.0989 C   0  0  1  0  0  0  0  0  0  0  0  0
   -0.1956   -6.1828    9.7746 O   0  0  0  0  0  0  0  0  0  0  0  0
    0.7271   -7.1536   10.1002 C   0  0  0  0  0  0  0  0  0  0  0  0
    1.1518   -6.9873   11.5677 C   0  0  0  0  0  0  0  0  0  0  0  0
    0.0768   -8.5141    9.8245 C   0  0  0  0  0  0  0  0  0  0  0  0
    1.8365   -7.0281    9.2876 O   0  0  0  0  0  0  0  0  0  0  0  0
    1.8286   -5.7369    8.7018 C   0  0  1  0  0  0  0  0  0  0  0  0
    2.0669   -5.8901    7.1840 C   0  0  1  0  0  0  0  0  0  0  0  0
    3.1320   -6.8055    6.9424 O   0  0  0  0  0  0  0  0  0  0  0  0
    4.4220   -6.3104    7.2737 C   0  0  0  0  0  0  0  0  0  0  0  0
    2.7070   -8.6077    2.9730 O   0  0  0  0  0  0  0  0  0  0  0  0
    7.0178   -9.6824    0.8082 H   0  0  0  0  0  0  0  0  0  0  0  0
    7.2937  -10.3718    2.4120 H   0  0  0  0  0  0  0  0  0  0  0  0
    7.1611   -8.6205    2.2128 H   0  0  0  0  0  0  0  0  0  0  0  0
    4.7769   -8.9195    1.4670 H   0  0  0  0  0  0  0  0  0  0  0  0
    4.9510  -10.6484    1.6862 H   0  0  0  0  0  0  0  0  0  0  0  0
    5.3433  -10.3250    4.1269 H   0  0  0  0  0  0  0  0  0  0  0  0
    5.2413   -8.6002    3.9372 H   0  0  0  0  0  0  0  0  0  0  0  0
    3.1925   -9.4058    4.8268 H   0  0  0  0  0  0  0  0  0  0  0  0
    3.0690  -11.3693    2.4699 H   0  0  0  0  0  0  0  0  0  0  0  0
    3.1490  -11.7380    4.1849 H   0  0  0  0  0  0  0  0  0  0  0  0
    0.6929   -9.9735    1.7187 H   0  0  0  0  0  0  0  0  0  0  0  0
   -0.4624   -9.7887    3.0244 H   0  0  0  0  0  0  0  0  0  0  0  0
    0.9442   -7.7066    2.5166 H   0  0  0  0  0  0  0  0  0  0  0  0
    0.7690   -8.8328    5.3303 H   0  0  0  0  0  0  0  0  0  0  0  0
    1.2434   -5.9869    4.3558 H   0  0  0  0  0  0  0  0  0  0  0  0
    0.4281   -7.2556    7.0165 H   0  0  0  0  0  0  0  0  0  0  0  0
   -1.2658   -5.6799    6.2715 H   0  0  0  0  0  0  0  0  0  0  0  0
    2.0146   -2.6660    6.4855 H   0  0  0  0  0  0  0  0  0  0  0  0
    1.0335   -1.1985    6.6416 H   0  0  0  0  0  0  0  0  0  0  0  0
    1.2203   -1.9809    5.0526 H   0  0  0  0  0  0  0  0  0  0  0  0
   -2.2802   -2.9463    6.1738 H   0  0  0  0  0  0  0  0  0  0  0  0
   -1.3761   -2.1336    4.8764 H   0  0  0  0  0  0  0  0  0  0  0  0
   -1.5089   -1.3680    6.4648 H   0  0  0  0  0  0  0  0  0  0  0  0
   -1.4867   -4.6761    8.2801 H   0  0  0  0  0  0  0  0  0  0  0  0
    0.6258   -4.3510    9.8353 H   0  0  0  0  0  0  0  0  0  0  0  0
    1.6062   -6.0095   11.7358 H   0  0  0  0  0  0  0  0  0  0  0  0
    1.8759   -7.7598   11.8260 H   0  0  0  0  0  0  0  0  0  0  0  0
    0.2831   -7.0888   12.2178 H   0  0  0  0  0  0  0  0  0  0  0  0
   -0.2435   -8.5664    8.7830 H   0  0  0  0  0  0  0  0  0  0  0  0
   -0.7916   -8.6531   10.4681 H   0  0  0  0  0  0  0  0  0  0  0  0
    0.7951   -9.3107   10.0141 H   0  0  0  0  0  0  0  0  0  0  0  0
    2.6157   -5.1362    9.1575 H   0  0  0  0  0  0  0  0  0  0  0  0
    2.3372   -4.9244    6.7576 H   0  0  0  0  0  0  0  0  0  0  0  0
    5.1707   -7.0657    7.0367 H   0  0  0  0  0  0  0  0  0  0  0  0
    4.5154   -6.0817    8.3362 H   0  0  0  0  0  0  0  0  0  0  0  0
    4.6549   -5.4116    6.7008 H   0  0  0  0  0  0  0  0  0  0  0  0
  1  2  1  0
  1 31  1  0
  1 32  1  0
  1 33  1  0
  2  3  1  0
  2 34  1  0
  2 35  1  0
  3  4  1  0
  3 36  1  0
  3 37  1  0
  4 30  1  0
  4  5  1  0
  4 38  1  1
  5  6  1  0
  5 39  1  0
  5 40  1  0
  6  7  2  0
  6  8  1  0
  8  9  1  0
  8 41  1  0
  8 42  1  0
  9 10  1  0
  9 30  1  0
  9 43  1  6
 10 11  2  3
 10 44  1  0
 11 12  1  0
 11 45  1  0
 12 27  1  0
 12 13  1  0
 12 46  1  1
 13 19  1  0
 13 14  1  0
 13 47  1  6
 14 15  1  0
 15 16  1  0
 15 17  1  0
 15 18  1  0
 16 48  1  0
 16 49  1  0
 16 50  1  0
 17 51  1  0
 17 52  1  0
 17 53  1  0
 18 19  1  0
 19 20  1  0
 19 54  1  1
 20 26  1  0
 20 21  1  0
 20 55  1  1
 21 22  1  0
 22 23  1  0
 22 24  1  0
 22 25  1  0
 23 56  1  0
 23 57  1  0
 23 58  1  0
 24 59  1  0
 24 60  1  0
 24 61  1  0
 25 26  1  0
 26 27  1  0
 26 62  1  1
 27 28  1  0
 27 63  1  6
 28 29  1  0
 29 64  1  0
 29 65  1  0
 29 66  1  0
M  END
>  <i_m_ct_stereo_status>  (291) 
1

>  <s_m_source_file>  (291) 
/var/tmp/pbs.5076255.sched01/tmpinim70aj/80j3ziidn5.sdf

>  <i_m_source_file_index>  (291) 
40

>  <i_lp_mmshare_version>  (291) 
48012

>  <i_f3d_flags>  (291) 
0

>  <s_epik_input>  (291) 
W0NIM11bQ0gyXVtDSDJdW0NAQEhdMVtDSDJdQyg9TylbQ0gyXVtDQEhdKE8xKS9bQ0hdPVtDSF0vW0NASF0yW0NASF0oT1tDSDNdKVtDQEhdKE9DKE8zKShbQ0gzXSlbQ0gzXSlbQ0BIXTNbQ0BIXShbQ0BIXTI0KU9DKE80KShbQ0gzXSlbQ0gzXQ==

>  <s_epik_cmdline>  (291) 
J2VwaWtfcHl0aG9uJywgJy1waHQnLCAnMi4wJywgJy1waCcsICc3LjAnLCAnLXRuJywgJzgnLCAnLW1hJywgJzIwMCcsICctaW1hZScsICc8aW5maWxlLm1hZT4nLCAnLW9tYWUnLCAnPG91dGZpbGUubWFlPic=

>  <r_lp_tautomer_probability>  (291) 
1

>  <r_epik_Ionization_Penalty>  (291) 
4.26722e-12

>  <r_epik_Ionization_Penalty_Charging>  (291) 
0

>  <r_epik_Ionization_Penalty_Neutral>  (291) 
4.26722e-12

>  <r_epik_State_Penalty>  (291) 
-0

>  <r_epik_Charging_Adjusted_Penalty>  (291) 
0

>  <i_epik_Tot_Q>  (291) 
0

>  <i_epik_Tot_abs_Q>  (291) 
0

>  <s_lp_Force_Field>  (291) 
OPLS3e

>  <r_lp_Energy>  (291) 
-25.432

>  <b_lp_Chiralities_Consistent>  (291) 
1

>  <s_lp_Variant>  (291) 
91:0-1

>  <s_i_glide_gridfile>  (291) 
pfpi4k_grid

>  <i_i_glide_lignum>  (291) 
40

>  <i_i_glide_rotatable_bonds>  (291) 
5

>  <r_i_docking_score>  (291) 
-2.35332

>  <r_i_glide_ligand_efficiency>  (291) 
-0.0784439

>  <r_i_glide_ligand_efficiency_sa>  (291) 
-0.243743

>  <r_i_glide_ligand_efficiency_ln>  (291) 
-0.534699

>  <r_i_glide_gscore>  (291) 
-2.35332

>  <r_i_glide_lipo>  (291) 
-0.093166

>  <r_i_glide_hbond>  (291) 
-0.32

>  <r_i_glide_metal>  (291) 
-0

>  <r_i_glide_rewards>  (291) 
-0.770468

>  <r_i_glide_evdw>  (291) 
-20.3503

>  <r_i_glide_ecoul>  (291) 
-2.89507

>  <r_i_glide_erotb>  (291) 
0.330075

>  <r_i_glide_esite>  (291) 
-0.047984

>  <r_i_glide_emodel>  (291) 
-25.4654

>  <r_i_glide_energy>  (291) 
-23.2453

>  <r_i_glide_einternal>  (291) 
2.89583

>  <r_i_glide_intrahb_reward>  (291) 
-0

>  <i_i_glide_confnum>  (291) 
3

>  <i_i_glide_posenum>  (291) 
7

>  <r_i_glide_eff_state_penalty>  (291) 
0

>  <ligand_id>  (291) 
91

>  <original_smiles>  (291) 
CCCC1CC(=O)CC(C=CC2C3OC(C)(C)OC3C3OC(C)(C)OC3C2OC)O1

>  <smiles>  (291) 
[H]C(=C([H])C1([H])C([H])(OC([H])([H])[H])C2([H])OC(C([H])([H])[H])(C([H])([H])[H])OC2([H])C2([H])OC(C([H])([H])[H])(C([H])([H])[H])OC21[H])C1([H])OC([H])(C([H])([H])C([H])([H])C([H])([H])[H])C([H])([H])C(=O)C1([H])[H]

$$$$
91:0:1
     RDKit          3D

 66 69  0  0  1  0  0  0  0  0999 V2000
    1.6457    3.8335    3.6451 C   0  0  0  0  0  0  0  0  0  0  0  0
    2.3924    2.4982    3.6741 C   0  0  0  0  0  0  0  0  0  0  0  0
    2.3842    1.8567    5.0695 C   0  0  0  0  0  0  0  0  0  0  0  0
    3.1035    0.5025    5.1147 C   0  0  2  0  0  0  0  0  0  0  0  0
    2.8897   -0.2024    6.4682 C   0  0  0  0  0  0  0  0  0  0  0  0
    3.7784   -1.4363    6.5824 C   0  0  0  0  0  0  0  0  0  0  0  0
    3.3652   -2.5057    7.0264 O   0  0  0  0  0  0  0  0  0  0  0  0
    5.2258   -1.2395    6.1436 C   0  0  0  0  0  0  0  0  0  0  0  0
    5.2684   -0.4917    4.7971 C   0  0  1  0  0  0  0  0  0  0  0  0
    4.8184   -1.3601    3.6351 C   0  0  0  0  0  0  0  0  0  0  0  0
    5.4436   -1.4313    2.4502 C   0  0  0  0  0  0  0  0  0  0  0  0
    5.0019   -2.2701    1.2579 C   0  0  2  0  0  0  0  0  0  0  0  0
    4.1747   -3.5260    1.6367 C   0  0  2  0  0  0  0  0  0  0  0  0
    4.8863   -4.2834    2.5990 O   0  0  0  0  0  0  0  0  0  0  0  0
    4.8748   -5.6178    2.2236 C   0  0  0  0  0  0  0  0  0  0  0  0
    6.2963   -6.1614    2.3789 C   0  0  0  0  0  0  0  0  0  0  0  0
    3.8510   -6.3755    3.0867 C   0  0  0  0  0  0  0  0  0  0  0  0
    4.5325   -5.7326    0.8883 O   0  0  0  0  0  0  0  0  0  0  0  0
    3.9230   -4.5260    0.4896 C   0  0  2  0  0  0  0  0  0  0  0  0
    4.4566   -4.1413   -0.9057 C   0  0  1  0  0  0  0  0  0  0  0  0
    3.4531   -3.4186   -1.5776 O   0  0  0  0  0  0  0  0  0  0  0  0
    4.0710   -2.4288   -2.3142 C   0  0  0  0  0  0  0  0  0  0  0  0
    4.2316   -2.8711   -3.7743 C   0  0  0  0  0  0  0  0  0  0  0  0
    3.2248   -1.1672   -2.1928 C   0  0  0  0  0  0  0  0  0  0  0  0
    5.3248   -2.1596   -1.7880 O   0  0  0  0  0  0  0  0  0  0  0  0
    5.7106   -3.2486   -0.9671 C   0  0  1  0  0  0  0  0  0  0  0  0
    6.1938   -2.6971    0.3873 C   0  0  1  0  0  0  0  0  0  0  0  0
    7.0608   -1.5897    0.1537 O   0  0  0  0  0  0  0  0  0  0  0  0
    8.4261   -1.9427   -0.0060 C   0  0  0  0  0  0  0  0  0  0  0  0
    4.4994    0.7112    4.8831 O   0  0  0  0  0  0  0  0  0  0  0  0
    1.6726    4.2732    2.6477 H   0  0  0  0  0  0  0  0  0  0  0  0
    2.0943    4.5463    4.3355 H   0  0  0  0  0  0  0  0  0  0  0  0
    0.6001    3.7056    3.9228 H   0  0  0  0  0  0  0  0  0  0  0  0
    1.9422    1.8213    2.9476 H   0  0  0  0  0  0  0  0  0  0  0  0
    3.4152    2.6586    3.3416 H   0  0  0  0  0  0  0  0  0  0  0  0
    2.8139    2.5434    5.8005 H   0  0  0  0  0  0  0  0  0  0  0  0
    1.3451    1.7093    5.3649 H   0  0  0  0  0  0  0  0  0  0  0  0
    2.6683   -0.1048    4.3213 H   0  0  0  0  0  0  0  0  0  0  0  0
    3.1233    0.4724    7.2938 H   0  0  0  0  0  0  0  0  0  0  0  0
    1.8436   -0.4977    6.5692 H   0  0  0  0  0  0  0  0  0  0  0  0
    5.7454   -0.6645    6.9085 H   0  0  0  0  0  0  0  0  0  0  0  0
    5.7274   -2.2062    6.0715 H   0  0  0  0  0  0  0  0  0  0  0  0
    6.2978   -0.1833    4.6136 H   0  0  0  0  0  0  0  0  0  0  0  0
    3.9266   -1.9517    3.7800 H   0  0  0  0  0  0  0  0  0  0  0  0
    6.3336   -0.8355    2.3055 H   0  0  0  0  0  0  0  0  0  0  0  0
    4.3723   -1.6123    0.6577 H   0  0  0  0  0  0  0  0  0  0  0  0
    3.2116   -3.2405    2.0611 H   0  0  0  0  0  0  0  0  0  0  0  0
    6.9723   -5.6112    1.7239 H   0  0  0  0  0  0  0  0  0  0  0  0
    6.3174   -7.2159    2.0995 H   0  0  0  0  0  0  0  0  0  0  0  0
    6.6261   -6.0460    3.4129 H   0  0  0  0  0  0  0  0  0  0  0  0
    2.8489   -5.9693    2.9556 H   0  0  0  0  0  0  0  0  0  0  0  0
    4.1288   -6.2957    4.1398 H   0  0  0  0  0  0  0  0  0  0  0  0
    3.8445   -7.4301    2.8069 H   0  0  0  0  0  0  0  0  0  0  0  0
    2.8520   -4.7327    0.4247 H   0  0  0  0  0  0  0  0  0  0  0  0
    4.6394   -5.0429   -1.4915 H   0  0  0  0  0  0  0  0  0  0  0  0
    4.8618   -3.7575   -3.8525 H   0  0  0  0  0  0  0  0  0  0  0  0
    4.6871   -2.0500   -4.3243 H   0  0  0  0  0  0  0  0  0  0  0  0
    3.2533   -3.0848   -4.2107 H   0  0  0  0  0  0  0  0  0  0  0  0
    3.0982   -0.9238   -1.1382 H   0  0  0  0  0  0  0  0  0  0  0  0
    2.2416   -1.3545   -2.6301 H   0  0  0  0  0  0  0  0  0  0  0  0
    3.7046   -0.3341   -2.7072 H   0  0  0  0  0  0  0  0  0  0  0  0
    6.5185   -3.7897   -1.4616 H   0  0  0  0  0  0  0  0  0  0  0  0
    6.7314   -3.4756    0.9278 H   0  0  0  0  0  0  0  0  0  0  0  0
    9.0144   -1.0350   -0.1151 H   0  0  0  0  0  0  0  0  0  0  0  0
    8.5725   -2.5596   -0.8951 H   0  0  0  0  0  0  0  0  0  0  0  0
    8.8058   -2.4726    0.8691 H   0  0  0  0  0  0  0  0  0  0  0  0
  1  2  1  0
  1 31  1  0
  1 32  1  0
  1 33  1  0
  2  3  1  0
  2 34  1  0
  2 35  1  0
  3  4  1  0
  3 36  1  0
  3 37  1  0
  4 30  1  0
  4  5  1  0
  4 38  1  6
  5  6  1  0
  5 39  1  0
  5 40  1  0
  6  7  2  0
  6  8  1  0
  8  9  1  0
  8 41  1  0
  8 42  1  0
  9 10  1  0
  9 30  1  0
  9 43  1  6
 10 11  2  3
 10 44  1  0
 11 12  1  0
 11 45  1  0
 12 27  1  0
 12 13  1  0
 12 46  1  6
 13 19  1  0
 13 14  1  0
 13 47  1  1
 14 15  1  0
 15 16  1  0
 15 17  1  0
 15 18  1  0
 16 48  1  0
 16 49  1  0
 16 50  1  0
 17 51  1  0
 17 52  1  0
 17 53  1  0
 18 19  1  0
 19 20  1  0
 19 54  1  6
 20 26  1  0
 20 21  1  0
 20 55  1  6
 21 22  1  0
 22 23  1  0
 22 24  1  0
 22 25  1  0
 23 56  1  0
 23 57  1  0
 23 58  1  0
 24 59  1  0
 24 60  1  0
 24 61  1  0
 25 26  1  0
 26 27  1  0
 26 62  1  6
 27 28  1  0
 27 63  1  1
 28 29  1  0
 29 64  1  0
 29 65  1  0
 29 66  1  0
M  END
>  <i_m_ct_stereo_status>  (292) 
1

>  <s_m_source_file>  (292) 
/var/tmp/pbs.5076255.sched01/tmpinim70aj/80j3ziidn5.sdf

>  <i_m_source_file_index>  (292) 
40

>  <i_lp_mmshare_version>  (292) 
48012

>  <i_f3d_flags>  (292) 
0

>  <s_epik_input>  (292) 
W0NIM11bQ0gyXVtDSDJdW0NAQEhdMVtDSDJdQyg9TylbQ0gyXVtDQEhdKE8xKS9bQ0hdPVtDSF0vW0NASF0yW0NASF0oT1tDSDNdKVtDQEhdKE9DKE8zKShbQ0gzXSlbQ0gzXSlbQ0BIXTNbQ0BIXShbQ0BIXTI0KU9DKE80KShbQ0gzXSlbQ0gzXQ==

>  <s_epik_cmdline>  (292) 
J2VwaWtfcHl0aG9uJywgJy1waHQnLCAnMi4wJywgJy1waCcsICc3LjAnLCAnLXRuJywgJzgnLCAnLW1hJywgJzIwMCcsICctaW1hZScsICc8aW5maWxlLm1hZT4nLCAnLW9tYWUnLCAnPG91dGZpbGUubWFlPic=

>  <r_lp_tautomer_probability>  (292) 
1

>  <r_epik_Ionization_Penalty>  (292) 
4.26722e-12

>  <r_epik_Ionization_Penalty_Charging>  (292) 
0

>  <r_epik_Ionization_Penalty_Neutral>  (292) 
4.26722e-12

>  <r_epik_State_Penalty>  (292) 
-0

>  <r_epik_Charging_Adjusted_Penalty>  (292) 
0

>  <i_epik_Tot_Q>  (292) 
0

>  <i_epik_Tot_abs_Q>  (292) 
0

>  <s_lp_Force_Field>  (292) 
OPLS3e

>  <r_lp_Energy>  (292) 
-25.432

>  <b_lp_Chiralities_Consistent>  (292) 
1

>  <s_lp_Variant>  (292) 
91:0-1

>  <s_i_glide_gridfile>  (292) 
pfpi4k_grid

>  <i_i_glide_lignum>  (292) 
40

>  <i_i_glide_rotatable_bonds>  (292) 
5

>  <r_i_docking_score>  (292) 
-2.21294

>  <r_i_glide_ligand_efficiency>  (292) 
-0.0737647

>  <r_i_glide_ligand_efficiency_sa>  (292) 
-0.229204

>  <r_i_glide_ligand_efficiency_ln>  (292) 
-0.502804

>  <r_i_glide_gscore>  (292) 
-2.21294

>  <r_i_glide_lipo>  (292) 
-0.59138

>  <r_i_glide_hbond>  (292) 
-0.0671063

>  <r_i_glide_metal>  (292) 
-0

>  <r_i_glide_rewards>  (292) 
-0.573255

>  <r_i_glide_evdw>  (292) 
-23.5787

>  <r_i_glide_ecoul>  (292) 
-0.882273

>  <r_i_glide_erotb>  (292) 
0.330075

>  <r_i_glide_esite>  (292) 
0

>  <r_i_glide_emodel>  (292) 
-26.7754

>  <r_i_glide_energy>  (292) 
-24.461

>  <r_i_glide_einternal>  (292) 
2.19632

>  <r_i_glide_intrahb_reward>  (292) 
-0

>  <i_i_glide_confnum>  (292) 
5

>  <i_i_glide_posenum>  (292) 
39

>  <r_i_glide_eff_state_penalty>  (292) 
0

>  <ligand_id>  (292) 
91

>  <original_smiles>  (292) 
CCCC1CC(=O)CC(C=CC2C3OC(C)(C)OC3C3OC(C)(C)OC3C2OC)O1

>  <smiles>  (292) 
[H]C(=C([H])C1([H])C([H])(OC([H])([H])[H])C2([H])OC(C([H])([H])[H])(C([H])([H])[H])OC2([H])C2([H])OC(C([H])([H])[H])(C([H])([H])[H])OC21[H])C1([H])OC([H])(C([H])([H])C([H])([H])C([H])([H])[H])C([H])([H])C(=O)C1([H])[H]

$$$$
91:0:2
     RDKit          3D

 66 69  0  0  1  0  0  0  0  0999 V2000
    4.8247    0.6940    4.1051 C   0  0  0  0  0  0  0  0  0  0  0  0
    4.5023   -0.1275    2.8550 C   0  0  0  0  0  0  0  0  0  0  0  0
    5.1132   -1.5355    2.9070 C   0  0  0  0  0  0  0  0  0  0  0  0
    4.7774   -2.4088    1.6906 C   0  0  2  0  0  0  0  0  0  0  0  0
    5.5818   -1.9931    0.4427 C   0  0  0  0  0  0  0  0  0  0  0  0
    5.0792   -2.7322   -0.7920 C   0  0  0  0  0  0  0  0  0  0  0  0
    5.8445   -3.1959   -1.6349 O   0  0  0  0  0  0  0  0  0  0  0  0
    3.5610   -2.7953   -0.9381 C   0  0  0  0  0  0  0  0  0  0  0  0
    2.9038   -3.1927    0.4005 C   0  0  1  0  0  0  0  0  0  0  0  0
    3.1153   -4.6567    0.7670 C   0  0  0  0  0  0  0  0  0  0  0  0
    2.3455   -5.3381    1.6301 C   0  0  0  0  0  0  0  0  0  0  0  0
    2.5995   -6.7787    2.0413 C   0  0  2  0  0  0  0  0  0  0  0  0
    1.3430   -7.6484    1.8391 C   0  0  2  0  0  0  0  0  0  0  0  0
    0.2321   -7.0433    2.4811 O   0  0  0  0  0  0  0  0  0  0  0  0
   -0.4262   -8.0156    3.2233 C   0  0  0  0  0  0  0  0  0  0  0  0
   -0.7241   -7.4345    4.6055 C   0  0  0  0  0  0  0  0  0  0  0  0
   -1.7010   -8.4416    2.4787 C   0  0  0  0  0  0  0  0  0  0  0  0
    0.3887   -9.1143    3.4089 O   0  0  0  0  0  0  0  0  0  0  0  0
    1.4242   -9.0599    2.4560 C   0  0  2  0  0  0  0  0  0  0  0  0
    2.7445   -9.4552    3.1525 C   0  0  1  0  0  0  0  0  0  0  0  0
    3.5928  -10.0465    2.2001 O   0  0  0  0  0  0  0  0  0  0  0  0
    4.8863   -9.6439    2.4671 C   0  0  0  0  0  0  0  0  0  0  0  0
    5.6258  -10.7273    3.2725 C   0  0  0  0  0  0  0  0  0  0  0  0
    5.5617   -9.3481    1.1274 C   0  0  0  0  0  0  0  0  0  0  0  0
    4.8658   -8.4733    3.2040 O   0  0  0  0  0  0  0  0  0  0  0  0
    3.5811   -8.3289    3.7833 C   0  0  1  0  0  0  0  0  0  0  0  0
    3.0833   -6.8954    3.5000 C   0  0  1  0  0  0  0  0  0  0  0  0
    4.1202   -5.9482    3.7557 O   0  0  0  0  0  0  0  0  0  0  0  0
    4.4246   -5.7648    5.1324 C   0  0  0  0  0  0  0  0  0  0  0  0
    3.3693   -2.3364    1.4451 O   0  0  0  0  0  0  0  0  0  0  0  0
    4.3587    1.6777    4.0531 H   0  0  0  0  0  0  0  0  0  0  0  0
    5.8988    0.8325    4.2218 H   0  0  0  0  0  0  0  0  0  0  0  0
    4.4466    0.2027    5.0004 H   0  0  0  0  0  0  0  0  0  0  0  0
    3.4187   -0.1944    2.7597 H   0  0  0  0  0  0  0  0  0  0  0  0
    4.8530    0.3919    1.9649 H   0  0  0  0  0  0  0  0  0  0  0  0
    6.1968   -1.4568    2.9965 H   0  0  0  0  0  0  0  0  0  0  0  0
    4.7764   -2.0366    3.8149 H   0  0  0  0  0  0  0  0  0  0  0  0
    5.0618   -3.4275    1.9615 H   0  0  0  0  0  0  0  0  0  0  0  0
    5.5001   -0.9217    0.2550 H   0  0  0  0  0  0  0  0  0  0  0  0
    6.6393   -2.2169    0.5979 H   0  0  0  0  0  0  0  0  0  0  0  0
    3.2055   -1.8113   -1.2440 H   0  0  0  0  0  0  0  0  0  0  0  0
    3.2923   -3.4907   -1.7337 H   0  0  0  0  0  0  0  0  0  0  0  0
    1.8324   -3.0209    0.3095 H   0  0  0  0  0  0  0  0  0  0  0  0
    3.9554   -5.1637    0.3201 H   0  0  0  0  0  0  0  0  0  0  0  0
    1.5005   -4.8582    2.0958 H   0  0  0  0  0  0  0  0  0  0  0  0
    3.3917   -7.1570    1.3994 H   0  0  0  0  0  0  0  0  0  0  0  0
    1.1120   -7.7341    0.7785 H   0  0  0  0  0  0  0  0  0  0  0  0
    0.2115   -7.1893    5.1069 H   0  0  0  0  0  0  0  0  0  0  0  0
   -1.2514   -8.1832    5.1976 H   0  0  0  0  0  0  0  0  0  0  0  0
   -1.3329   -6.5357    4.5126 H   0  0  0  0  0  0  0  0  0  0  0  0
   -1.4600   -8.8535    1.4986 H   0  0  0  0  0  0  0  0  0  0  0  0
   -2.3579   -7.5800    2.3579 H   0  0  0  0  0  0  0  0  0  0  0  0
   -2.2247   -9.2021    3.0601 H   0  0  0  0  0  0  0  0  0  0  0  0
    1.1869   -9.8001    1.6903 H   0  0  0  0  0  0  0  0  0  0  0  0
    2.5451  -10.2190    3.9084 H   0  0  0  0  0  0  0  0  0  0  0  0
    5.1343  -10.9164    4.2265 H   0  0  0  0  0  0  0  0  0  0  0  0
    6.6475  -10.3979    3.4670 H   0  0  0  0  0  0  0  0  0  0  0  0
    5.6617  -11.6556    2.6995 H   0  0  0  0  0  0  0  0  0  0  0  0
    4.9818   -8.6084    0.5782 H   0  0  0  0  0  0  0  0  0  0  0  0
    5.6074  -10.2605    0.5358 H   0  0  0  0  0  0  0  0  0  0  0  0
    6.5693   -8.9695    1.2929 H   0  0  0  0  0  0  0  0  0  0  0  0
    3.6524   -8.5075    4.8565 H   0  0  0  0  0  0  0  0  0  0  0  0
    2.2408   -6.6671    4.1515 H   0  0  0  0  0  0  0  0  0  0  0  0
    5.2067   -5.0128    5.2334 H   0  0  0  0  0  0  0  0  0  0  0  0
    4.7917   -6.6805    5.5977 H   0  0  0  0  0  0  0  0  0  0  0  0
    3.5499   -5.4186    5.6847 H   0  0  0  0  0  0  0  0  0  0  0  0
  1  2  1  0
  1 31  1  0
  1 32  1  0
  1 33  1  0
  2  3  1  0
  2 34  1  0
  2 35  1  0
  3  4  1  0
  3 36  1  0
  3 37  1  0
  4 30  1  0
  4  5  1  0
  4 38  1  1
  5  6  1  0
  5 39  1  0
  5 40  1  0
  6  7  2  0
  6  8  1  0
  8  9  1  0
  8 41  1  0
  8 42  1  0
  9 10  1  0
  9 30  1  0
  9 43  1  6
 10 11  2  3
 10 44  1  0
 11 12  1  0
 11 45  1  0
 12 27  1  0
 12 13  1  0
 12 46  1  6
 13 19  1  0
 13 14  1  0
 13 47  1  6
 14 15  1  0
 15 16  1  0
 15 17  1  0
 15 18  1  0
 16 48  1  0
 16 49  1  0
 16 50  1  0
 17 51  1  0
 17 52  1  0
 17 53  1  0
 18 19  1  0
 19 20  1  0
 19 54  1  6
 20 26  1  0
 20 21  1  0
 20 55  1  1
 21 22  1  0
 22 23  1  0
 22 24  1  0
 22 25  1  0
 23 56  1  0
 23 57  1  0
 23 58  1  0
 24 59  1  0
 24 60  1  0
 24 61  1  0
 25 26  1  0
 26 27  1  0
 26 62  1  1
 27 28  1  0
 27 63  1  1
 28 29  1  0
 29 64  1  0
 29 65  1  0
 29 66  1  0
M  END
>  <i_m_ct_stereo_status>  (293) 
1

>  <s_m_source_file>  (293) 
/var/tmp/pbs.5076255.sched01/tmpinim70aj/80j3ziidn5.sdf

>  <i_m_source_file_index>  (293) 
40

>  <i_lp_mmshare_version>  (293) 
48012

>  <i_f3d_flags>  (293) 
0

>  <s_epik_input>  (293) 
W0NIM11bQ0gyXVtDSDJdW0NAQEhdMVtDSDJdQyg9TylbQ0gyXVtDQEhdKE8xKS9bQ0hdPVtDSF0vW0NASF0yW0NASF0oT1tDSDNdKVtDQEhdKE9DKE8zKShbQ0gzXSlbQ0gzXSlbQ0BIXTNbQ0BIXShbQ0BIXTI0KU9DKE80KShbQ0gzXSlbQ0gzXQ==

>  <s_epik_cmdline>  (293) 
J2VwaWtfcHl0aG9uJywgJy1waHQnLCAnMi4wJywgJy1waCcsICc3LjAnLCAnLXRuJywgJzgnLCAnLW1hJywgJzIwMCcsICctaW1hZScsICc8aW5maWxlLm1hZT4nLCAnLW9tYWUnLCAnPG91dGZpbGUubWFlPic=

>  <r_lp_tautomer_probability>  (293) 
1

>  <r_epik_Ionization_Penalty>  (293) 
4.26722e-12

>  <r_epik_Ionization_Penalty_Charging>  (293) 
0

>  <r_epik_Ionization_Penalty_Neutral>  (293) 
4.26722e-12

>  <r_epik_State_Penalty>  (293) 
-0

>  <r_epik_Charging_Adjusted_Penalty>  (293) 
0

>  <i_epik_Tot_Q>  (293) 
0

>  <i_epik_Tot_abs_Q>  (293) 
0

>  <s_lp_Force_Field>  (293) 
OPLS3e

>  <r_lp_Energy>  (293) 
-25.432

>  <b_lp_Chiralities_Consistent>  (293) 
1

>  <s_lp_Variant>  (293) 
91:0-1

>  <s_i_glide_gridfile>  (293) 
pfpi4k_grid

>  <i_i_glide_lignum>  (293) 
40

>  <i_i_glide_rotatable_bonds>  (293) 
5

>  <r_i_docking_score>  (293) 
-2.14336

>  <r_i_glide_ligand_efficiency>  (293) 
-0.0714452

>  <r_i_glide_ligand_efficiency_sa>  (293) 
-0.221997

>  <r_i_glide_ligand_efficiency_ln>  (293) 
-0.486994

>  <r_i_glide_gscore>  (293) 
-2.14336

>  <r_i_glide_lipo>  (293) 
-0.452502

>  <r_i_glide_hbond>  (293) 
0

>  <r_i_glide_metal>  (293) 
-0

>  <r_i_glide_rewards>  (293) 
-0.514584

>  <r_i_glide_evdw>  (293) 
-25.9091

>  <r_i_glide_ecoul>  (293) 
-0.815013

>  <r_i_glide_erotb>  (293) 
0.330075

>  <r_i_glide_esite>  (293) 
-0.0886392

>  <r_i_glide_emodel>  (293) 
-28.1206

>  <r_i_glide_energy>  (293) 
-26.7241

>  <r_i_glide_einternal>  (293) 
3.75448

>  <r_i_glide_intrahb_reward>  (293) 
-0

>  <i_i_glide_confnum>  (293) 
3

>  <i_i_glide_posenum>  (293) 
1

>  <r_i_glide_eff_state_penalty>  (293) 
0

>  <ligand_id>  (293) 
91

>  <original_smiles>  (293) 
CCCC1CC(=O)CC(C=CC2C3OC(C)(C)OC3C3OC(C)(C)OC3C2OC)O1

>  <smiles>  (293) 
[H]C(=C([H])C1([H])C([H])(OC([H])([H])[H])C2([H])OC(C([H])([H])[H])(C([H])([H])[H])OC2([H])C2([H])OC(C([H])([H])[H])(C([H])([H])[H])OC21[H])C1([H])OC([H])(C([H])([H])C([H])([H])C([H])([H])[H])C([H])([H])C(=O)C1([H])[H]

$$$$
91:1:0
     RDKit          3D

 66 69  0  0  1  0  0  0  0  0999 V2000
   -1.9287   -8.7012    2.5987 C   0  0  0  0  0  0  0  0  0  0  0  0
   -0.4697   -8.3141    2.3635 C   0  0  0  0  0  0  0  0  0  0  0  0
    0.4957   -9.3382    2.9748 C   0  0  0  0  0  0  0  0  0  0  0  0
    1.9701   -9.0274    2.6832 C   0  0  2  0  0  0  0  0  0  0  0  0
    2.9010  -10.0660    3.3432 C   0  0  0  0  0  0  0  0  0  0  0  0
    4.3607   -9.6288    3.2561 C   0  0  0  0  0  0  0  0  0  0  0  0
    5.2726  -10.4021    2.9800 O   0  0  0  0  0  0  0  0  0  0  0  0
    4.6187   -8.1647    3.5969 C   0  0  0  0  0  0  0  0  0  0  0  0
    3.5982   -7.2612    2.8811 C   0  0  1  0  0  0  0  0  0  0  0  0
    3.8496   -7.1885    1.3750 C   0  0  0  0  0  0  0  0  0  0  0  0
    4.0786   -6.0985    0.6259 C   0  0  0  0  0  0  0  0  0  0  0  0
    4.1521   -4.6594    1.1004 C   0  0  2  0  0  0  0  0  0  0  0  0
    3.4095   -3.7142    0.1357 C   0  0  2  0  0  0  0  0  0  0  0  0
    3.8285   -3.9970   -1.1802 O   0  0  0  0  0  0  0  0  0  0  0  0
    4.1510   -2.8279   -1.8297 C   0  0  0  0  0  0  0  0  0  0  0  0
    5.4634   -3.0739   -2.5743 C   0  0  0  0  0  0  0  0  0  0  0  0
    2.9980   -2.4417   -2.7741 C   0  0  0  0  0  0  0  0  0  0  0  0
    4.3638   -1.8254   -0.8975 O   0  0  0  0  0  0  0  0  0  0  0  0
    3.7121   -2.2115    0.2970 C   0  0  2  0  0  0  0  0  0  0  0  0
    4.6018   -1.8137    1.4957 C   0  0  1  0  0  0  0  0  0  0  0  0
    3.7771   -1.6101    2.6205 O   0  0  0  0  0  0  0  0  0  0  0  0
    4.4414   -2.1085    3.7291 C   0  0  0  0  0  0  0  0  0  0  0  0
    5.1220   -0.9531    4.4809 C   0  0  0  0  0  0  0  0  0  0  0  0
    3.4089   -2.8436    4.5902 C   0  0  0  0  0  0  0  0  0  0  0  0
    5.4066   -3.0162    3.3337 O   0  0  0  0  0  0  0  0  0  0  0  0
    5.6656   -2.8335    1.9518 C   0  0  1  0  0  0  0  0  0  0  0  0
    5.6113   -4.2089    1.2589 C   0  0  1  0  0  0  0  0  0  0  0  0
    6.3242   -5.1758    2.0306 O   0  0  0  0  0  0  0  0  0  0  0  0
    7.7197   -5.2422    1.7730 C   0  0  0  0  0  0  0  0  0  0  0  0
    2.2710   -7.7136    3.1686 O   0  0  0  0  0  0  0  0  0  0  0  0
   -2.5901   -7.9447    2.1869 H   0  0  0  0  0  0  0  0  0  0  0  0
   -2.1436   -8.7982    3.6624 H   0  0  0  0  0  0  0  0  0  0  0  0
   -2.1658   -9.6535    2.1253 H   0  0  0  0  0  0  0  0  0  0  0  0
   -0.2909   -8.2213    1.2923 H   0  0  0  0  0  0  0  0  0  0  0  0
   -0.2851   -7.3309    2.7935 H   0  0  0  0  0  0  0  0  0  0  0  0
    0.3139   -9.4183    4.0488 H   0  0  0  0  0  0  0  0  0  0  0  0
    0.2649  -10.3196    2.5583 H   0  0  0  0  0  0  0  0  0  0  0  0
    2.0810   -9.0689    1.5997 H   0  0  0  0  0  0  0  0  0  0  0  0
    2.6473  -10.1883    4.3988 H   0  0  0  0  0  0  0  0  0  0  0  0
    2.7786  -11.0406    2.8649 H   0  0  0  0  0  0  0  0  0  0  0  0
    4.5427   -8.0408    4.6771 H   0  0  0  0  0  0  0  0  0  0  0  0
    5.6370   -7.8928    3.3122 H   0  0  0  0  0  0  0  0  0  0  0  0
    3.6956   -6.2773    3.3383 H   0  0  0  0  0  0  0  0  0  0  0  0
    3.8585   -8.1307    0.8509 H   0  0  0  0  0  0  0  0  0  0  0  0
    4.2396   -6.2470   -0.4328 H   0  0  0  0  0  0  0  0  0  0  0  0
    3.6652   -4.5828    2.0682 H   0  0  0  0  0  0  0  0  0  0  0  0
    2.3338   -3.8831    0.2001 H   0  0  0  0  0  0  0  0  0  0  0  0
    6.2493   -3.3256   -1.8620 H   0  0  0  0  0  0  0  0  0  0  0  0
    5.7406   -2.1766   -3.1166 H   0  0  0  0  0  0  0  0  0  0  0  0
    5.3372   -3.9006   -3.2746 H   0  0  0  0  0  0  0  0  0  0  0  0
    2.0666   -2.3033   -2.2288 H   0  0  0  0  0  0  0  0  0  0  0  0
    2.8476   -3.2317   -3.5117 H   0  0  0  0  0  0  0  0  0  0  0  0
    3.2388   -1.5161   -3.2960 H   0  0  0  0  0  0  0  0  0  0  0  0
    2.7688   -1.6613    0.3391 H   0  0  0  0  0  0  0  0  0  0  0  0
    5.0910   -0.8609    1.2845 H   0  0  0  0  0  0  0  0  0  0  0  0
    5.8507   -0.4513    3.8447 H   0  0  0  0  0  0  0  0  0  0  0  0
    5.6362   -1.3489    5.3585 H   0  0  0  0  0  0  0  0  0  0  0  0
    4.3776   -0.2278    4.8075 H   0  0  0  0  0  0  0  0  0  0  0  0
    2.9258   -3.6221    4.0001 H   0  0  0  0  0  0  0  0  0  0  0  0
    2.6501   -2.1430    4.9389 H   0  0  0  0  0  0  0  0  0  0  0  0
    3.9084   -3.3024    5.4444 H   0  0  0  0  0  0  0  0  0  0  0  0
    6.6564   -2.3965    1.8394 H   0  0  0  0  0  0  0  0  0  0  0  0
    6.0594   -4.1445    0.2658 H   0  0  0  0  0  0  0  0  0  0  0  0
    8.1685   -6.0128    2.4015 H   0  0  0  0  0  0  0  0  0  0  0  0
    8.2180   -4.2986    1.9930 H   0  0  0  0  0  0  0  0  0  0  0  0
    7.9119   -5.5066    0.7323 H   0  0  0  0  0  0  0  0  0  0  0  0
  1  2  1  0
  1 31  1  0
  1 32  1  0
  1 33  1  0
  2  3  1  0
  2 34  1  0
  2 35  1  0
  3  4  1  0
  3 36  1  0
  3 37  1  0
  4 30  1  0
  4  5  1  0
  4 38  1  6
  5  6  1  0
  5 39  1  0
  5 40  1  0
  6  7  2  0
  6  8  1  0
  8  9  1  0
  8 41  1  0
  8 42  1  0
  9 10  1  0
  9 30  1  0
  9 43  1  1
 10 11  2  3
 10 44  1  0
 11 12  1  0
 11 45  1  0
 12 27  1  0
 12 13  1  0
 12 46  1  1
 13 19  1  0
 13 14  1  0
 13 47  1  6
 14 15  1  0
 15 16  1  0
 15 17  1  0
 15 18  1  0
 16 48  1  0
 16 49  1  0
 16 50  1  0
 17 51  1  0
 17 52  1  0
 17 53  1  0
 18 19  1  0
 19 20  1  0
 19 54  1  1
 20 26  1  0
 20 21  1  0
 20 55  1  6
 21 22  1  0
 22 23  1  0
 22 24  1  0
 22 25  1  0
 23 56  1  0
 23 57  1  0
 23 58  1  0
 24 59  1  0
 24 60  1  0
 24 61  1  0
 25 26  1  0
 26 27  1  0
 26 62  1  1
 27 28  1  0
 27 63  1  6
 28 29  1  0
 29 64  1  0
 29 65  1  0
 29 66  1  0
M  END
>  <i_m_ct_stereo_status>  (294) 
1

>  <s_m_source_file>  (294) 
/var/tmp/pbs.5076255.sched01/tmpj3mqheq3/1200r5s1sfv.sdf

>  <i_m_source_file_index>  (294) 
1

>  <i_lp_mmshare_version>  (294) 
48012

>  <i_f3d_flags>  (294) 
0

>  <s_epik_input>  (294) 
W0NIM11bQ0gyXVtDSDJdW0NAQEhdMVtDSDJdQyg9TylbQ0gyXVtDQEhdKE8xKS9bQ0hdPVtDSF0vW0NASF0yW0NASF0oT1tDSDNdKVtDQEhdKE9DKE8zKShbQ0gzXSlbQ0gzXSlbQ0BIXTNbQ0BIXShbQ0BIXTI0KU9DKE80KShbQ0gzXSlbQ0gzXQ==

>  <s_epik_cmdline>  (294) 
J2VwaWtfcHl0aG9uJywgJy1waHQnLCAnMi4wJywgJy1waCcsICc3LjAnLCAnLXRuJywgJzgnLCAnLW1hJywgJzIwMCcsICctaW1hZScsICc8aW5maWxlLm1hZT4nLCAnLW9tYWUnLCAnPG91dGZpbGUubWFlPic=

>  <r_lp_tautomer_probability>  (294) 
1

>  <r_epik_Ionization_Penalty>  (294) 
4.26722e-12

>  <r_epik_Ionization_Penalty_Charging>  (294) 
0

>  <r_epik_Ionization_Penalty_Neutral>  (294) 
4.26722e-12

>  <r_epik_State_Penalty>  (294) 
-0

>  <r_epik_Charging_Adjusted_Penalty>  (294) 
0

>  <i_epik_Tot_Q>  (294) 
0

>  <i_epik_Tot_abs_Q>  (294) 
0

>  <s_lp_Force_Field>  (294) 
OPLS3e

>  <r_lp_Energy>  (294) 
-24.9614

>  <b_lp_Chiralities_Consistent>  (294) 
1

>  <s_lp_Variant>  (294) 
91:0-2

>  <s_i_glide_gridfile>  (294) 
pfpi4k_grid

>  <i_i_glide_lignum>  (294) 
1

>  <i_i_glide_rotatable_bonds>  (294) 
5

>  <r_i_docking_score>  (294) 
-2.30507

>  <r_i_glide_ligand_efficiency>  (294) 
-0.0768356

>  <r_i_glide_ligand_efficiency_sa>  (294) 
-0.238746

>  <r_i_glide_ligand_efficiency_ln>  (294) 
-0.523737

>  <r_i_glide_gscore>  (294) 
-2.30507

>  <r_i_glide_lipo>  (294) 
-0.834852

>  <r_i_glide_hbond>  (294) 
0

>  <r_i_glide_metal>  (294) 
-0

>  <r_i_glide_rewards>  (294) 
-0.542784

>  <r_i_glide_evdw>  (294) 
-25.0978

>  <r_i_glide_ecoul>  (294) 
0.19279

>  <r_i_glide_erotb>  (294) 
0.330075

>  <r_i_glide_esite>  (294) 
-0.0315382

>  <r_i_glide_emodel>  (294) 
-27.3642

>  <r_i_glide_energy>  (294) 
-24.905

>  <r_i_glide_einternal>  (294) 
1.39058

>  <r_i_glide_intrahb_reward>  (294) 
-0

>  <i_i_glide_confnum>  (294) 
1

>  <i_i_glide_posenum>  (294) 
30

>  <r_i_glide_eff_state_penalty>  (294) 
0

>  <ligand_id>  (294) 
91

>  <original_smiles>  (294) 
CCCC1CC(=O)CC(C=CC2C3OC(C)(C)OC3C3OC(C)(C)OC3C2OC)O1

>  <smiles>  (294) 
[H]C(=C([H])C1([H])C([H])(OC([H])([H])[H])C2([H])OC(C([H])([H])[H])(C([H])([H])[H])OC2([H])C2([H])OC(C([H])([H])[H])(C([H])([H])[H])OC21[H])C1([H])OC([H])(C([H])([H])C([H])([H])C([H])([H])[H])C([H])([H])C(=O)C1([H])[H]

$$$$
91:1:1
     RDKit          3D

 66 69  0  0  1  0  0  0  0  0999 V2000
   -0.7938   -6.7775    4.5103 C   0  0  0  0  0  0  0  0  0  0  0  0
   -1.3118   -7.9894    3.7151 C   0  0  0  0  0  0  0  0  0  0  0  0
   -0.6761   -8.1702    2.3200 C   0  0  0  0  0  0  0  0  0  0  0  0
    0.8593   -8.2331    2.2860 C   0  0  2  0  0  0  0  0  0  0  0  0
    1.4127   -9.3961    3.1317 C   0  0  0  0  0  0  0  0  0  0  0  0
    2.9230   -9.2904    3.2871 C   0  0  0  0  0  0  0  0  0  0  0  0
    3.6674  -10.2523    3.1962 O   0  0  0  0  0  0  0  0  0  0  0  0
    3.4302   -7.8989    3.6407 C   0  0  0  0  0  0  0  0  0  0  0  0
    2.7892   -6.8394    2.7324 C   0  0  1  0  0  0  0  0  0  0  0  0
    3.3074   -6.9034    1.3021 C   0  0  0  0  0  0  0  0  0  0  0  0
    3.7974   -5.9010    0.5496 C   0  0  0  0  0  0  0  0  0  0  0  0
    3.9967   -4.4589    0.9716 C   0  0  2  0  0  0  0  0  0  0  0  0
    3.3382   -3.4832   -0.0176 C   0  0  2  0  0  0  0  0  0  0  0  0
    3.7058   -3.8461   -1.3236 O   0  0  0  0  0  0  0  0  0  0  0  0
    4.1482   -2.7380   -2.0185 C   0  0  0  0  0  0  0  0  0  0  0  0
    5.4215   -3.1251   -2.7393 C   0  0  0  0  0  0  0  0  0  0  0  0
    3.0320   -2.2741   -2.9638 C   0  0  0  0  0  0  0  0  0  0  0  0
    4.4516   -1.7285   -1.1135 O   0  0  0  0  0  0  0  0  0  0  0  0
    3.7827   -2.0110    0.0929 C   0  0  2  0  0  0  0  0  0  0  0  0
    4.7092   -1.6560    1.2783 C   0  0  1  0  0  0  0  0  0  0  0  0
    3.9177   -1.3335    2.3933 O   0  0  0  0  0  0  0  0  0  0  0  0
    4.5306   -1.8519    3.5289 C   0  0  0  0  0  0  0  0  0  0  0  0
    5.3236   -0.7407    4.2289 C   0  0  0  0  0  0  0  0  0  0  0  0
    3.4437   -2.4557    4.4046 C   0  0  0  0  0  0  0  0  0  0  0  0
    5.4161   -2.8577    3.1545 O   0  0  0  0  0  0  0  0  0  0  0  0
    5.6805   -2.7519    1.7729 C   0  0  1  0  0  0  0  0  0  0  0  0
    5.4912   -4.1407    1.1253 C   0  0  1  0  0  0  0  0  0  0  0  0
    6.1107   -5.1433    1.9329 O   0  0  0  0  0  0  0  0  0  0  0  0
    7.4959   -5.3323    1.6951 C   0  0  0  0  0  0  0  0  0  0  0  0
    1.3537   -6.9709    2.7522 O   0  0  0  0  0  0  0  0  0  0  0  0
   -1.3521   -6.6334    5.4407 H   0  0  0  0  0  0  0  0  0  0  0  0
   -0.8814   -5.8613    3.9390 H   0  0  0  0  0  0  0  0  0  0  0  0
    0.2643   -6.8876    4.7608 H   0  0  0  0  0  0  0  0  0  0  0  0
   -1.1588   -8.8906    4.3041 H   0  0  0  0  0  0  0  0  0  0  0  0
   -2.3885   -7.9070    3.5893 H   0  0  0  0  0  0  0  0  0  0  0  0
   -1.0538   -9.0979    1.8888 H   0  0  0  0  0  0  0  0  0  0  0  0
   -1.0096   -7.3840    1.6411 H   0  0  0  0  0  0  0  0  0  0  0  0
    1.1316   -8.3947    1.2451 H   0  0  0  0  0  0  0  0  0  0  0  0
    0.9837   -9.3973    4.1295 H   0  0  0  0  0  0  0  0  0  0  0  0
    1.1556  -10.3463    2.6653 H   0  0  0  0  0  0  0  0  0  0  0  0
    3.1938   -7.6919    4.6837 H   0  0  0  0  0  0  0  0  0  0  0  0
    4.5152   -7.8758    3.5523 H   0  0  0  0  0  0  0  0  0  0  0  0
    3.0148   -5.8714    3.1859 H   0  0  0  0  0  0  0  0  0  0  0  0
    3.2831   -7.8831    0.8720 H   0  0  0  0  0  0  0  0  0  0  0  0
    4.1119   -6.1324   -0.4569 H   0  0  0  0  0  0  0  0  0  0  0  0
    3.5308   -4.2894    1.9378 H   0  0  0  0  0  0  0  0  0  0  0  0
    2.2551   -3.5481    0.0675 H   0  0  0  0  0  0  0  0  0  0  0  0
    6.1833   -3.4311   -2.0235 H   0  0  0  0  0  0  0  0  0  0  0  0
    5.7888   -2.2671   -3.2974 H   0  0  0  0  0  0  0  0  0  0  0  0
    5.2272   -3.9535   -3.4233 H   0  0  0  0  0  0  0  0  0  0  0  0
    2.1258   -2.0323   -2.4144 H   0  0  0  0  0  0  0  0  0  0  0  0
    2.7990   -3.0730   -3.6741 H   0  0  0  0  0  0  0  0  0  0  0  0
    3.3542   -1.3927   -3.5241 H   0  0  0  0  0  0  0  0  0  0  0  0
    2.8962   -1.3753    0.1229 H   0  0  0  0  0  0  0  0  0  0  0  0
    5.2837   -0.7650    1.0278 H   0  0  0  0  0  0  0  0  0  0  0  0
    6.0954   -0.3298    3.5796 H   0  0  0  0  0  0  0  0  0  0  0  0
    5.7993   -1.1495    5.1249 H   0  0  0  0  0  0  0  0  0  0  0  0
    4.6501    0.0623    4.5318 H   0  0  0  0  0  0  0  0  0  0  0  0
    2.8819   -3.2062    3.8483 H   0  0  0  0  0  0  0  0  0  0  0  0
    2.7524   -1.6783    4.7330 H   0  0  0  0  0  0  0  0  0  0  0  0
    3.8946   -2.9311    5.2782 H   0  0  0  0  0  0  0  0  0  0  0  0
    6.7087   -2.4183    1.6453 H   0  0  0  0  0  0  0  0  0  0  0  0
    5.9402   -4.1560    0.1285 H   0  0  0  0  0  0  0  0  0  0  0  0
    7.8755   -6.1208    2.3442 H   0  0  0  0  0  0  0  0  0  0  0  0
    8.0676   -4.4270    1.8978 H   0  0  0  0  0  0  0  0  0  0  0  0
    7.6763   -5.6361    0.6636 H   0  0  0  0  0  0  0  0  0  0  0  0
  1  2  1  0
  1 31  1  0
  1 32  1  0
  1 33  1  0
  2  3  1  0
  2 34  1  0
  2 35  1  0
  3  4  1  0
  3 36  1  0
  3 37  1  0
  4 30  1  0
  4  5  1  0
  4 38  1  6
  5  6  1  0
  5 39  1  0
  5 40  1  0
  6  7  2  0
  6  8  1  0
  8  9  1  0
  8 41  1  0
  8 42  1  0
  9 10  1  0
  9 30  1  0
  9 43  1  1
 10 11  2  3
 10 44  1  0
 11 12  1  0
 11 45  1  0
 12 27  1  0
 12 13  1  0
 12 46  1  1
 13 19  1  0
 13 14  1  0
 13 47  1  6
 14 15  1  0
 15 16  1  0
 15 17  1  0
 15 18  1  0
 16 48  1  0
 16 49  1  0
 16 50  1  0
 17 51  1  0
 17 52  1  0
 17 53  1  0
 18 19  1  0
 19 20  1  0
 19 54  1  1
 20 26  1  0
 20 21  1  0
 20 55  1  6
 21 22  1  0
 22 23  1  0
 22 24  1  0
 22 25  1  0
 23 56  1  0
 23 57  1  0
 23 58  1  0
 24 59  1  0
 24 60  1  0
 24 61  1  0
 25 26  1  0
 26 27  1  0
 26 62  1  1
 27 28  1  0
 27 63  1  6
 28 29  1  0
 29 64  1  0
 29 65  1  0
 29 66  1  0
M  END
>  <i_m_ct_stereo_status>  (295) 
1

>  <s_m_source_file>  (295) 
/var/tmp/pbs.5076255.sched01/tmpj3mqheq3/1200r5s1sfv.sdf

>  <i_m_source_file_index>  (295) 
1

>  <i_lp_mmshare_version>  (295) 
48012

>  <i_f3d_flags>  (295) 
0

>  <s_epik_input>  (295) 
W0NIM11bQ0gyXVtDSDJdW0NAQEhdMVtDSDJdQyg9TylbQ0gyXVtDQEhdKE8xKS9bQ0hdPVtDSF0vW0NASF0yW0NASF0oT1tDSDNdKVtDQEhdKE9DKE8zKShbQ0gzXSlbQ0gzXSlbQ0BIXTNbQ0BIXShbQ0BIXTI0KU9DKE80KShbQ0gzXSlbQ0gzXQ==

>  <s_epik_cmdline>  (295) 
J2VwaWtfcHl0aG9uJywgJy1waHQnLCAnMi4wJywgJy1waCcsICc3LjAnLCAnLXRuJywgJzgnLCAnLW1hJywgJzIwMCcsICctaW1hZScsICc8aW5maWxlLm1hZT4nLCAnLW9tYWUnLCAnPG91dGZpbGUubWFlPic=

>  <r_lp_tautomer_probability>  (295) 
1

>  <r_epik_Ionization_Penalty>  (295) 
4.26722e-12

>  <r_epik_Ionization_Penalty_Charging>  (295) 
0

>  <r_epik_Ionization_Penalty_Neutral>  (295) 
4.26722e-12

>  <r_epik_State_Penalty>  (295) 
-0

>  <r_epik_Charging_Adjusted_Penalty>  (295) 
0

>  <i_epik_Tot_Q>  (295) 
0

>  <i_epik_Tot_abs_Q>  (295) 
0

>  <s_lp_Force_Field>  (295) 
OPLS3e

>  <r_lp_Energy>  (295) 
-24.9614

>  <b_lp_Chiralities_Consistent>  (295) 
1

>  <s_lp_Variant>  (295) 
91:0-2

>  <s_i_glide_gridfile>  (295) 
pfpi4k_grid

>  <i_i_glide_lignum>  (295) 
1

>  <i_i_glide_rotatable_bonds>  (295) 
5

>  <r_i_docking_score>  (295) 
-2.14534

>  <r_i_glide_ligand_efficiency>  (295) 
-0.0715113

>  <r_i_glide_ligand_efficiency_sa>  (295) 
-0.222202

>  <r_i_glide_ligand_efficiency_ln>  (295) 
-0.487445

>  <r_i_glide_gscore>  (295) 
-2.14534

>  <r_i_glide_lipo>  (295) 
-0.638946

>  <r_i_glide_hbond>  (295) 
0

>  <r_i_glide_metal>  (295) 
-0

>  <r_i_glide_rewards>  (295) 
-0.556985

>  <r_i_glide_evdw>  (295) 
-25.9416

>  <r_i_glide_ecoul>  (295) 
0.244795

>  <r_i_glide_erotb>  (295) 
0.330075

>  <r_i_glide_esite>  (295) 
-0.0191211

>  <r_i_glide_emodel>  (295) 
-26.5693

>  <r_i_glide_energy>  (295) 
-25.6968

>  <r_i_glide_einternal>  (295) 
3.51584

>  <r_i_glide_intrahb_reward>  (295) 
-0

>  <i_i_glide_confnum>  (295) 
3

>  <i_i_glide_posenum>  (295) 
1

>  <r_i_glide_eff_state_penalty>  (295) 
0

>  <ligand_id>  (295) 
91

>  <original_smiles>  (295) 
CCCC1CC(=O)CC(C=CC2C3OC(C)(C)OC3C3OC(C)(C)OC3C2OC)O1

>  <smiles>  (295) 
[H]C(=C([H])C1([H])C([H])(OC([H])([H])[H])C2([H])OC(C([H])([H])[H])(C([H])([H])[H])OC2([H])C2([H])OC(C([H])([H])[H])(C([H])([H])[H])OC21[H])C1([H])OC([H])(C([H])([H])C([H])([H])C([H])([H])[H])C([H])([H])C(=O)C1([H])[H]

$$$$
91:1:2
     RDKit          3D

 66 69  0  0  1  0  0  0  0  0999 V2000
   -1.3090   -9.3623    2.3709 C   0  0  0  0  0  0  0  0  0  0  0  0
   -0.2677   -8.6331    3.2137 C   0  0  0  0  0  0  0  0  0  0  0  0
   -0.6186   -7.1563    3.4350 C   0  0  0  0  0  0  0  0  0  0  0  0
    0.4244   -6.4419    4.3071 C   0  0  2  0  0  0  0  0  0  0  0  0
    0.2150   -6.7279    5.8076 C   0  0  0  0  0  0  0  0  0  0  0  0
    1.1062   -5.8358    6.6645 C   0  0  0  0  0  0  0  0  0  0  0  0
    1.7104   -6.2536    7.6485 O   0  0  0  0  0  0  0  0  0  0  0  0
    1.1493   -4.3671    6.2469 C   0  0  0  0  0  0  0  0  0  0  0  0
    1.3251   -4.2495    4.7218 C   0  0  1  0  0  0  0  0  0  0  0  0
    2.7337   -4.6404    4.2687 C   0  0  0  0  0  0  0  0  0  0  0  0
    3.5784   -3.9501    3.4858 C   0  0  0  0  0  0  0  0  0  0  0  0
    3.3553   -2.5929    2.8495 C   0  0  2  0  0  0  0  0  0  0  0  0
    3.5774   -2.6518    1.3258 C   0  0  2  0  0  0  0  0  0  0  0  0
    4.7994   -3.3134    1.0530 O   0  0  0  0  0  0  0  0  0  0  0  0
    5.5322   -2.5499    0.1630 C   0  0  0  0  0  0  0  0  0  0  0  0
    6.9700   -2.4846    0.6796 C   0  0  0  0  0  0  0  0  0  0  0  0
    5.4265   -3.1839   -1.2354 C   0  0  0  0  0  0  0  0  0  0  0  0
    5.0375   -1.2554    0.1305 O   0  0  0  0  0  0  0  0  0  0  0  0
    3.7149   -1.2863    0.6246 C   0  0  2  0  0  0  0  0  0  0  0  0
    3.4803   -0.0277    1.4932 C   0  0  1  0  0  0  0  0  0  0  0  0
    2.1113    0.3000    1.4753 O   0  0  0  0  0  0  0  0  0  0  0  0
    1.7460    0.7142    2.7417 C   0  0  0  0  0  0  0  0  0  0  0  0
    1.7205    2.2488    2.7946 C   0  0  0  0  0  0  0  0  0  0  0  0
    0.3864    0.0901    3.0650 C   0  0  0  0  0  0  0  0  0  0  0  0
    2.6643    0.2519    3.6679 O   0  0  0  0  0  0  0  0  0  0  0  0
    3.8468   -0.1234    2.9851 C   0  0  1  0  0  0  0  0  0  0  0  0
    4.2586   -1.5216    3.4868 C   0  0  1  0  0  0  0  0  0  0  0  0
    4.1503   -1.5921    4.9090 O   0  0  0  0  0  0  0  0  0  0  0  0
    5.0721   -0.7811    5.6256 C   0  0  0  0  0  0  0  0  0  0  0  0
    0.3232   -5.0368    4.0729 O   0  0  0  0  0  0  0  0  0  0  0  0
   -0.9972  -10.3905    2.1999 H   0  0  0  0  0  0  0  0  0  0  0  0
   -1.4275   -8.8880    1.3971 H   0  0  0  0  0  0  0  0  0  0  0  0
   -2.2767   -9.3739    2.8713 H   0  0  0  0  0  0  0  0  0  0  0  0
   -0.1592   -9.1407    4.1715 H   0  0  0  0  0  0  0  0  0  0  0  0
    0.6991   -8.7070    2.7165 H   0  0  0  0  0  0  0  0  0  0  0  0
   -0.6703   -6.6764    2.4575 H   0  0  0  0  0  0  0  0  0  0  0  0
   -1.6187   -7.0623    3.8647 H   0  0  0  0  0  0  0  0  0  0  0  0
    1.3980   -6.8069    3.9861 H   0  0  0  0  0  0  0  0  0  0  0  0
   -0.8206   -6.5257    6.0832 H   0  0  0  0  0  0  0  0  0  0  0  0
    0.4155   -7.7774    6.0357 H   0  0  0  0  0  0  0  0  0  0  0  0
    0.2175   -3.8893    6.5499 H   0  0  0  0  0  0  0  0  0  0  0  0
    1.9580   -3.8531    6.7664 H   0  0  0  0  0  0  0  0  0  0  0  0
    1.1120   -3.2125    4.4667 H   0  0  0  0  0  0  0  0  0  0  0  0
    3.1019   -5.5854    4.6325 H   0  0  0  0  0  0  0  0  0  0  0  0
    4.5406   -4.3966    3.2750 H   0  0  0  0  0  0  0  0  0  0  0  0
    2.3231   -2.2942    3.0079 H   0  0  0  0  0  0  0  0  0  0  0  0
    2.7690   -3.2173    0.8589 H   0  0  0  0  0  0  0  0  0  0  0  0
    6.9750   -2.0033    1.6566 H   0  0  0  0  0  0  0  0  0  0  0  0
    7.5819   -1.8999   -0.0058 H   0  0  0  0  0  0  0  0  0  0  0  0
    7.3760   -3.4926    0.7746 H   0  0  0  0  0  0  0  0  0  0  0  0
    4.3884   -3.2246   -1.5683 H   0  0  0  0  0  0  0  0  0  0  0  0
    5.8185   -4.2026   -1.2051 H   0  0  0  0  0  0  0  0  0  0  0  0
    6.0085   -2.6022   -1.9517 H   0  0  0  0  0  0  0  0  0  0  0  0
    3.0522   -1.2611   -0.2434 H   0  0  0  0  0  0  0  0  0  0  0  0
    4.0056    0.8198    1.0499 H   0  0  0  0  0  0  0  0  0  0  0  0
    2.6998    2.6669    2.5603 H   0  0  0  0  0  0  0  0  0  0  0  0
    1.4262    2.5782    3.7923 H   0  0  0  0  0  0  0  0  0  0  0  0
    0.9938    2.6232    2.0746 H   0  0  0  0  0  0  0  0  0  0  0  0
    0.4515   -0.9932    2.9754 H   0  0  0  0  0  0  0  0  0  0  0  0
   -0.3598    0.4584    2.3600 H   0  0  0  0  0  0  0  0  0  0  0  0
    0.0925    0.3476    4.0823 H   0  0  0  0  0  0  0  0  0  0  0  0
    4.6318    0.6009    3.2055 H   0  0  0  0  0  0  0  0  0  0  0  0
    5.2941   -1.7254    3.2078 H   0  0  0  0  0  0  0  0  0  0  0  0
    4.9424   -0.9421    6.6955 H   0  0  0  0  0  0  0  0  0  0  0  0
    4.9127    0.2807    5.4338 H   0  0  0  0  0  0  0  0  0  0  0  0
    6.1004   -1.0341    5.3692 H   0  0  0  0  0  0  0  0  0  0  0  0
  1  2  1  0
  1 31  1  0
  1 32  1  0
  1 33  1  0
  2  3  1  0
  2 34  1  0
  2 35  1  0
  3  4  1  0
  3 36  1  0
  3 37  1  0
  4 30  1  0
  4  5  1  0
  4 38  1  6
  5  6  1  0
  5 39  1  0
  5 40  1  0
  6  7  2  0
  6  8  1  0
  8  9  1  0
  8 41  1  0
  8 42  1  0
  9 10  1  0
  9 30  1  0
  9 43  1  6
 10 11  2  3
 10 44  1  0
 11 12  1  0
 11 45  1  0
 12 27  1  0
 12 13  1  0
 12 46  1  6
 13 19  1  0
 13 14  1  0
 13 47  1  6
 14 15  1  0
 15 16  1  0
 15 17  1  0
 15 18  1  0
 16 48  1  0
 16 49  1  0
 16 50  1  0
 17 51  1  0
 17 52  1  0
 17 53  1  0
 18 19  1  0
 19 20  1  0
 19 54  1  6
 20 26  1  0
 20 21  1  0
 20 55  1  6
 21 22  1  0
 22 23  1  0
 22 24  1  0
 22 25  1  0
 23 56  1  0
 23 57  1  0
 23 58  1  0
 24 59  1  0
 24 60  1  0
 24 61  1  0
 25 26  1  0
 26 27  1  0
 26 62  1  6
 27 28  1  0
 27 63  1  1
 28 29  1  0
 29 64  1  0
 29 65  1  0
 29 66  1  0
M  END
>  <i_m_ct_stereo_status>  (296) 
1

>  <s_m_source_file>  (296) 
/var/tmp/pbs.5076255.sched01/tmpj3mqheq3/1200r5s1sfv.sdf

>  <i_m_source_file_index>  (296) 
1

>  <i_lp_mmshare_version>  (296) 
48012

>  <i_f3d_flags>  (296) 
0

>  <s_epik_input>  (296) 
W0NIM11bQ0gyXVtDSDJdW0NAQEhdMVtDSDJdQyg9TylbQ0gyXVtDQEhdKE8xKS9bQ0hdPVtDSF0vW0NASF0yW0NASF0oT1tDSDNdKVtDQEhdKE9DKE8zKShbQ0gzXSlbQ0gzXSlbQ0BIXTNbQ0BIXShbQ0BIXTI0KU9DKE80KShbQ0gzXSlbQ0gzXQ==

>  <s_epik_cmdline>  (296) 
J2VwaWtfcHl0aG9uJywgJy1waHQnLCAnMi4wJywgJy1waCcsICc3LjAnLCAnLXRuJywgJzgnLCAnLW1hJywgJzIwMCcsICctaW1hZScsICc8aW5maWxlLm1hZT4nLCAnLW9tYWUnLCAnPG91dGZpbGUubWFlPic=

>  <r_lp_tautomer_probability>  (296) 
1

>  <r_epik_Ionization_Penalty>  (296) 
4.26722e-12

>  <r_epik_Ionization_Penalty_Charging>  (296) 
0

>  <r_epik_Ionization_Penalty_Neutral>  (296) 
4.26722e-12

>  <r_epik_State_Penalty>  (296) 
-0

>  <r_epik_Charging_Adjusted_Penalty>  (296) 
0

>  <i_epik_Tot_Q>  (296) 
0

>  <i_epik_Tot_abs_Q>  (296) 
0

>  <s_lp_Force_Field>  (296) 
OPLS3e

>  <r_lp_Energy>  (296) 
-24.9614

>  <b_lp_Chiralities_Consistent>  (296) 
1

>  <s_lp_Variant>  (296) 
91:0-2

>  <s_i_glide_gridfile>  (296) 
pfpi4k_grid

>  <i_i_glide_lignum>  (296) 
1

>  <i_i_glide_rotatable_bonds>  (296) 
5

>  <r_i_docking_score>  (296) 
-1.81359

>  <r_i_glide_ligand_efficiency>  (296) 
-0.0604531

>  <r_i_glide_ligand_efficiency_sa>  (296) 
-0.187842

>  <r_i_glide_ligand_efficiency_ln>  (296) 
-0.412068

>  <r_i_glide_gscore>  (296) 
-1.81359

>  <r_i_glide_lipo>  (296) 
-0.532915

>  <r_i_glide_hbond>  (296) 
0

>  <r_i_glide_metal>  (296) 
-0

>  <r_i_glide_rewards>  (296) 
-0.548401

>  <r_i_glide_evdw>  (296) 
-22.8744

>  <r_i_glide_ecoul>  (296) 
0.653886

>  <r_i_glide_erotb>  (296) 
0.330075

>  <r_i_glide_esite>  (296) 
-0.0167141

>  <r_i_glide_emodel>  (296) 
-23.9649

>  <r_i_glide_energy>  (296) 
-22.2205

>  <r_i_glide_einternal>  (296) 
1.25564

>  <r_i_glide_intrahb_reward>  (296) 
-0

>  <i_i_glide_confnum>  (296) 
2

>  <i_i_glide_posenum>  (296) 
15

>  <r_i_glide_eff_state_penalty>  (296) 
0

>  <ligand_id>  (296) 
91

>  <original_smiles>  (296) 
CCCC1CC(=O)CC(C=CC2C3OC(C)(C)OC3C3OC(C)(C)OC3C2OC)O1

>  <smiles>  (296) 
[H]C(=C([H])C1([H])C([H])(OC([H])([H])[H])C2([H])OC(C([H])([H])[H])(C([H])([H])[H])OC2([H])C2([H])OC(C([H])([H])[H])(C([H])([H])[H])OC21[H])C1([H])OC([H])(C([H])([H])C([H])([H])C([H])([H])[H])C([H])([H])C(=O)C1([H])[H]

$$$$
92:0:0
     RDKit          3D

 65 73  0  0  1  0  0  0  0  0999 V2000
    1.6870   -2.0204    2.8844 C   0  0  0  0  0  0  0  0  0  0  0  0
    2.2175   -3.2146    2.4892 C   0  0  0  0  0  0  0  0  0  0  0  0
    2.7124   -3.3688    1.0678 C   0  0  2  0  0  0  0  0  0  0  0  0
    2.7081   -4.8419    0.5129 C   0  0  0  0  0  0  0  0  0  0  0  0
    3.3332   -6.1311    1.1807 C   0  0  2  0  0  0  0  0  0  0  0  0
    2.2059   -7.1528    1.7650 C   0  0  1  0  0  0  0  0  0  0  0  0
    2.4034   -8.4781    1.2948 O   0  0  0  0  0  0  0  0  0  0  0  0
    1.7554   -7.2735    3.2708 C   0  0  2  0  0  0  0  0  0  0  0  0
    0.8325   -6.2481    3.8129 C   0  0  2  0  0  0  0  0  0  0  0  0
    0.8959   -5.1344    2.9898 O   0  0  0  0  0  0  0  0  0  0  0  0
    2.0690   -4.4419    3.3596 C   0  0  1  0  0  0  0  0  0  0  0  0
    3.1572   -5.2946    4.1834 C   0  0  2  0  0  0  0  0  0  0  0  0
    3.4998   -4.3026    5.1822 O   0  0  0  0  0  0  0  0  0  0  0  0
    4.6347   -3.3974    4.9686 C   0  0  0  0  0  0  0  0  0  0  0  0
    4.8567   -2.4833    3.6878 C   0  0  0  0  0  0  0  0  0  0  0  0
    5.0818   -3.2494    2.4986 O   0  0  0  0  0  0  0  0  0  0  0  0
    5.2203   -2.8364    1.1288 C   0  0  2  0  0  0  0  0  0  0  0  0
    6.2457   -1.6838    1.1608 C   0  0  0  0  0  0  0  0  0  0  0  0
    3.8436   -2.3447    0.7154 C   0  0  1  0  0  0  0  0  0  0  0  0
    3.8337   -1.7759   -0.7304 C   0  0  0  0  0  0  0  0  0  0  0  0
    4.1881   -2.7763   -1.8230 C   0  0  0  0  0  0  0  0  0  0  0  0
    5.1772   -3.8259   -1.3694 C   0  0  1  0  0  0  0  0  0  0  0  0
    6.4645   -3.4238   -0.9622 O   0  0  0  0  0  0  0  0  0  0  0  0
    5.6292   -3.9606    0.0988 C   0  0  1  0  0  0  0  0  0  0  0  0
    5.8301   -5.4696    0.4775 C   0  0  1  0  0  0  0  0  0  0  0  0
    7.2200   -5.7072    0.6748 O   0  0  0  0  0  0  0  0  0  0  0  0
    4.8988   -6.1611    1.5671 C   0  0  2  0  0  0  0  0  0  0  0  0
    5.2029   -7.6203    1.9786 C   0  0  0  0  0  0  0  0  0  0  0  0
    4.6602   -7.6884    3.4551 C   0  0  0  0  0  0  0  0  0  0  0  0
    4.4761   -6.2058    3.9693 C   0  0  1  0  0  0  0  0  0  0  0  0
    5.3389   -5.7122    2.9333 C   0  0  0  0  0  0  0  0  0  0  0  0
    6.4953   -5.3581    3.2235 O   0  0  0  0  0  0  0  0  0  0  0  0
    2.1620   -6.3831    4.4749 C   0  0  2  0  0  0  0  0  0  0  0  0
    1.2395   -1.8838    3.8569 H   0  0  0  0  0  0  0  0  0  0  0  0
    1.6804   -1.1697    2.2236 H   0  0  0  0  0  0  0  0  0  0  0  0
    1.8765   -2.9338    0.5232 H   0  0  0  0  0  0  0  0  0  0  0  0
    1.6515   -5.0645    0.3627 H   0  0  0  0  0  0  0  0  0  0  0  0
    3.0407   -4.8108   -0.5143 H   0  0  0  0  0  0  0  0  0  0  0  0
    3.4605   -6.6614    0.2363 H   0  0  0  0  0  0  0  0  0  0  0  0
    1.2731   -6.9199    1.2421 H   0  0  0  0  0  0  0  0  0  0  0  0
    1.5963   -8.9740    1.3740 H   0  0  0  0  0  0  0  0  0  0  0  0
    1.4375   -8.2804    3.5369 H   0  0  0  0  0  0  0  0  0  0  0  0
   -0.0835   -6.5014    4.3432 H   0  0  0  0  0  0  0  0  0  0  0  0
    1.5935   -3.9586    4.2165 H   0  0  0  0  0  0  0  0  0  0  0  0
    4.5512   -2.7042    5.8027 H   0  0  0  0  0  0  0  0  0  0  0  0
    5.5538   -3.9462    5.1776 H   0  0  0  0  0  0  0  0  0  0  0  0
    4.0851   -1.7268    3.5829 H   0  0  0  0  0  0  0  0  0  0  0  0
    5.7691   -1.9142    3.8609 H   0  0  0  0  0  0  0  0  0  0  0  0
    6.5082   -1.2897    0.1745 H   0  0  0  0  0  0  0  0  0  0  0  0
    7.1643   -2.0300    1.6171 H   0  0  0  0  0  0  0  0  0  0  0  0
    5.8878   -0.8365    1.7447 H   0  0  0  0  0  0  0  0  0  0  0  0
    3.6555   -1.4502    1.3058 H   0  0  0  0  0  0  0  0  0  0  0  0
    2.8703   -1.3337   -0.9594 H   0  0  0  0  0  0  0  0  0  0  0  0
    4.5275   -0.9426   -0.7886 H   0  0  0  0  0  0  0  0  0  0  0  0
    3.2786   -3.2931   -2.1404 H   0  0  0  0  0  0  0  0  0  0  0  0
    4.5703   -2.2728   -2.7135 H   0  0  0  0  0  0  0  0  0  0  0  0
    5.1993   -4.6865   -2.0194 H   0  0  0  0  0  0  0  0  0  0  0  0
    5.6243   -6.0517   -0.4141 H   0  0  0  0  0  0  0  0  0  0  0  0
    7.4675   -5.3383    1.5168 H   0  0  0  0  0  0  0  0  0  0  0  0
    4.7937   -8.3731    1.3045 H   0  0  0  0  0  0  0  0  0  0  0  0
    6.2785   -7.8193    1.9699 H   0  0  0  0  0  0  0  0  0  0  0  0
    3.8372   -8.3837    3.5760 H   0  0  0  0  0  0  0  0  0  0  0  0
    5.4395   -8.1552    4.0587 H   0  0  0  0  0  0  0  0  0  0  0  0
    5.0082   -6.1812    4.9226 H   0  0  0  0  0  0  0  0  0  0  0  0
    2.1999   -6.8604    5.4389 H   0  0  0  0  0  0  0  0  0  0  0  0
  1  2  2  0
  1 34  1  0
  1 35  1  0
  2 11  1  0
  2  3  1  0
  3 19  1  0
  3  4  1  0
  3 36  1  6
  4  5  1  0
  4 37  1  0
  4 38  1  0
  5 27  1  0
  5  6  1  0
  5 39  1  6
  6  7  1  0
  6  8  1  0
  6 40  1  6
  7 41  1  0
  8 33  1  0
  8  9  1  0
  8 42  1  1
  9 33  1  0
  9 10  1  0
  9 43  1  1
 10 11  1  0
 11 12  1  0
 11 44  1  1
 12 30  1  0
 12 13  1  1
 12 33  1  0
 13 14  1  0
 14 15  1  0
 14 45  1  0
 14 46  1  0
 15 16  1  0
 15 47  1  0
 15 48  1  0
 16 17  1  0
 17 24  1  0
 17 18  1  1
 17 19  1  0
 18 49  1  0
 18 50  1  0
 18 51  1  0
 19 20  1  0
 19 52  1  1
 20 21  1  0
 20 53  1  0
 20 54  1  0
 21 22  1  0
 21 55  1  0
 21 56  1  0
 22 24  1  0
 22 23  1  0
 22 57  1  6
 24 23  1  6
 24 25  1  0
 25 26  1  0
 25 27  1  0
 25 58  1  6
 26 59  1  0
 27 31  1  0
 27 28  1  1
 28 29  1  0
 28 60  1  0
 28 61  1  0
 29 30  1  0
 29 62  1  0
 29 63  1  0
 30 31  1  0
 30 64  1  1
 31 32  2  0
 33 65  1  1
M  END
>  <i_m_ct_stereo_status>  (297) 
1

>  <s_m_source_file>  (297) 
/var/tmp/pbs.5076255.sched01/tmpj3mqheq3/1200r5s1sfv.sdf

>  <i_m_source_file_index>  (297) 
2

>  <i_lp_mmshare_version>  (297) 
48012

>  <i_f3d_flags>  (297) 
0

>  <s_epik_input>  (297) 
W0NAQF0xMjNbQ0BIXTRDKD1bQ0gyXSlbQ0BIXTVbQ0BIXTZbQ0BAXShbQ0gzXSkoT1tDSDJdW0NIMl1PMSlbQ0BdNyhbQ0BIXShPNylbQ0gyXVtDSDJdNilbQ0BASF0oW09IXSlbQ0BdOChbQ0gyXVtDSDJdW0NIXTJDOD1PKVtDQEhdKFtDSDJdNSlbQ0BASF0oW09IXSlbQ0BASF05W0NASF0oTzQpW0NASF0zOQ==

>  <s_epik_cmdline>  (297) 
J2VwaWtfcHl0aG9uJywgJy1waHQnLCAnMi4wJywgJy1waCcsICc3LjAnLCAnLXRuJywgJzgnLCAnLW1hJywgJzIwMCcsICctaW1hZScsICc8aW5maWxlLm1hZT4nLCAnLW9tYWUnLCAnPG91dGZpbGUubWFlPic=

>  <r_lp_tautomer_probability>  (297) 
1

>  <r_epik_Ionization_Penalty>  (297) 
2.41421e-07

>  <r_epik_Ionization_Penalty_Charging>  (297) 
0

>  <r_epik_Ionization_Penalty_Neutral>  (297) 
2.41421e-07

>  <r_epik_State_Penalty>  (297) 
-0

>  <r_epik_Charging_Adjusted_Penalty>  (297) 
0

>  <i_epik_Tot_Q>  (297) 
0

>  <i_epik_Tot_abs_Q>  (297) 
0

>  <s_lp_Force_Field>  (297) 
OPLS3e

>  <r_lp_Energy>  (297) 
217.074

>  <b_lp_Chiralities_Consistent>  (297) 
1

>  <s_lp_Variant>  (297) 
92:0-1

>  <s_i_glide_gridfile>  (297) 
pfpi4k_grid

>  <i_i_glide_lignum>  (297) 
2

>  <i_i_glide_rotatable_bonds>  (297) 
2

>  <r_i_docking_score>  (297) 
-2.99442

>  <r_i_glide_ligand_efficiency>  (297) 
-0.0907399

>  <r_i_glide_ligand_efficiency_sa>  (297) 
-0.291051

>  <r_i_glide_ligand_efficiency_ln>  (297) 
-0.665942

>  <r_i_glide_gscore>  (297) 
-2.99442

>  <r_i_glide_lipo>  (297) 
-0.555348

>  <r_i_glide_hbond>  (297) 
-0.00235817

>  <r_i_glide_metal>  (297) 
-0

>  <r_i_glide_rewards>  (297) 
-0.801005

>  <r_i_glide_evdw>  (297) 
-25.098

>  <r_i_glide_ecoul>  (297) 
-2.53869

>  <r_i_glide_erotb>  (297) 
0

>  <r_i_glide_esite>  (297) 
0

>  <r_i_glide_emodel>  (297) 
-37.4297

>  <r_i_glide_energy>  (297) 
-27.6367

>  <r_i_glide_einternal>  (297) 
0.394924

>  <r_i_glide_intrahb_reward>  (297) 
-0.5

>  <i_i_glide_confnum>  (297) 
2

>  <i_i_glide_posenum>  (297) 
38

>  <r_i_glide_eff_state_penalty>  (297) 
0

>  <ligand_id>  (297) 
92

>  <original_smiles>  (297) 
C=C1C2CC3C(O)C4C5OC1C1(OCCOC6(C)C2CCC2OC26C(O)C32CCC1C2=O)C54

>  <smiles>  (297) 
[H]OC1([H])C2([H])C3([H])OC4([H])C(=C([H])[H])C5([H])C([H])([H])C1([H])C16C(=O)C([H])(C([H])([H])C1([H])[H])C4(OC([H])([H])C([H])([H])OC1(C([H])([H])[H])C5([H])C([H])([H])C([H])([H])C4([H])OC41C6([H])O[H])C32[H]

$$$$
92:0:1
     RDKit          3D

 65 73  0  0  1  0  0  0  0  0999 V2000
    1.6779   -2.0990    2.8826 C   0  0  0  0  0  0  0  0  0  0  0  0
    2.2416   -3.2794    2.4891 C   0  0  0  0  0  0  0  0  0  0  0  0
    2.7403   -3.4221    1.0680 C   0  0  2  0  0  0  0  0  0  0  0  0
    2.7729   -4.8947    0.5143 C   0  0  0  0  0  0  0  0  0  0  0  0
    3.4305   -6.1679    1.1825 C   0  0  2  0  0  0  0  0  0  0  0  0
    2.3274   -7.2177    1.7638 C   0  0  1  0  0  0  0  0  0  0  0  0
    2.5576   -8.5375    1.2931 O   0  0  0  0  0  0  0  0  0  0  0  0
    1.8729   -7.3497    3.2684 C   0  0  2  0  0  0  0  0  0  0  0  0
    0.9212   -6.3472    3.8061 C   0  0  2  0  0  0  0  0  0  0  0  0
    0.9574   -5.2300    2.9835 O   0  0  0  0  0  0  0  0  0  0  0  0
    2.1139   -4.5106    3.3578 C   0  0  1  0  0  0  0  0  0  0  0  0
    3.2196   -5.3365    4.1846 C   0  0  2  0  0  0  0  0  0  0  0  0
    3.5381   -4.3371    5.1848 O   0  0  0  0  0  0  0  0  0  0  0  0
    4.6511   -3.4036    4.9739 C   0  0  0  0  0  0  0  0  0  0  0  0
    4.8549   -2.4842    3.6937 C   0  0  0  0  0  0  0  0  0  0  0  0
    5.0981   -3.2457    2.5044 O   0  0  0  0  0  0  0  0  0  0  0  0
    5.2354   -2.8295    1.1344 C   0  0  2  0  0  0  0  0  0  0  0  0
    6.2305   -1.6504    1.1712 C   0  0  0  0  0  0  0  0  0  0  0  0
    3.8481   -2.3716    0.7179 C   0  0  1  0  0  0  0  0  0  0  0  0
    3.8252   -1.8029   -0.7271 C   0  0  0  0  0  0  0  0  0  0  0  0
    4.2090   -2.7937   -1.8183 C   0  0  0  0  0  0  0  0  0  0  0  0
    5.2215   -3.8209   -1.3646 C   0  0  1  0  0  0  0  0  0  0  0  0
    6.4997   -3.3922   -0.9579 O   0  0  0  0  0  0  0  0  0  0  0  0
    5.6764   -3.9469    0.1054 C   0  0  1  0  0  0  0  0  0  0  0  0
    5.9119   -5.4514    0.4836 C   0  0  1  0  0  0  0  0  0  0  0  0
    7.3111   -5.6551    0.6714 O   0  0  0  0  0  0  0  0  0  0  0  0
    4.9948   -6.1598    1.5759 C   0  0  2  0  0  0  0  0  0  0  0  0
    5.3331   -7.6104    1.9866 C   0  0  0  0  0  0  0  0  0  0  0  0
    4.7851   -7.6946    3.4604 C   0  0  0  0  0  0  0  0  0  0  0  0
    4.5567   -6.2183    3.9746 C   0  0  1  0  0  0  0  0  0  0  0  0
    5.4131   -5.7004    2.9476 C   0  0  0  0  0  0  0  0  0  0  0  0
    6.5549   -5.3338    3.2622 O   0  0  0  0  0  0  0  0  0  0  0  0
    2.2517   -6.4489    4.4735 C   0  0  2  0  0  0  0  0  0  0  0  0
    1.2235   -1.9737    3.8532 H   0  0  0  0  0  0  0  0  0  0  0  0
    1.6516   -1.2483    2.2223 H   0  0  0  0  0  0  0  0  0  0  0  0
    1.8955   -3.0082    0.5204 H   0  0  0  0  0  0  0  0  0  0  0  0
    1.7215   -5.1423    0.3628 H   0  0  0  0  0  0  0  0  0  0  0  0
    3.1060   -4.8551   -0.5120 H   0  0  0  0  0  0  0  0  0  0  0  0
    3.5736   -6.6951    0.2387 H   0  0  0  0  0  0  0  0  0  0  0  0
    1.3900   -7.0086    1.2385 H   0  0  0  0  0  0  0  0  0  0  0  0
    1.7684   -9.0570    1.3953 H   0  0  0  0  0  0  0  0  0  0  0  0
    1.5798   -8.3645    3.5331 H   0  0  0  0  0  0  0  0  0  0  0  0
    0.0117   -6.6212    4.3368 H   0  0  0  0  0  0  0  0  0  0  0  0
    1.6249   -4.0395    4.2142 H   0  0  0  0  0  0  0  0  0  0  0  0
    4.5480   -2.7127    5.8076 H   0  0  0  0  0  0  0  0  0  0  0  0
    5.5837   -3.9276    5.1873 H   0  0  0  0  0  0  0  0  0  0  0  0
    4.0656   -1.7462    3.5878 H   0  0  0  0  0  0  0  0  0  0  0  0
    5.7533   -1.8936    3.8686 H   0  0  0  0  0  0  0  0  0  0  0  0
    6.4872   -1.2505    0.1857 H   0  0  0  0  0  0  0  0  0  0  0  0
    7.1551   -1.9719    1.6330 H   0  0  0  0  0  0  0  0  0  0  0  0
    5.8492   -0.8125    1.7532 H   0  0  0  0  0  0  0  0  0  0  0  0
    3.6360   -1.4819    1.3081 H   0  0  0  0  0  0  0  0  0  0  0  0
    2.8518   -1.3882   -0.9580 H   0  0  0  0  0  0  0  0  0  0  0  0
    4.4983   -0.9517   -0.7837 H   0  0  0  0  0  0  0  0  0  0  0  0
    3.3126   -3.3316   -2.1373 H   0  0  0  0  0  0  0  0  0  0  0  0
    4.5803   -2.2809   -2.7078 H   0  0  0  0  0  0  0  0  0  0  0  0
    5.2644   -4.6791   -2.0162 H   0  0  0  0  0  0  0  0  0  0  0  0
    5.7149   -6.0384   -0.4052 H   0  0  0  0  0  0  0  0  0  0  0  0
    7.4784   -6.5656    0.8734 H   0  0  0  0  0  0  0  0  0  0  0  0
    4.9436   -8.3729    1.3111 H   0  0  0  0  0  0  0  0  0  0  0  0
    6.4119   -7.7887    1.9873 H   0  0  0  0  0  0  0  0  0  0  0  0
    3.9807   -8.4121    3.5785 H   0  0  0  0  0  0  0  0  0  0  0  0
    5.5758   -8.1395    4.0669 H   0  0  0  0  0  0  0  0  0  0  0  0
    5.0866   -6.1794    4.9296 H   0  0  0  0  0  0  0  0  0  0  0  0
    2.3004   -6.9236    5.4381 H   0  0  0  0  0  0  0  0  0  0  0  0
  1  2  2  0
  1 34  1  0
  1 35  1  0
  2 11  1  0
  2  3  1  0
  3 19  1  0
  3  4  1  0
  3 36  1  6
  4  5  1  0
  4 37  1  0
  4 38  1  0
  5 27  1  0
  5  6  1  0
  5 39  1  6
  6  7  1  0
  6  8  1  0
  6 40  1  6
  7 41  1  0
  8 33  1  0
  8  9  1  0
  8 42  1  1
  9 33  1  0
  9 10  1  0
  9 43  1  1
 10 11  1  0
 11 12  1  0
 11 44  1  1
 12 30  1  0
 12 13  1  1
 12 33  1  0
 13 14  1  0
 14 15  1  0
 14 45  1  0
 14 46  1  0
 15 16  1  0
 15 47  1  0
 15 48  1  0
 16 17  1  0
 17 24  1  0
 17 18  1  1
 17 19  1  0
 18 49  1  0
 18 50  1  0
 18 51  1  0
 19 20  1  0
 19 52  1  1
 20 21  1  0
 20 53  1  0
 20 54  1  0
 21 22  1  0
 21 55  1  0
 21 56  1  0
 22 24  1  0
 22 23  1  0
 22 57  1  6
 24 23  1  6
 24 25  1  0
 25 26  1  0
 25 27  1  0
 25 58  1  6
 26 59  1  0
 27 31  1  0
 27 28  1  1
 28 29  1  0
 28 60  1  0
 28 61  1  0
 29 30  1  0
 29 62  1  0
 29 63  1  0
 30 31  1  0
 30 64  1  1
 31 32  2  0
 33 65  1  1
M  END
>  <i_m_ct_stereo_status>  (298) 
1

>  <s_m_source_file>  (298) 
/var/tmp/pbs.5076255.sched01/tmpj3mqheq3/1200r5s1sfv.sdf

>  <i_m_source_file_index>  (298) 
2

>  <i_lp_mmshare_version>  (298) 
48012

>  <i_f3d_flags>  (298) 
0

>  <s_epik_input>  (298) 
W0NAQF0xMjNbQ0BIXTRDKD1bQ0gyXSlbQ0BIXTVbQ0BIXTZbQ0BAXShbQ0gzXSkoT1tDSDJdW0NIMl1PMSlbQ0BdNyhbQ0BIXShPNylbQ0gyXVtDSDJdNilbQ0BASF0oW09IXSlbQ0BdOChbQ0gyXVtDSDJdW0NIXTJDOD1PKVtDQEhdKFtDSDJdNSlbQ0BASF0oW09IXSlbQ0BASF05W0NASF0oTzQpW0NASF0zOQ==

>  <s_epik_cmdline>  (298) 
J2VwaWtfcHl0aG9uJywgJy1waHQnLCAnMi4wJywgJy1waCcsICc3LjAnLCAnLXRuJywgJzgnLCAnLW1hJywgJzIwMCcsICctaW1hZScsICc8aW5maWxlLm1hZT4nLCAnLW9tYWUnLCAnPG91dGZpbGUubWFlPic=

>  <r_lp_tautomer_probability>  (298) 
1

>  <r_epik_Ionization_Penalty>  (298) 
2.41421e-07

>  <r_epik_Ionization_Penalty_Charging>  (298) 
0

>  <r_epik_Ionization_Penalty_Neutral>  (298) 
2.41421e-07

>  <r_epik_State_Penalty>  (298) 
-0

>  <r_epik_Charging_Adjusted_Penalty>  (298) 
0

>  <i_epik_Tot_Q>  (298) 
0

>  <i_epik_Tot_abs_Q>  (298) 
0

>  <s_lp_Force_Field>  (298) 
OPLS3e

>  <r_lp_Energy>  (298) 
217.074

>  <b_lp_Chiralities_Consistent>  (298) 
1

>  <s_lp_Variant>  (298) 
92:0-1

>  <s_i_glide_gridfile>  (298) 
pfpi4k_grid

>  <i_i_glide_lignum>  (298) 
2

>  <i_i_glide_rotatable_bonds>  (298) 
2

>  <r_i_docking_score>  (298) 
-2.48921

>  <r_i_glide_ligand_efficiency>  (298) 
-0.0754308

>  <r_i_glide_ligand_efficiency_sa>  (298) 
-0.241947

>  <r_i_glide_ligand_efficiency_ln>  (298) 
-0.553589

>  <r_i_glide_gscore>  (298) 
-2.48921

>  <r_i_glide_lipo>  (298) 
-0.581357

>  <r_i_glide_hbond>  (298) 
0

>  <r_i_glide_metal>  (298) 
-0

>  <r_i_glide_rewards>  (298) 
-0.302456

>  <r_i_glide_evdw>  (298) 
-25.1136

>  <r_i_glide_ecoul>  (298) 
-2.3315

>  <r_i_glide_erotb>  (298) 
0

>  <r_i_glide_esite>  (298) 
0

>  <r_i_glide_emodel>  (298) 
-31.1739

>  <r_i_glide_energy>  (298) 
-27.4451

>  <r_i_glide_einternal>  (298) 
0.737458

>  <r_i_glide_intrahb_reward>  (298) 
-0

>  <i_i_glide_confnum>  (298) 
2

>  <i_i_glide_posenum>  (298) 
34

>  <r_i_glide_eff_state_penalty>  (298) 
0

>  <ligand_id>  (298) 
92

>  <original_smiles>  (298) 
C=C1C2CC3C(O)C4C5OC1C1(OCCOC6(C)C2CCC2OC26C(O)C32CCC1C2=O)C54

>  <smiles>  (298) 
[H]OC1([H])C2([H])C3([H])OC4([H])C(=C([H])[H])C5([H])C([H])([H])C1([H])C16C(=O)C([H])(C([H])([H])C1([H])[H])C4(OC([H])([H])C([H])([H])OC1(C([H])([H])[H])C5([H])C([H])([H])C([H])([H])C4([H])OC41C6([H])O[H])C32[H]

$$$$
92:0:2
     RDKit          3D

 65 73  0  0  1  0  0  0  0  0999 V2000
    1.6937   -2.0418    2.8669 C   0  0  0  0  0  0  0  0  0  0  0  0
    2.2478   -3.2267    2.4752 C   0  0  0  0  0  0  0  0  0  0  0  0
    2.7402   -3.3789    1.0510 C   0  0  2  0  0  0  0  0  0  0  0  0
    2.7624   -4.8541    0.5024 C   0  0  0  0  0  0  0  0  0  0  0  0
    3.4173   -6.1290    1.1725 C   0  0  2  0  0  0  0  0  0  0  0  0
    2.3149   -7.1727    1.7637 C   0  0  1  0  0  0  0  0  0  0  0  0
    2.5208   -8.4963    1.2958 O   0  0  0  0  0  0  0  0  0  0  0  0
    1.8571   -7.2936    3.2667 C   0  0  2  0  0  0  0  0  0  0  0  0
    0.9121   -6.2827    3.8018 C   0  0  2  0  0  0  0  0  0  0  0  0
    0.9560   -5.1688    2.9756 O   0  0  0  0  0  0  0  0  0  0  0  0
    2.1147   -4.4543    3.3473 C   0  0  1  0  0  0  0  0  0  0  0  0
    3.2173   -5.2859    4.1734 C   0  0  2  0  0  0  0  0  0  0  0  0
    3.5451   -4.2846    5.1677 O   0  0  0  0  0  0  0  0  0  0  0  0
    4.6633   -3.3588    4.9493 C   0  0  0  0  0  0  0  0  0  0  0  0
    4.8695   -2.4452    3.6648 C   0  0  0  0  0  0  0  0  0  0  0  0
    5.1034   -3.2125    2.4777 O   0  0  0  0  0  0  0  0  0  0  0  0
    5.2406   -2.8033    1.1072 C   0  0  2  0  0  0  0  0  0  0  0  0
    6.2457   -1.6314    1.1347 C   0  0  0  0  0  0  0  0  0  0  0  0
    3.8541   -2.3371    0.6924 C   0  0  1  0  0  0  0  0  0  0  0  0
    3.8329   -1.7749   -0.7552 C   0  0  0  0  0  0  0  0  0  0  0  0
    4.2062   -2.7730   -1.8432 C   0  0  0  0  0  0  0  0  0  0  0  0
    5.2114   -3.8056   -1.3874 C   0  0  1  0  0  0  0  0  0  0  0  0
    6.4950   -3.3851   -0.9851 O   0  0  0  0  0  0  0  0  0  0  0  0
    5.6698   -3.9284    0.0832 C   0  0  1  0  0  0  0  0  0  0  0  0
    5.8993   -5.4312    0.4729 C   0  0  1  0  0  0  0  0  0  0  0  0
    7.2974   -5.6453    0.6525 O   0  0  0  0  0  0  0  0  0  0  0  0
    4.9806   -6.1308    1.5643 C   0  0  2  0  0  0  0  0  0  0  0  0
    5.3105   -7.5832    1.9768 C   0  0  0  0  0  0  0  0  0  0  0  0
    4.7643   -7.6579    3.4527 C   0  0  0  0  0  0  0  0  0  0  0  0
    4.5474   -6.1771    3.9621 C   0  0  1  0  0  0  0  0  0  0  0  0
    5.4033   -5.6667    2.9319 C   0  0  0  0  0  0  0  0  0  0  0  0
    6.5466   -5.3046    3.2402 O   0  0  0  0  0  0  0  0  0  0  0  0
    2.2430   -6.3898    4.4675 C   0  0  2  0  0  0  0  0  0  0  0  0
    1.2412   -1.9088    3.8371 H   0  0  0  0  0  0  0  0  0  0  0  0
    1.6694   -1.1938    2.2022 H   0  0  0  0  0  0  0  0  0  0  0  0
    1.8960   -2.9621    0.5034 H   0  0  0  0  0  0  0  0  0  0  0  0
    1.7100   -5.0981    0.3543 H   0  0  0  0  0  0  0  0  0  0  0  0
    3.0919   -4.8200   -0.5260 H   0  0  0  0  0  0  0  0  0  0  0  0
    3.5502   -6.6597    0.2292 H   0  0  0  0  0  0  0  0  0  0  0  0
    1.3792   -6.9654    1.2374 H   0  0  0  0  0  0  0  0  0  0  0  0
    3.2492   -8.8869    1.7636 H   0  0  0  0  0  0  0  0  0  0  0  0
    1.5497   -8.3049    3.5305 H   0  0  0  0  0  0  0  0  0  0  0  0
    0.0021   -6.5476    4.3363 H   0  0  0  0  0  0  0  0  0  0  0  0
    1.6293   -3.9780    4.2028 H   0  0  0  0  0  0  0  0  0  0  0  0
    4.5670   -2.6637    5.7806 H   0  0  0  0  0  0  0  0  0  0  0  0
    5.5931   -3.8875    5.1622 H   0  0  0  0  0  0  0  0  0  0  0  0
    4.0850   -1.7025    3.5583 H   0  0  0  0  0  0  0  0  0  0  0  0
    5.7727   -1.8605    3.8343 H   0  0  0  0  0  0  0  0  0  0  0  0
    6.4998   -1.2365    0.1471 H   0  0  0  0  0  0  0  0  0  0  0  0
    7.1718   -1.9569    1.5919 H   0  0  0  0  0  0  0  0  0  0  0  0
    5.8719   -0.7887    1.7154 H   0  0  0  0  0  0  0  0  0  0  0  0
    3.6497   -1.4440    1.2793 H   0  0  0  0  0  0  0  0  0  0  0  0
    2.8609   -1.3529   -0.9852 H   0  0  0  0  0  0  0  0  0  0  0  0
    4.5103   -0.9283   -0.8168 H   0  0  0  0  0  0  0  0  0  0  0  0
    3.3050   -3.3052   -2.1584 H   0  0  0  0  0  0  0  0  0  0  0  0
    4.5784   -2.2656   -2.7354 H   0  0  0  0  0  0  0  0  0  0  0  0
    5.2485   -4.6663   -2.0372 H   0  0  0  0  0  0  0  0  0  0  0  0
    5.6949   -6.0186   -0.4144 H   0  0  0  0  0  0  0  0  0  0  0  0
    7.4605   -6.5562    0.8533 H   0  0  0  0  0  0  0  0  0  0  0  0
    4.9267   -8.3437    1.2969 H   0  0  0  0  0  0  0  0  0  0  0  0
    6.3890   -7.7634    1.9789 H   0  0  0  0  0  0  0  0  0  0  0  0
    3.9568   -8.3688    3.5858 H   0  0  0  0  0  0  0  0  0  0  0  0
    5.5550   -8.1031    4.0587 H   0  0  0  0  0  0  0  0  0  0  0  0
    5.0799   -6.1377    4.9149 H   0  0  0  0  0  0  0  0  0  0  0  0
    2.2893   -6.8612    5.4352 H   0  0  0  0  0  0  0  0  0  0  0  0
  1  2  2  0
  1 34  1  0
  1 35  1  0
  2 11  1  0
  2  3  1  0
  3 19  1  0
  3  4  1  0
  3 36  1  6
  4  5  1  0
  4 37  1  0
  4 38  1  0
  5 27  1  0
  5  6  1  0
  5 39  1  6
  6  7  1  0
  6  8  1  0
  6 40  1  6
  7 41  1  0
  8 33  1  0
  8  9  1  0
  8 42  1  1
  9 33  1  0
  9 10  1  0
  9 43  1  1
 10 11  1  0
 11 12  1  0
 11 44  1  1
 12 30  1  0
 12 13  1  1
 12 33  1  0
 13 14  1  0
 14 15  1  0
 14 45  1  0
 14 46  1  0
 15 16  1  0
 15 47  1  0
 15 48  1  0
 16 17  1  0
 17 24  1  0
 17 18  1  1
 17 19  1  0
 18 49  1  0
 18 50  1  0
 18 51  1  0
 19 20  1  0
 19 52  1  1
 20 21  1  0
 20 53  1  0
 20 54  1  0
 21 22  1  0
 21 55  1  0
 21 56  1  0
 22 24  1  0
 22 23  1  0
 22 57  1  6
 24 23  1  6
 24 25  1  0
 25 26  1  0
 25 27  1  0
 25 58  1  6
 26 59  1  0
 27 31  1  0
 27 28  1  1
 28 29  1  0
 28 60  1  0
 28 61  1  0
 29 30  1  0
 29 62  1  0
 29 63  1  0
 30 31  1  0
 30 64  1  1
 31 32  2  0
 33 65  1  1
M  END
>  <i_m_ct_stereo_status>  (299) 
1

>  <s_m_source_file>  (299) 
/var/tmp/pbs.5076255.sched01/tmpj3mqheq3/1200r5s1sfv.sdf

>  <i_m_source_file_index>  (299) 
2

>  <i_lp_mmshare_version>  (299) 
48012

>  <i_f3d_flags>  (299) 
0

>  <s_epik_input>  (299) 
W0NAQF0xMjNbQ0BIXTRDKD1bQ0gyXSlbQ0BIXTVbQ0BIXTZbQ0BAXShbQ0gzXSkoT1tDSDJdW0NIMl1PMSlbQ0BdNyhbQ0BIXShPNylbQ0gyXVtDSDJdNilbQ0BASF0oW09IXSlbQ0BdOChbQ0gyXVtDSDJdW0NIXTJDOD1PKVtDQEhdKFtDSDJdNSlbQ0BASF0oW09IXSlbQ0BASF05W0NASF0oTzQpW0NASF0zOQ==

>  <s_epik_cmdline>  (299) 
J2VwaWtfcHl0aG9uJywgJy1waHQnLCAnMi4wJywgJy1waCcsICc3LjAnLCAnLXRuJywgJzgnLCAnLW1hJywgJzIwMCcsICctaW1hZScsICc8aW5maWxlLm1hZT4nLCAnLW9tYWUnLCAnPG91dGZpbGUubWFlPic=

>  <r_lp_tautomer_probability>  (299) 
1

>  <r_epik_Ionization_Penalty>  (299) 
2.41421e-07

>  <r_epik_Ionization_Penalty_Charging>  (299) 
0

>  <r_epik_Ionization_Penalty_Neutral>  (299) 
2.41421e-07

>  <r_epik_State_Penalty>  (299) 
-0

>  <r_epik_Charging_Adjusted_Penalty>  (299) 
0

>  <i_epik_Tot_Q>  (299) 
0

>  <i_epik_Tot_abs_Q>  (299) 
0

>  <s_lp_Force_Field>  (299) 
OPLS3e

>  <r_lp_Energy>  (299) 
217.074

>  <b_lp_Chiralities_Consistent>  (299) 
1

>  <s_lp_Variant>  (299) 
92:0-1

>  <s_i_glide_gridfile>  (299) 
pfpi4k_grid

>  <i_i_glide_lignum>  (299) 
2

>  <i_i_glide_rotatable_bonds>  (299) 
2

>  <r_i_docking_score>  (299) 
-2.29692

>  <r_i_glide_ligand_efficiency>  (299) 
-0.0696035

>  <r_i_glide_ligand_efficiency_sa>  (299) 
-0.223256

>  <r_i_glide_ligand_efficiency_ln>  (299) 
-0.510822

>  <r_i_glide_gscore>  (299) 
-2.29692

>  <r_i_glide_lipo>  (299) 
-0.577437

>  <r_i_glide_hbond>  (299) 
0

>  <r_i_glide_metal>  (299) 
-0

>  <r_i_glide_rewards>  (299) 
-0.302561

>  <r_i_glide_evdw>  (299) 
-25.0445

>  <r_i_glide_ecoul>  (299) 
-1.09796

>  <r_i_glide_erotb>  (299) 
0

>  <r_i_glide_esite>  (299) 
0

>  <r_i_glide_emodel>  (299) 
-29.708

>  <r_i_glide_energy>  (299) 
-26.1424

>  <r_i_glide_einternal>  (299) 
0.421602

>  <r_i_glide_intrahb_reward>  (299) 
-0

>  <i_i_glide_confnum>  (299) 
2

>  <i_i_glide_posenum>  (299) 
27

>  <r_i_glide_eff_state_penalty>  (299) 
0

>  <ligand_id>  (299) 
92

>  <original_smiles>  (299) 
C=C1C2CC3C(O)C4C5OC1C1(OCCOC6(C)C2CCC2OC26C(O)C32CCC1C2=O)C54

>  <smiles>  (299) 
[H]OC1([H])C2([H])C3([H])OC4([H])C(=C([H])[H])C5([H])C([H])([H])C1([H])C16C(=O)C([H])(C([H])([H])C1([H])[H])C4(OC([H])([H])C([H])([H])OC1(C([H])([H])[H])C5([H])C([H])([H])C([H])([H])C4([H])OC41C6([H])O[H])C32[H]

$$$$
92:1:0
     RDKit          3D

 65 73  0  0  1  0  0  0  0  0999 V2000
    1.7067   -2.0010    2.8936 C   0  0  0  0  0  0  0  0  0  0  0  0
    2.2409   -3.1961    2.5161 C   0  0  0  0  0  0  0  0  0  0  0  0
    2.7443   -3.3685    1.0911 C   0  0  2  0  0  0  0  0  0  0  0  0
    2.7257   -4.8295    0.4876 C   0  0  0  0  0  0  0  0  0  0  0  0
    3.3664   -6.1517    1.0704 C   0  0  2  0  0  0  0  0  0  0  0  0
    2.2263   -7.1655    1.7044 C   0  0  1  0  0  0  0  0  0  0  0  0
    2.4765   -8.4985    1.2904 O   0  0  0  0  0  0  0  0  0  0  0  0
    1.7412   -7.2708    3.2316 C   0  0  2  0  0  0  0  0  0  0  0  0
    0.8144   -6.2395    3.7499 C   0  0  2  0  0  0  0  0  0  0  0  0
    0.9265   -5.1136    2.9529 O   0  0  0  0  0  0  0  0  0  0  0  0
    2.0561   -4.4014    3.4082 C   0  0  1  0  0  0  0  0  0  0  0  0
    3.1303   -5.2553    4.2439 C   0  0  2  0  0  0  0  0  0  0  0  0
    3.4986   -4.2725    5.2393 O   0  0  0  0  0  0  0  0  0  0  0  0
    4.6438   -3.3809    4.9999 C   0  0  0  0  0  0  0  0  0  0  0  0
    4.8592   -2.4475    3.7233 C   0  0  0  0  0  0  0  0  0  0  0  0
    5.1108   -3.1908    2.5219 O   0  0  0  0  0  0  0  0  0  0  0  0
    5.2447   -2.7978    1.1435 C   0  0  2  0  0  0  0  0  0  0  0  0
    6.2554   -1.6320    1.1760 C   0  0  0  0  0  0  0  0  0  0  0  0
    3.8605   -2.3277    0.7332 C   0  0  1  0  0  0  0  0  0  0  0  0
    3.8396   -1.7501   -0.7069 C   0  0  0  0  0  0  0  0  0  0  0  0
    4.2180   -2.7319   -1.8096 C   0  0  0  0  0  0  0  0  0  0  0  0
    5.2146   -3.7813   -1.3634 C   0  0  1  0  0  0  0  0  0  0  0  0
    6.4970   -3.3735   -0.9504 O   0  0  0  0  0  0  0  0  0  0  0  0
    5.6676   -3.9228    0.1049 C   0  0  1  0  0  0  0  0  0  0  0  0
    5.8956   -5.4391    0.4675 C   0  0  1  0  0  0  0  0  0  0  0  0
    7.2854   -5.6578    0.6941 O   0  0  0  0  0  0  0  0  0  0  0  0
    4.9463   -6.1599    1.5134 C   0  0  2  0  0  0  0  0  0  0  0  0
    5.2786   -7.6009    2.0471 C   0  0  0  0  0  0  0  0  0  0  0  0
    4.7548   -7.6188    3.5584 C   0  0  0  0  0  0  0  0  0  0  0  0
    4.4288   -6.1196    3.8798 C   0  0  2  0  0  0  0  0  0  0  0  0
    5.3417   -5.6495    2.8825 C   0  0  0  0  0  0  0  0  0  0  0  0
    6.4880   -5.3073    3.2114 O   0  0  0  0  0  0  0  0  0  0  0  0
    2.1023   -6.3720    4.4864 C   0  0  2  0  0  0  0  0  0  0  0  0
    1.2497   -1.8543    3.8605 H   0  0  0  0  0  0  0  0  0  0  0  0
    1.7071   -1.1539    2.2275 H   0  0  0  0  0  0  0  0  0  0  0  0
    1.9043   -2.9310    0.5538 H   0  0  0  0  0  0  0  0  0  0  0  0
    1.6676   -5.0529    0.3489 H   0  0  0  0  0  0  0  0  0  0  0  0
    3.0410   -4.7564   -0.5432 H   0  0  0  0  0  0  0  0  0  0  0  0
    3.4949   -6.6647    0.1167 H   0  0  0  0  0  0  0  0  0  0  0  0
    1.2985   -6.9661    1.1582 H   0  0  0  0  0  0  0  0  0  0  0  0
    1.6809   -9.0147    1.3702 H   0  0  0  0  0  0  0  0  0  0  0  0
    1.4143   -8.2758    3.4896 H   0  0  0  0  0  0  0  0  0  0  0  0
   -0.1314   -6.4890    4.2244 H   0  0  0  0  0  0  0  0  0  0  0  0
    1.5493   -3.9302    4.2546 H   0  0  0  0  0  0  0  0  0  0  0  0
    4.5921   -2.6945    5.8425 H   0  0  0  0  0  0  0  0  0  0  0  0
    5.5567   -3.9486    5.1857 H   0  0  0  0  0  0  0  0  0  0  0  0
    4.0832   -1.6947    3.6244 H   0  0  0  0  0  0  0  0  0  0  0  0
    5.7659   -1.8730    3.9042 H   0  0  0  0  0  0  0  0  0  0  0  0
    6.5043   -1.2282    0.1900 H   0  0  0  0  0  0  0  0  0  0  0  0
    7.1801   -1.9691    1.6299 H   0  0  0  0  0  0  0  0  0  0  0  0
    5.8890   -0.7951    1.7693 H   0  0  0  0  0  0  0  0  0  0  0  0
    3.6667   -1.4382    1.3275 H   0  0  0  0  0  0  0  0  0  0  0  0
    2.8669   -1.3270   -0.9329 H   0  0  0  0  0  0  0  0  0  0  0  0
    4.5148   -0.9012   -0.7575 H   0  0  0  0  0  0  0  0  0  0  0  0
    3.3166   -3.2501   -2.1471 H   0  0  0  0  0  0  0  0  0  0  0  0
    4.6025   -2.2092   -2.6874 H   0  0  0  0  0  0  0  0  0  0  0  0
    5.2453   -4.6390   -2.0223 H   0  0  0  0  0  0  0  0  0  0  0  0
    5.7253   -6.0055   -0.4406 H   0  0  0  0  0  0  0  0  0  0  0  0
    7.5023   -5.3168    1.5572 H   0  0  0  0  0  0  0  0  0  0  0  0
    4.8743   -8.3989    1.4254 H   0  0  0  0  0  0  0  0  0  0  0  0
    6.3571   -7.7824    2.0314 H   0  0  0  0  0  0  0  0  0  0  0  0
    3.9356   -8.3206    3.6875 H   0  0  0  0  0  0  0  0  0  0  0  0
    5.5442   -7.9809    4.2179 H   0  0  0  0  0  0  0  0  0  0  0  0
    3.7128   -6.2721    3.1727 H   0  0  0  0  0  0  0  0  0  0  0  0
    2.0831   -6.8407    5.4555 H   0  0  0  0  0  0  0  0  0  0  0  0
  1  2  2  0
  1 34  1  0
  1 35  1  0
  2 11  1  0
  2  3  1  0
  3 19  1  0
  3  4  1  0
  3 36  1  6
  4  5  1  0
  4 37  1  0
  4 38  1  0
  5 27  1  0
  5  6  1  0
  5 39  1  6
  6  7  1  0
  6  8  1  0
  6 40  1  6
  7 41  1  0
  8 33  1  0
  8  9  1  0
  8 42  1  1
  9 33  1  0
  9 10  1  0
  9 43  1  1
 10 11  1  0
 11 12  1  0
 11 44  1  1
 12 30  1  0
 12 13  1  1
 12 33  1  0
 13 14  1  0
 14 15  1  0
 14 45  1  0
 14 46  1  0
 15 16  1  0
 15 47  1  0
 15 48  1  0
 16 17  1  0
 17 24  1  0
 17 18  1  1
 17 19  1  0
 18 49  1  0
 18 50  1  0
 18 51  1  0
 19 20  1  0
 19 52  1  1
 20 21  1  0
 20 53  1  0
 20 54  1  0
 21 22  1  0
 21 55  1  0
 21 56  1  0
 22 24  1  0
 22 23  1  0
 22 57  1  6
 24 23  1  6
 24 25  1  0
 25 26  1  0
 25 27  1  0
 25 58  1  6
 26 59  1  0
 27 31  1  0
 27 28  1  1
 28 29  1  0
 28 60  1  0
 28 61  1  0
 29 30  1  0
 29 62  1  0
 29 63  1  0
 30 31  1  0
 30 64  1  1
 31 32  2  0
 33 65  1  1
M  END
>  <i_m_ct_stereo_status>  (300) 
1

>  <s_m_source_file>  (300) 
/var/tmp/pbs.5076255.sched01/tmpj3mqheq3/1200r5s1sfv.sdf

>  <i_m_source_file_index>  (300) 
3

>  <i_lp_mmshare_version>  (300) 
48012

>  <i_f3d_flags>  (300) 
0

>  <s_epik_input>  (300) 
W0NAQF0xMjNbQ0BIXTRDKD1bQ0gyXSlbQ0BIXTVbQ0BIXTZbQ0BAXShbQ0gzXSkoT1tDSDJdW0NIMl1PMSlbQ0BdNyhbQ0BIXShPNylbQ0gyXVtDSDJdNilbQ0BASF0oW09IXSlbQ0BdOChbQ0gyXVtDSDJdW0NIXTJDOD1PKVtDQEhdKFtDSDJdNSlbQ0BASF0oW09IXSlbQ0BASF05W0NASF0oTzQpW0NASF0zOQ==

>  <s_epik_cmdline>  (300) 
J2VwaWtfcHl0aG9uJywgJy1waHQnLCAnMi4wJywgJy1waCcsICc3LjAnLCAnLXRuJywgJzgnLCAnLW1hJywgJzIwMCcsICctaW1hZScsICc8aW5maWxlLm1hZT4nLCAnLW9tYWUnLCAnPG91dGZpbGUubWFlPic=

>  <r_lp_tautomer_probability>  (300) 
1

>  <r_epik_Ionization_Penalty>  (300) 
2.41421e-07

>  <r_epik_Ionization_Penalty_Charging>  (300) 
0

>  <r_epik_Ionization_Penalty_Neutral>  (300) 
2.41421e-07

>  <r_epik_State_Penalty>  (300) 
-0

>  <r_epik_Charging_Adjusted_Penalty>  (300) 
0

>  <i_epik_Tot_Q>  (300) 
0

>  <i_epik_Tot_abs_Q>  (300) 
0

>  <s_lp_Force_Field>  (300) 
OPLS3e

>  <r_lp_Energy>  (300) 
271.184

>  <b_lp_Chiralities_Consistent>  (300) 
1

>  <s_lp_Variant>  (300) 
92:0-2

>  <s_i_glide_gridfile>  (300) 
pfpi4k_grid

>  <i_i_glide_lignum>  (300) 
3

>  <i_i_glide_rotatable_bonds>  (300) 
2

>  <r_i_docking_score>  (300) 
-2.99774

>  <r_i_glide_ligand_efficiency>  (300) 
-0.0908407

>  <r_i_glide_ligand_efficiency_sa>  (300) 
-0.291375

>  <r_i_glide_ligand_efficiency_ln>  (300) 
-0.666682

>  <r_i_glide_gscore>  (300) 
-2.99774

>  <r_i_glide_lipo>  (300) 
-0.571485

>  <r_i_glide_hbond>  (300) 
-0.000724204

>  <r_i_glide_metal>  (300) 
-0

>  <r_i_glide_rewards>  (300) 
-0.801668

>  <r_i_glide_evdw>  (300) 
-24.9533

>  <r_i_glide_ecoul>  (300) 
-2.50799

>  <r_i_glide_erotb>  (300) 
0

>  <r_i_glide_esite>  (300) 
0

>  <r_i_glide_emodel>  (300) 
-37.2373

>  <r_i_glide_energy>  (300) 
-27.4613

>  <r_i_glide_einternal>  (300) 
0.426575

>  <r_i_glide_intrahb_reward>  (300) 
-0.5

>  <i_i_glide_confnum>  (300) 
2

>  <i_i_glide_posenum>  (300) 
19

>  <r_i_glide_eff_state_penalty>  (300) 
0

>  <ligand_id>  (300) 
92

>  <original_smiles>  (300) 
C=C1C2CC3C(O)C4C5OC1C1(OCCOC6(C)C2CCC2OC26C(O)C32CCC1C2=O)C54

>  <smiles>  (300) 
[H]OC1([H])C2([H])C3([H])OC4([H])C(=C([H])[H])C5([H])C([H])([H])C1([H])C16C(=O)C([H])(C([H])([H])C1([H])[H])C4(OC([H])([H])C([H])([H])OC1(C([H])([H])[H])C5([H])C([H])([H])C([H])([H])C4([H])OC41C6([H])O[H])C32[H]

$$$$
92:1:1
     RDKit          3D

 65 73  0  0  1  0  0  0  0  0999 V2000
    1.4990   -2.3138    2.8886 C   0  0  0  0  0  0  0  0  0  0  0  0
    2.1147   -3.4769    2.5289 C   0  0  0  0  0  0  0  0  0  0  0  0
    2.6900   -3.6104    1.1286 C   0  0  2  0  0  0  0  0  0  0  0  0
    2.7740   -5.0673    0.5205 C   0  0  0  0  0  0  0  0  0  0  0  0
    3.4624   -6.3580    1.1214 C   0  0  2  0  0  0  0  0  0  0  0  0
    2.3481   -7.4344    1.6951 C   0  0  1  0  0  0  0  0  0  0  0  0
    2.6907   -8.7464    1.2814 O   0  0  0  0  0  0  0  0  0  0  0  0
    1.7945   -7.5748    3.1962 C   0  0  2  0  0  0  0  0  0  0  0  0
    0.7833   -6.6031    3.6744 C   0  0  2  0  0  0  0  0  0  0  0  0
    0.8574   -5.4545    2.8974 O   0  0  0  0  0  0  0  0  0  0  0  0
    1.9432   -4.6970    3.3997 C   0  0  1  0  0  0  0  0  0  0  0  0
    3.0203   -5.5003    4.2852 C   0  0  2  0  0  0  0  0  0  0  0  0
    3.2873   -4.5020    5.2985 O   0  0  0  0  0  0  0  0  0  0  0  0
    4.3925   -3.5458    5.1196 C   0  0  0  0  0  0  0  0  0  0  0  0
    4.6187   -2.5921    3.8587 C   0  0  0  0  0  0  0  0  0  0  0  0
    4.9681   -3.3164    2.6670 O   0  0  0  0  0  0  0  0  0  0  0  0
    5.1507   -2.9094    1.3014 C   0  0  2  0  0  0  0  0  0  0  0  0
    6.0900   -1.6842    1.3798 C   0  0  0  0  0  0  0  0  0  0  0  0
    3.7637   -2.5114    0.8241 C   0  0  1  0  0  0  0  0  0  0  0  0
    3.7720   -1.9247   -0.6120 C   0  0  0  0  0  0  0  0  0  0  0  0
    4.2548   -2.8744   -1.6998 C   0  0  0  0  0  0  0  0  0  0  0  0
    5.2842   -3.8629   -1.2144 C   0  0  1  0  0  0  0  0  0  0  0  0
    6.5265   -3.3905   -0.7433 O   0  0  0  0  0  0  0  0  0  0  0  0
    5.6823   -3.9992    0.2717 C   0  0  1  0  0  0  0  0  0  0  0  0
    5.9682   -5.5081    0.6236 C   0  0  1  0  0  0  0  0  0  0  0  0
    7.3618   -5.6526    0.8943 O   0  0  0  0  0  0  0  0  0  0  0  0
    5.0197   -6.2797    1.6428 C   0  0  2  0  0  0  0  0  0  0  0  0
    5.4012   -7.7045    2.1841 C   0  0  0  0  0  0  0  0  0  0  0  0
    4.8032   -7.7623    3.6681 C   0  0  0  0  0  0  0  0  0  0  0  0
    4.3770   -6.2877    3.9781 C   0  0  2  0  0  0  0  0  0  0  0  0
    5.3094   -5.7598    3.0357 C   0  0  0  0  0  0  0  0  0  0  0  0
    6.4148   -5.3638    3.4425 O   0  0  0  0  0  0  0  0  0  0  0  0
    2.0443   -6.6646    4.4695 C   0  0  2  0  0  0  0  0  0  0  0  0
    0.9805   -2.2037    3.8278 H   0  0  0  0  0  0  0  0  0  0  0  0
    1.4799   -1.4668    2.2245 H   0  0  0  0  0  0  0  0  0  0  0  0
    1.8413   -3.2172    0.5539 H   0  0  0  0  0  0  0  0  0  0  0  0
    1.7335   -5.3441    0.3341 H   0  0  0  0  0  0  0  0  0  0  0  0
    3.1347   -4.9740   -0.4948 H   0  0  0  0  0  0  0  0  0  0  0  0
    3.6684   -6.8639    0.1783 H   0  0  0  0  0  0  0  0  0  0  0  0
    1.4350   -7.2812    1.1104 H   0  0  0  0  0  0  0  0  0  0  0  0
    1.9316   -9.3112    1.3444 H   0  0  0  0  0  0  0  0  0  0  0  0
    1.5179   -8.5979    3.4381 H   0  0  0  0  0  0  0  0  0  0  0  0
   -0.1611   -6.9151    4.1090 H   0  0  0  0  0  0  0  0  0  0  0  0
    1.3764   -4.2575    4.2277 H   0  0  0  0  0  0  0  0  0  0  0  0
    4.2657   -2.8681    5.9631 H   0  0  0  0  0  0  0  0  0  0  0  0
    5.3273   -4.0639    5.3475 H   0  0  0  0  0  0  0  0  0  0  0  0
    3.8086   -1.8814    3.7285 H   0  0  0  0  0  0  0  0  0  0  0  0
    5.4821   -1.9696    4.0875 H   0  0  0  0  0  0  0  0  0  0  0  0
    6.3649   -1.2630    0.4098 H   0  0  0  0  0  0  0  0  0  0  0  0
    7.0118   -1.9673    1.8715 H   0  0  0  0  0  0  0  0  0  0  0  0
    5.6488   -0.8774    1.9599 H   0  0  0  0  0  0  0  0  0  0  0  0
    3.4931   -1.6384    1.4125 H   0  0  0  0  0  0  0  0  0  0  0  0
    2.7807   -1.5747   -0.8794 H   0  0  0  0  0  0  0  0  0  0  0  0
    4.3961   -1.0359   -0.6300 H   0  0  0  0  0  0  0  0  0  0  0  0
    3.4006   -3.4408   -2.0793 H   0  0  0  0  0  0  0  0  0  0  0  0
    4.6472   -2.3264   -2.5581 H   0  0  0  0  0  0  0  0  0  0  0  0
    5.3893   -4.7082   -1.8775 H   0  0  0  0  0  0  0  0  0  0  0  0
    5.8612   -6.0747   -0.2964 H   0  0  0  0  0  0  0  0  0  0  0  0
    7.5718   -6.5628    1.0487 H   0  0  0  0  0  0  0  0  0  0  0  0
    5.0700   -8.5189    1.5395 H   0  0  0  0  0  0  0  0  0  0  0  0
    6.4856   -7.8289    2.2247 H   0  0  0  0  0  0  0  0  0  0  0  0
    4.0222   -8.5123    3.7544 H   0  0  0  0  0  0  0  0  0  0  0  0
    5.5826   -8.0823    4.3616 H   0  0  0  0  0  0  0  0  0  0  0  0
    3.7059   -6.4741    3.2350 H   0  0  0  0  0  0  0  0  0  0  0  0
    2.0089   -7.1468    5.4372 H   0  0  0  0  0  0  0  0  0  0  0  0
  1  2  2  0
  1 34  1  0
  1 35  1  0
  2 11  1  0
  2  3  1  0
  3 19  1  0
  3  4  1  0
  3 36  1  6
  4  5  1  0
  4 37  1  0
  4 38  1  0
  5 27  1  0
  5  6  1  0
  5 39  1  6
  6  7  1  0
  6  8  1  0
  6 40  1  6
  7 41  1  0
  8 33  1  0
  8  9  1  0
  8 42  1  1
  9 33  1  0
  9 10  1  0
  9 43  1  1
 10 11  1  0
 11 12  1  0
 11 44  1  1
 12 30  1  0
 12 13  1  1
 12 33  1  0
 13 14  1  0
 14 15  1  0
 14 45  1  0
 14 46  1  0
 15 16  1  0
 15 47  1  0
 15 48  1  0
 16 17  1  0
 17 24  1  0
 17 18  1  1
 17 19  1  0
 18 49  1  0
 18 50  1  0
 18 51  1  0
 19 20  1  0
 19 52  1  1
 20 21  1  0
 20 53  1  0
 20 54  1  0
 21 22  1  0
 21 55  1  0
 21 56  1  0
 22 24  1  0
 22 23  1  0
 22 57  1  6
 24 23  1  6
 24 25  1  0
 25 26  1  0
 25 27  1  0
 25 58  1  6
 26 59  1  0
 27 31  1  0
 27 28  1  1
 28 29  1  0
 28 60  1  0
 28 61  1  0
 29 30  1  0
 29 62  1  0
 29 63  1  0
 30 31  1  0
 30 64  1  1
 31 32  2  0
 33 65  1  1
M  END
>  <i_m_ct_stereo_status>  (301) 
1

>  <s_m_source_file>  (301) 
/var/tmp/pbs.5076255.sched01/tmpj3mqheq3/1200r5s1sfv.sdf

>  <i_m_source_file_index>  (301) 
3

>  <i_lp_mmshare_version>  (301) 
48012

>  <i_f3d_flags>  (301) 
0

>  <s_epik_input>  (301) 
W0NAQF0xMjNbQ0BIXTRDKD1bQ0gyXSlbQ0BIXTVbQ0BIXTZbQ0BAXShbQ0gzXSkoT1tDSDJdW0NIMl1PMSlbQ0BdNyhbQ0BIXShPNylbQ0gyXVtDSDJdNilbQ0BASF0oW09IXSlbQ0BdOChbQ0gyXVtDSDJdW0NIXTJDOD1PKVtDQEhdKFtDSDJdNSlbQ0BASF0oW09IXSlbQ0BASF05W0NASF0oTzQpW0NASF0zOQ==

>  <s_epik_cmdline>  (301) 
J2VwaWtfcHl0aG9uJywgJy1waHQnLCAnMi4wJywgJy1waCcsICc3LjAnLCAnLXRuJywgJzgnLCAnLW1hJywgJzIwMCcsICctaW1hZScsICc8aW5maWxlLm1hZT4nLCAnLW9tYWUnLCAnPG91dGZpbGUubWFlPic=

>  <r_lp_tautomer_probability>  (301) 
1

>  <r_epik_Ionization_Penalty>  (301) 
2.41421e-07

>  <r_epik_Ionization_Penalty_Charging>  (301) 
0

>  <r_epik_Ionization_Penalty_Neutral>  (301) 
2.41421e-07

>  <r_epik_State_Penalty>  (301) 
-0

>  <r_epik_Charging_Adjusted_Penalty>  (301) 
0

>  <i_epik_Tot_Q>  (301) 
0

>  <i_epik_Tot_abs_Q>  (301) 
0

>  <s_lp_Force_Field>  (301) 
OPLS3e

>  <r_lp_Energy>  (301) 
271.184

>  <b_lp_Chiralities_Consistent>  (301) 
1

>  <s_lp_Variant>  (301) 
92:0-2

>  <s_i_glide_gridfile>  (301) 
pfpi4k_grid

>  <i_i_glide_lignum>  (301) 
3

>  <i_i_glide_rotatable_bonds>  (301) 
2

>  <r_i_docking_score>  (301) 
-2.56744

>  <r_i_glide_ligand_efficiency>  (301) 
-0.0778013

>  <r_i_glide_ligand_efficiency_sa>  (301) 
-0.24955

>  <r_i_glide_ligand_efficiency_ln>  (301) 
-0.570986

>  <r_i_glide_gscore>  (301) 
-2.56744

>  <r_i_glide_lipo>  (301) 
-0.590015

>  <r_i_glide_hbond>  (301) 
-0.00929821

>  <r_i_glide_metal>  (301) 
-0

>  <r_i_glide_rewards>  (301) 
-0.299642

>  <r_i_glide_evdw>  (301) 
-25.003

>  <r_i_glide_ecoul>  (301) 
-2.78889

>  <r_i_glide_erotb>  (301) 
0

>  <r_i_glide_esite>  (301) 
0

>  <r_i_glide_emodel>  (301) 
-31.6508

>  <r_i_glide_energy>  (301) 
-27.7919

>  <r_i_glide_einternal>  (301) 
0.716867

>  <r_i_glide_intrahb_reward>  (301) 
-0

>  <i_i_glide_confnum>  (301) 
2

>  <i_i_glide_posenum>  (301) 
17

>  <r_i_glide_eff_state_penalty>  (301) 
0

>  <ligand_id>  (301) 
92

>  <original_smiles>  (301) 
C=C1C2CC3C(O)C4C5OC1C1(OCCOC6(C)C2CCC2OC26C(O)C32CCC1C2=O)C54

>  <smiles>  (301) 
[H]OC1([H])C2([H])C3([H])OC4([H])C(=C([H])[H])C5([H])C([H])([H])C1([H])C16C(=O)C([H])(C([H])([H])C1([H])[H])C4(OC([H])([H])C([H])([H])OC1(C([H])([H])[H])C5([H])C([H])([H])C([H])([H])C4([H])OC41C6([H])O[H])C32[H]

$$$$
92:1:2
     RDKit          3D

 65 73  0  0  1  0  0  0  0  0999 V2000
    1.6930   -2.0037    2.8574 C   0  0  0  0  0  0  0  0  0  0  0  0
    2.2337   -3.2005    2.4887 C   0  0  0  0  0  0  0  0  0  0  0  0
    2.7482   -3.3779    1.0684 C   0  0  2  0  0  0  0  0  0  0  0  0
    2.7395   -4.8436    0.4755 C   0  0  0  0  0  0  0  0  0  0  0  0
    3.3828   -6.1607    1.0686 C   0  0  2  0  0  0  0  0  0  0  0  0
    2.2403   -7.1752    1.6989 C   0  0  1  0  0  0  0  0  0  0  0  0
    2.4990   -8.5103    1.2961 O   0  0  0  0  0  0  0  0  0  0  0  0
    1.7436   -7.2732    3.2223 C   0  0  2  0  0  0  0  0  0  0  0  0
    0.8085   -6.2418    3.7271 C   0  0  2  0  0  0  0  0  0  0  0  0
    0.9236   -5.1212    2.9231 O   0  0  0  0  0  0  0  0  0  0  0  0
    2.0464   -4.4014    3.3842 C   0  0  1  0  0  0  0  0  0  0  0  0
    3.1154   -5.2468    4.2361 C   0  0  2  0  0  0  0  0  0  0  0  0
    3.4724   -4.2552    5.2269 O   0  0  0  0  0  0  0  0  0  0  0  0
    4.6162   -3.3608    4.9896 C   0  0  0  0  0  0  0  0  0  0  0  0
    4.8384   -2.4332    3.7092 C   0  0  0  0  0  0  0  0  0  0  0  0
    5.0935   -3.1835    2.5127 O   0  0  0  0  0  0  0  0  0  0  0  0
    5.2448   -2.7992    1.1343 C   0  0  2  0  0  0  0  0  0  0  0  0
    6.2503   -1.6293    1.1691 C   0  0  0  0  0  0  0  0  0  0  0  0
    3.8630   -2.3358    0.7103 C   0  0  1  0  0  0  0  0  0  0  0  0
    3.8510   -1.7672   -0.7339 C   0  0  0  0  0  0  0  0  0  0  0  0
    4.2449   -2.7531   -1.8271 C   0  0  0  0  0  0  0  0  0  0  0  0
    5.2384   -3.7968   -1.3678 C   0  0  1  0  0  0  0  0  0  0  0  0
    6.5234   -3.3936   -0.9443 O   0  0  0  0  0  0  0  0  0  0  0  0
    5.6780   -3.9307    0.1068 C   0  0  1  0  0  0  0  0  0  0  0  0
    5.9086   -5.4404    0.4791 C   0  0  1  0  0  0  0  0  0  0  0  0
    7.2970   -5.6540    0.6961 O   0  0  0  0  0  0  0  0  0  0  0  0
    4.9608   -6.1570    1.5272 C   0  0  2  0  0  0  0  0  0  0  0  0
    5.2927   -7.5946    2.0679 C   0  0  0  0  0  0  0  0  0  0  0  0
    4.7535   -7.6087    3.5746 C   0  0  0  0  0  0  0  0  0  0  0  0
    4.4164   -6.1100    3.8870 C   0  0  2  0  0  0  0  0  0  0  0  0
    5.3334   -5.6373    2.9002 C   0  0  0  0  0  0  0  0  0  0  0  0
    6.4661   -5.2857    3.2576 O   0  0  0  0  0  0  0  0  0  0  0  0
    2.0907   -6.3628    4.4732 C   0  0  2  0  0  0  0  0  0  0  0  0
    1.2267   -1.8536    3.8189 H   0  0  0  0  0  0  0  0  0  0  0  0
    1.6944   -1.1620    2.1853 H   0  0  0  0  0  0  0  0  0  0  0  0
    1.9109   -2.9475    0.5211 H   0  0  0  0  0  0  0  0  0  0  0  0
    1.6836   -5.0704    0.3291 H   0  0  0  0  0  0  0  0  0  0  0  0
    3.0623   -4.7747   -0.5533 H   0  0  0  0  0  0  0  0  0  0  0  0
    3.5209   -6.6787    0.1190 H   0  0  0  0  0  0  0  0  0  0  0  0
    1.3169   -6.9823    1.1436 H   0  0  0  0  0  0  0  0  0  0  0  0
    1.7139   -9.0348    1.3997 H   0  0  0  0  0  0  0  0  0  0  0  0
    1.4180   -8.2771    3.4844 H   0  0  0  0  0  0  0  0  0  0  0  0
   -0.1395   -6.4925    4.1962 H   0  0  0  0  0  0  0  0  0  0  0  0
    1.5305   -3.9277    4.2237 H   0  0  0  0  0  0  0  0  0  0  0  0
    4.5557   -2.6691    5.8271 H   0  0  0  0  0  0  0  0  0  0  0  0
    5.5304   -3.9219    5.1879 H   0  0  0  0  0  0  0  0  0  0  0  0
    4.0617   -1.6831    3.6007 H   0  0  0  0  0  0  0  0  0  0  0  0
    5.7433   -1.8563    3.8920 H   0  0  0  0  0  0  0  0  0  0  0  0
    6.5136   -1.2336    0.1845 H   0  0  0  0  0  0  0  0  0  0  0  0
    7.1695   -1.9590    1.6364 H   0  0  0  0  0  0  0  0  0  0  0  0
    5.8730   -0.7888    1.7512 H   0  0  0  0  0  0  0  0  0  0  0  0
    3.6612   -1.4433    1.2976 H   0  0  0  0  0  0  0  0  0  0  0  0
    2.8779   -1.3499   -0.9698 H   0  0  0  0  0  0  0  0  0  0  0  0
    4.5228   -0.9152   -0.7837 H   0  0  0  0  0  0  0  0  0  0  0  0
    3.3476   -3.2769   -2.1670 H   0  0  0  0  0  0  0  0  0  0  0  0
    4.6320   -2.2341   -2.7063 H   0  0  0  0  0  0  0  0  0  0  0  0
    5.2739   -4.6556   -2.0226 H   0  0  0  0  0  0  0  0  0  0  0  0
    5.7374   -6.0164   -0.4227 H   0  0  0  0  0  0  0  0  0  0  0  0
    7.7737   -5.2920   -0.0389 H   0  0  0  0  0  0  0  0  0  0  0  0
    4.8968   -8.3975    1.4462 H   0  0  0  0  0  0  0  0  0  0  0  0
    6.3728   -7.7698    2.0618 H   0  0  0  0  0  0  0  0  0  0  0  0
    3.9379   -8.3146    3.7005 H   0  0  0  0  0  0  0  0  0  0  0  0
    5.5409   -7.9614    4.2415 H   0  0  0  0  0  0  0  0  0  0  0  0
    3.7093   -6.2670    3.1725 H   0  0  0  0  0  0  0  0  0  0  0  0
    2.0652   -6.8274    5.4454 H   0  0  0  0  0  0  0  0  0  0  0  0
  1  2  2  0
  1 34  1  0
  1 35  1  0
  2 11  1  0
  2  3  1  0
  3 19  1  0
  3  4  1  0
  3 36  1  6
  4  5  1  0
  4 37  1  0
  4 38  1  0
  5 27  1  0
  5  6  1  0
  5 39  1  6
  6  7  1  0
  6  8  1  0
  6 40  1  6
  7 41  1  0
  8 33  1  0
  8  9  1  0
  8 42  1  1
  9 33  1  0
  9 10  1  0
  9 43  1  1
 10 11  1  0
 11 12  1  0
 11 44  1  1
 12 30  1  0
 12 13  1  1
 12 33  1  0
 13 14  1  0
 14 15  1  0
 14 45  1  0
 14 46  1  0
 15 16  1  0
 15 47  1  0
 15 48  1  0
 16 17  1  0
 17 24  1  0
 17 18  1  1
 17 19  1  0
 18 49  1  0
 18 50  1  0
 18 51  1  0
 19 20  1  0
 19 52  1  1
 20 21  1  0
 20 53  1  0
 20 54  1  0
 21 22  1  0
 21 55  1  0
 21 56  1  0
 22 24  1  0
 22 23  1  0
 22 57  1  6
 24 23  1  6
 24 25  1  0
 25 26  1  0
 25 27  1  0
 25 58  1  6
 26 59  1  0
 27 31  1  0
 27 28  1  1
 28 29  1  0
 28 60  1  0
 28 61  1  0
 29 30  1  0
 29 62  1  0
 29 63  1  0
 30 31  1  0
 30 64  1  1
 31 32  2  0
 33 65  1  1
M  END
>  <i_m_ct_stereo_status>  (302) 
1

>  <s_m_source_file>  (302) 
/var/tmp/pbs.5076255.sched01/tmpj3mqheq3/1200r5s1sfv.sdf

>  <i_m_source_file_index>  (302) 
3

>  <i_lp_mmshare_version>  (302) 
48012

>  <i_f3d_flags>  (302) 
0

>  <s_epik_input>  (302) 
W0NAQF0xMjNbQ0BIXTRDKD1bQ0gyXSlbQ0BIXTVbQ0BIXTZbQ0BAXShbQ0gzXSkoT1tDSDJdW0NIMl1PMSlbQ0BdNyhbQ0BIXShPNylbQ0gyXVtDSDJdNilbQ0BASF0oW09IXSlbQ0BdOChbQ0gyXVtDSDJdW0NIXTJDOD1PKVtDQEhdKFtDSDJdNSlbQ0BASF0oW09IXSlbQ0BASF05W0NASF0oTzQpW0NASF0zOQ==

>  <s_epik_cmdline>  (302) 
J2VwaWtfcHl0aG9uJywgJy1waHQnLCAnMi4wJywgJy1waCcsICc3LjAnLCAnLXRuJywgJzgnLCAnLW1hJywgJzIwMCcsICctaW1hZScsICc8aW5maWxlLm1hZT4nLCAnLW9tYWUnLCAnPG91dGZpbGUubWFlPic=

>  <r_lp_tautomer_probability>  (302) 
1

>  <r_epik_Ionization_Penalty>  (302) 
2.41421e-07

>  <r_epik_Ionization_Penalty_Charging>  (302) 
0

>  <r_epik_Ionization_Penalty_Neutral>  (302) 
2.41421e-07

>  <r_epik_State_Penalty>  (302) 
-0

>  <r_epik_Charging_Adjusted_Penalty>  (302) 
0

>  <i_epik_Tot_Q>  (302) 
0

>  <i_epik_Tot_abs_Q>  (302) 
0

>  <s_lp_Force_Field>  (302) 
OPLS3e

>  <r_lp_Energy>  (302) 
271.184

>  <b_lp_Chiralities_Consistent>  (302) 
1

>  <s_lp_Variant>  (302) 
92:0-2

>  <s_i_glide_gridfile>  (302) 
pfpi4k_grid

>  <i_i_glide_lignum>  (302) 
3

>  <i_i_glide_rotatable_bonds>  (302) 
2

>  <r_i_docking_score>  (302) 
-2.34493

>  <r_i_glide_ligand_efficiency>  (302) 
-0.0710585

>  <r_i_glide_ligand_efficiency_sa>  (302) 
-0.227923

>  <r_i_glide_ligand_efficiency_ln>  (302) 
-0.521501

>  <r_i_glide_gscore>  (302) 
-2.34493

>  <r_i_glide_lipo>  (302) 
-0.568979

>  <r_i_glide_hbond>  (302) 
-0.00168291

>  <r_i_glide_metal>  (302) 
-0

>  <r_i_glide_rewards>  (302) 
-0.3014

>  <r_i_glide_evdw>  (302) 
-24.9665

>  <r_i_glide_ecoul>  (302) 
-1.49697

>  <r_i_glide_erotb>  (302) 
0

>  <r_i_glide_esite>  (302) 
0

>  <r_i_glide_emodel>  (302) 
-29.9404

>  <r_i_glide_energy>  (302) 
-26.4634

>  <r_i_glide_einternal>  (302) 
0.695363

>  <r_i_glide_intrahb_reward>  (302) 
-0

>  <i_i_glide_confnum>  (302) 
2

>  <i_i_glide_posenum>  (302) 
1

>  <r_i_glide_eff_state_penalty>  (302) 
0

>  <ligand_id>  (302) 
92

>  <original_smiles>  (302) 
C=C1C2CC3C(O)C4C5OC1C1(OCCOC6(C)C2CCC2OC26C(O)C32CCC1C2=O)C54

>  <smiles>  (302) 
[H]OC1([H])C2([H])C3([H])OC4([H])C(=C([H])[H])C5([H])C([H])([H])C1([H])C16C(=O)C([H])(C([H])([H])C1([H])[H])C4(OC([H])([H])C([H])([H])OC1(C([H])([H])[H])C5([H])C([H])([H])C([H])([H])C4([H])OC41C6([H])O[H])C32[H]

$$$$
93:0:0
     RDKit          3D

 68 73  0  0  1  0  0  0  0  0999 V2000
    0.2011   -3.3718    9.2895 C   0  0  0  0  0  0  0  0  0  0  0  0
   -0.1709   -2.6834    8.1045 O   0  0  0  0  0  0  0  0  0  0  0  0
    0.5797   -1.5964    7.7197 C   0  0  0  0  0  0  0  0  0  0  0  0
    1.6360   -1.0650    8.4081 C   0  0  0  0  0  0  0  0  0  0  0  0
    2.4516    0.1706    7.9189 C   0  0  2  0  0  0  0  0  0  0  0  0
    3.8933    0.1358    8.4576 C   0  0  0  0  0  0  0  0  0  0  0  0
    1.7474    1.5272    8.2122 C   0  0  2  0  0  0  0  0  0  0  0  0
    1.2371    2.0656    9.5403 C   0  0  1  0  0  0  0  0  0  0  0  0
    1.1482    3.6322    9.4992 C   0  0  0  0  0  0  0  0  0  0  0  0
    0.4742    4.1574    8.3316 O   0  0  0  0  0  0  0  0  0  0  0  0
    1.1457    4.6752    7.2515 C   0  0  0  0  0  0  0  0  0  0  0  0
    2.3411    4.9649    7.2661 O   0  0  0  0  0  0  0  0  0  0  0  0
    0.3034    4.8445    5.9296 C   0  0  1  0  0  0  0  0  0  0  0  0
   -0.0360    6.2277    5.9255 O   0  0  0  0  0  0  0  0  0  0  0  0
    1.0856    4.7179    4.5546 C   0  0  0  0  0  0  0  0  0  0  0  0
    2.0226    3.5031    4.1466 C   0  0  0  0  0  0  0  0  0  0  0  0
    1.7733    3.1218    2.6741 C   0  0  0  0  0  0  0  0  0  0  0  0
    3.4737    4.0296    4.2295 C   0  0  0  0  0  0  0  0  0  0  0  0
    1.8526    2.2442    5.0490 C   0  0  1  0  0  0  0  0  0  0  0  0
    0.6652    1.2593    4.9173 C   0  0  2  0  0  0  0  0  0  0  0  0
   -0.7437    1.7801    4.6604 C   0  0  0  0  0  0  0  0  0  0  0  0
   -1.4535    2.8894    4.9968 C   0  0  0  0  0  0  0  0  0  0  0  0
   -2.8955    2.9389    4.5070 C   0  0  0  0  0  0  0  0  0  0  0  0
   -1.1188    4.1480    5.8297 C   0  0  1  0  0  0  0  0  0  0  0  0
   -1.8532    4.1148    7.0397 O   0  0  0  0  0  0  0  0  0  0  0  0
    0.8169    0.4343    6.2208 C   0  0  2  0  0  0  0  0  0  0  0  0
    0.1063   -0.9044    6.4791 C   0  0  0  0  0  0  0  0  0  0  0  0
   -0.8039   -1.3019    5.7476 O   0  0  0  0  0  0  0  0  0  0  0  0
    0.4554    1.3706    7.4145 C   0  0  1  0  0  0  0  0  0  0  0  0
   -0.5151    1.0346    8.4026 O   0  0  0  0  0  0  0  0  0  0  0  0
   -0.1475    1.4479    9.6193 C   0  0  0  0  0  0  0  0  0  0  0  0
   -0.7889    1.3478   10.6557 O   0  0  0  0  0  0  0  0  0  0  0  0
    2.3535    0.1929    6.3542 C   0  0  2  0  0  0  0  0  0  0  0  0
    2.8183   -1.0523    5.8377 O   0  0  0  0  0  0  0  0  0  0  0  0
    3.0304    1.3444    5.5006 C   0  0  1  0  0  0  0  0  0  0  0  0
    3.6980    0.8495    4.3517 O   0  0  0  0  0  0  0  0  0  0  0  0
   -0.4788   -4.2122    9.4446 H   0  0  0  0  0  0  0  0  0  0  0  0
    0.1320   -2.7310   10.1700 H   0  0  0  0  0  0  0  0  0  0  0  0
    1.2098   -3.7783    9.2140 H   0  0  0  0  0  0  0  0  0  0  0  0
    1.9810   -1.5043    9.3331 H   0  0  0  0  0  0  0  0  0  0  0  0
    4.4790    0.9793    8.0926 H   0  0  0  0  0  0  0  0  0  0  0  0
    4.4063   -0.7806    8.1644 H   0  0  0  0  0  0  0  0  0  0  0  0
    3.8979    0.1829    9.5469 H   0  0  0  0  0  0  0  0  0  0  0  0
    2.4198    2.2957    7.8395 H   0  0  0  0  0  0  0  0  0  0  0  0
    1.8491    1.7307   10.3766 H   0  0  0  0  0  0  0  0  0  0  0  0
    0.6037    3.9798   10.3807 H   0  0  0  0  0  0  0  0  0  0  0  0
    2.1482    4.0626    9.5914 H   0  0  0  0  0  0  0  0  0  0  0  0
    0.7723    6.7231    5.9210 H   0  0  0  0  0  0  0  0  0  0  0  0
    0.3322    4.8251    3.7725 H   0  0  0  0  0  0  0  0  0  0  0  0
    1.6707    5.6321    4.4241 H   0  0  0  0  0  0  0  0  0  0  0  0
    2.4100    2.3010    2.3482 H   0  0  0  0  0  0  0  0  0  0  0  0
    1.9743    3.9712    2.0228 H   0  0  0  0  0  0  0  0  0  0  0  0
    0.7400    2.8205    2.4994 H   0  0  0  0  0  0  0  0  0  0  0  0
    4.1785    3.3058    3.8384 H   0  0  0  0  0  0  0  0  0  0  0  0
    3.7778    4.2571    5.2497 H   0  0  0  0  0  0  0  0  0  0  0  0
    3.6078    4.9325    3.6321 H   0  0  0  0  0  0  0  0  0  0  0  0
    1.7281    2.7634    5.9495 H   0  0  0  0  0  0  0  0  0  0  0  0
    0.8758    0.6112    4.0638 H   0  0  0  0  0  0  0  0  0  0  0  0
   -1.2900    1.0522    4.0772 H   0  0  0  0  0  0  0  0  0  0  0  0
   -3.0533    3.7716    3.8269 H   0  0  0  0  0  0  0  0  0  0  0  0
   -3.5897    3.0140    5.3467 H   0  0  0  0  0  0  0  0  0  0  0  0
   -3.1565    2.0575    3.9314 H   0  0  0  0  0  0  0  0  0  0  0  0
   -1.6849    4.8689    5.2401 H   0  0  0  0  0  0  0  0  0  0  0  0
   -1.3296    3.6882    7.7054 H   0  0  0  0  0  0  0  0  0  0  0  0
    0.0893    2.3050    7.0312 H   0  0  0  0  0  0  0  0  0  0  0  0
    3.7645   -1.0538    5.8919 H   0  0  0  0  0  0  0  0  0  0  0  0
    3.7654    1.9106    6.0750 H   0  0  0  0  0  0  0  0  0  0  0  0
    3.9452    1.5869    3.8096 H   0  0  0  0  0  0  0  0  0  0  0  0
  1  2  1  0
  1 37  1  0
  1 38  1  0
  1 39  1  0
  2  3  1  0
  3 27  1  0
  3  4  2  0
  4  5  1  0
  4 40  1  0
  5 33  1  0
  5  6  1  6
  5  7  1  0
  6 41  1  0
  6 42  1  0
  6 43  1  0
  7 29  1  0
  7  8  1  0
  7 44  1  6
  8 31  1  0
  8  9  1  0
  8 45  1  1
  9 10  1  0
  9 46  1  0
  9 47  1  0
 10 11  1  0
 11 12  2  0
 11 13  1  0
 13 24  1  0
 13 14  1  1
 13 15  1  0
 14 48  1  0
 15 16  1  0
 15 49  1  0
 15 50  1  0
 16 17  1  0
 16 18  1  0
 16 19  1  0
 17 51  1  0
 17 52  1  0
 17 53  1  0
 18 54  1  0
 18 55  1  0
 18 56  1  0
 19 35  1  0
 19 20  1  0
 19 57  1  1
 20 21  1  0
 20 26  1  0
 20 58  1  6
 21 22  2  3
 21 59  1  0
 22 23  1  0
 22 24  1  0
 23 60  1  0
 23 61  1  0
 23 62  1  0
 24 25  1  0
 24 63  1  6
 25 64  1  0
 26 27  1  6
 26 29  1  0
 26 33  1  0
 27 28  2  0
 29 30  1  0
 29 65  1  6
 30 31  1  0
 31 32  2  0
 33 34  1  6
 33 35  1  0
 34 66  1  0
 35 36  1  0
 35 67  1  1
 36 68  1  0
M  END
>  <i_m_ct_stereo_status>  (303) 
1

>  <s_m_source_file>  (303) 
/var/tmp/pbs.5076255.sched01/tmpj3mqheq3/1200r5s1sfv.sdf

>  <i_m_source_file_index>  (303) 
4

>  <i_lp_mmshare_version>  (303) 
48012

>  <i_f3d_flags>  (303) 
0

>  <s_epik_input>  (303) 
W0NIM11PQyhDMT1PKT1bQ0hdW0NAQF0oW0NIM10pKFtDQF0yKFtPSF0pW0NASF0zW09IXSlbQ0BASF0oW0NAQEhdNE9DNT1PKVtDQEhdNVtDSDJdT0MoPU8pW0NAXShbT0hdKShbQ0BIXShbT0hdKUMoPVtDSF1cNikvW0NIM10pW0NIMl1DKFtDSDNdKShbQ0gzXSlbQ0BIXTNbQ0BIXTZbQ0BAXTEyNA==

>  <s_epik_cmdline>  (303) 
J2VwaWtfcHl0aG9uJywgJy1waHQnLCAnMi4wJywgJy1waCcsICc3LjAnLCAnLXRuJywgJzgnLCAnLW1hJywgJzIwMCcsICctaW1hZScsICc8aW5maWxlLm1hZT4nLCAnLW9tYWUnLCAnPG91dGZpbGUubWFlPic=

>  <r_lp_tautomer_probability>  (303) 
1

>  <r_epik_Ionization_Penalty>  (303) 
7.84863e-06

>  <r_epik_Ionization_Penalty_Charging>  (303) 
0

>  <r_epik_Ionization_Penalty_Neutral>  (303) 
7.84863e-06

>  <r_epik_State_Penalty>  (303) 
-0

>  <r_epik_Charging_Adjusted_Penalty>  (303) 
0

>  <i_epik_Tot_Q>  (303) 
0

>  <i_epik_Tot_abs_Q>  (303) 
0

>  <s_epik_Chemistry_Notes>  (303) 
This compound has an ester and may undergo hydrolysis at high or low pH.

>  <s_lp_Force_Field>  (303) 
OPLS3e

>  <r_lp_Energy>  (303) 
125.641

>  <b_lp_Chiralities_Consistent>  (303) 
1

>  <s_lp_Variant>  (303) 
93:0-1

>  <s_i_glide_gridfile>  (303) 
pfpi4k_grid

>  <i_i_glide_lignum>  (303) 
4

>  <i_i_glide_rotatable_bonds>  (303) 
5

>  <r_i_docking_score>  (303) 
-2.0816

>  <r_i_glide_ligand_efficiency>  (303) 
-0.0578223

>  <r_i_glide_ligand_efficiency_sa>  (303) 
-0.190925

>  <r_i_glide_ligand_efficiency_ln>  (303) 
-0.45415

>  <r_i_glide_gscore>  (303) 
-2.0816

>  <r_i_glide_lipo>  (303) 
0

>  <r_i_glide_hbond>  (303) 
-0.122333

>  <r_i_glide_metal>  (303) 
-0

>  <r_i_glide_rewards>  (303) 
-0.5

>  <r_i_glide_evdw>  (303) 
-16.8998

>  <r_i_glide_ecoul>  (303) 
-3.75509

>  <r_i_glide_erotb>  (303) 
0

>  <r_i_glide_esite>  (303) 
-0.0510203

>  <r_i_glide_emodel>  (303) 
-27.6404

>  <r_i_glide_energy>  (303) 
-20.6549

>  <r_i_glide_einternal>  (303) 
2.05131

>  <r_i_glide_intrahb_reward>  (303) 
-0.5

>  <i_i_glide_confnum>  (303) 
2

>  <i_i_glide_posenum>  (303) 
21

>  <r_i_glide_eff_state_penalty>  (303) 
0

>  <ligand_id>  (303) 
93

>  <original_smiles>  (303) 
COC1=CC2(C)C3C4COC(=O)C5(O)CC(C)(C)C6C(C=C(C)C5O)C(C1=O)(C3OC4=O)C2(O)C6O

>  <smiles>  (303) 
[H]OC1([H])C(C([H])([H])[H])=C([H])C2([H])C3([H])C([H])(O[H])C4(O[H])C25C(=O)C(OC([H])([H])[H])=C([H])C4(C([H])([H])[H])C2([H])C5([H])OC(=O)C2([H])C([H])([H])OC(=O)C1(O[H])C([H])([H])C3(C([H])([H])[H])C([H])([H])[H]

$$$$
93:0:1
     RDKit          3D

 68 73  0  0  1  0  0  0  0  0999 V2000
   -0.9926    4.4270    4.0214 C   0  0  0  0  0  0  0  0  0  0  0  0
   -1.0037    3.1049    3.5072 O   0  0  0  0  0  0  0  0  0  0  0  0
   -0.5440    2.0905    4.3115 C   0  0  0  0  0  0  0  0  0  0  0  0
   -0.2753    2.1872    5.6491 C   0  0  0  0  0  0  0  0  0  0  0  0
    0.1998    0.9868    6.5208 C   0  0  2  0  0  0  0  0  0  0  0  0
   -0.2280    1.1609    7.9907 C   0  0  0  0  0  0  0  0  0  0  0  0
    1.7271    0.7024    6.3833 C   0  0  2  0  0  0  0  0  0  0  0  0
    2.8959    1.6577    6.5835 C   0  0  1  0  0  0  0  0  0  0  0  0
    4.2023    0.8563    6.9235 C   0  0  0  0  0  0  0  0  0  0  0  0
    4.4743   -0.2489    6.0316 O   0  0  0  0  0  0  0  0  0  0  0  0
    4.1859   -1.5500    6.3464 C   0  0  0  0  0  0  0  0  0  0  0  0
    3.9044   -1.9225    7.4864 O   0  0  0  0  0  0  0  0  0  0  0  0
    4.1812   -2.5772    5.1494 C   0  0  1  0  0  0  0  0  0  0  0  0
    5.4573   -3.1932    5.2652 O   0  0  0  0  0  0  0  0  0  0  0  0
    3.2139   -3.8301    5.2901 C   0  0  0  0  0  0  0  0  0  0  0  0
    1.6613   -3.7696    5.6255 C   0  0  0  0  0  0  0  0  0  0  0  0
    0.8914   -4.7663    4.7305 C   0  0  0  0  0  0  0  0  0  0  0  0
    1.5019   -4.2665    7.0865 C   0  0  0  0  0  0  0  0  0  0  0  0
    1.0496   -2.3442    5.4717 C   0  0  1  0  0  0  0  0  0  0  0  0
    0.6964   -1.7106    4.1044 C   0  0  2  0  0  0  0  0  0  0  0  0
    1.6164   -1.8917    2.9026 C   0  0  0  0  0  0  0  0  0  0  0  0
    2.9544   -2.0244    2.6984 C   0  0  0  0  0  0  0  0  0  0  0  0
    3.3945   -2.1468    1.2403 C   0  0  0  0  0  0  0  0  0  0  0  0
    4.1813   -2.0435    3.6480 C   0  0  1  0  0  0  0  0  0  0  0  0
    4.9488   -0.8749    3.4380 O   0  0  0  0  0  0  0  0  0  0  0  0
    0.4547   -0.2336    4.5108 C   0  0  2  0  0  0  0  0  0  0  0  0
   -0.2491    0.7975    3.6165 C   0  0  0  0  0  0  0  0  0  0  0  0
   -0.5355    0.5405    2.4507 O   0  0  0  0  0  0  0  0  0  0  0  0
    1.8404    0.3759    4.8973 C   0  0  1  0  0  0  0  0  0  0  0  0
    2.3512    1.5782    4.3236 O   0  0  0  0  0  0  0  0  0  0  0  0
    3.0055    2.3220    5.2210 C   0  0  0  0  0  0  0  0  0  0  0  0
    3.5917    3.3824    5.0246 O   0  0  0  0  0  0  0  0  0  0  0  0
   -0.3494   -0.3246    5.8479 C   0  0  2  0  0  0  0  0  0  0  0  0
   -1.7783   -0.2712    5.7315 O   0  0  0  0  0  0  0  0  0  0  0  0
   -0.0102   -1.7578    6.4374 C   0  0  1  0  0  0  0  0  0  0  0  0
   -1.1193   -2.6445    6.4713 O   0  0  0  0  0  0  0  0  0  0  0  0
   -1.3524    5.1064    3.2464 H   0  0  0  0  0  0  0  0  0  0  0  0
    0.0132    4.7493    4.2968 H   0  0  0  0  0  0  0  0  0  0  0  0
   -1.6563    4.5287    4.8807 H   0  0  0  0  0  0  0  0  0  0  0  0
   -0.4338    3.1111    6.1878 H   0  0  0  0  0  0  0  0  0  0  0  0
    0.0804    0.3139    8.6028 H   0  0  0  0  0  0  0  0  0  0  0  0
   -1.3086    1.2696    8.0865 H   0  0  0  0  0  0  0  0  0  0  0  0
    0.2292    2.0506    8.4236 H   0  0  0  0  0  0  0  0  0  0  0  0
    1.9300   -0.1328    7.0491 H   0  0  0  0  0  0  0  0  0  0  0  0
    2.6845    2.3996    7.3502 H   0  0  0  0  0  0  0  0  0  0  0  0
    5.0571    1.5340    6.8713 H   0  0  0  0  0  0  0  0  0  0  0  0
    4.1695    0.5129    7.9606 H   0  0  0  0  0  0  0  0  0  0  0  0
    5.5588   -3.8340    4.5753 H   0  0  0  0  0  0  0  0  0  0  0  0
    3.3165   -4.3875    4.3593 H   0  0  0  0  0  0  0  0  0  0  0  0
    3.6705   -4.5110    6.0130 H   0  0  0  0  0  0  0  0  0  0  0  0
   -0.1748   -4.7599    4.9535 H   0  0  0  0  0  0  0  0  0  0  0  0
    1.2472   -5.7861    4.8786 H   0  0  0  0  0  0  0  0  0  0  0  0
    1.0050   -4.5334    3.6726 H   0  0  0  0  0  0  0  0  0  0  0  0
    0.4586   -4.3959    7.3675 H   0  0  0  0  0  0  0  0  0  0  0  0
    1.9509   -3.5808    7.8035 H   0  0  0  0  0  0  0  0  0  0  0  0
    1.9700   -5.2400    7.2317 H   0  0  0  0  0  0  0  0  0  0  0  0
    1.8702   -1.8182    5.8493 H   0  0  0  0  0  0  0  0  0  0  0  0
   -0.2524   -2.1430    3.7857 H   0  0  0  0  0  0  0  0  0  0  0  0
    1.0176   -1.8836    2.0017 H   0  0  0  0  0  0  0  0  0  0  0  0
    3.9109   -3.0922    1.0698 H   0  0  0  0  0  0  0  0  0  0  0  0
    4.0679   -1.3355    0.9673 H   0  0  0  0  0  0  0  0  0  0  0  0
    2.5589   -2.1095    0.5394 H   0  0  0  0  0  0  0  0  0  0  0  0
    4.7945   -2.7797    3.1248 H   0  0  0  0  0  0  0  0  0  0  0  0
    4.8811   -0.6360    2.5269 H   0  0  0  0  0  0  0  0  0  0  0  0
    2.6174   -0.3368    4.6844 H   0  0  0  0  0  0  0  0  0  0  0  0
   -2.0147    0.4536    5.1688 H   0  0  0  0  0  0  0  0  0  0  0  0
    0.3632   -1.6906    7.4592 H   0  0  0  0  0  0  0  0  0  0  0  0
   -1.3230   -2.8772    5.5784 H   0  0  0  0  0  0  0  0  0  0  0  0
  1  2  1  0
  1 37  1  0
  1 38  1  0
  1 39  1  0
  2  3  1  0
  3 27  1  0
  3  4  2  0
  4  5  1  0
  4 40  1  0
  5 33  1  0
  5  6  1  1
  5  7  1  0
  6 41  1  0
  6 42  1  0
  6 43  1  0
  7 29  1  0
  7  8  1  0
  7 44  1  1
  8 31  1  0
  8  9  1  0
  8 45  1  1
  9 10  1  0
  9 46  1  0
  9 47  1  0
 10 11  1  0
 11 12  2  0
 11 13  1  0
 13 24  1  0
 13 14  1  6
 13 15  1  0
 14 48  1  0
 15 16  1  0
 15 49  1  0
 15 50  1  0
 16 17  1  0
 16 18  1  0
 16 19  1  0
 17 51  1  0
 17 52  1  0
 17 53  1  0
 18 54  1  0
 18 55  1  0
 18 56  1  0
 19 35  1  0
 19 20  1  0
 19 57  1  1
 20 21  1  0
 20 26  1  0
 20 58  1  6
 21 22  2  3
 21 59  1  0
 22 23  1  0
 22 24  1  0
 23 60  1  0
 23 61  1  0
 23 62  1  0
 24 25  1  0
 24 63  1  6
 25 64  1  0
 26 27  1  6
 26 29  1  0
 26 33  1  0
 27 28  2  0
 29 30  1  0
 29 65  1  1
 30 31  1  0
 31 32  2  0
 33 34  1  6
 33 35  1  0
 34 66  1  0
 35 36  1  0
 35 67  1  1
 36 68  1  0
M  END
>  <i_m_ct_stereo_status>  (304) 
1

>  <s_m_source_file>  (304) 
/var/tmp/pbs.5076255.sched01/tmpj3mqheq3/1200r5s1sfv.sdf

>  <i_m_source_file_index>  (304) 
4

>  <i_lp_mmshare_version>  (304) 
48012

>  <i_f3d_flags>  (304) 
0

>  <s_epik_input>  (304) 
W0NIM11PQyhDMT1PKT1bQ0hdW0NAQF0oW0NIM10pKFtDQF0yKFtPSF0pW0NASF0zW09IXSlbQ0BASF0oW0NAQEhdNE9DNT1PKVtDQEhdNVtDSDJdT0MoPU8pW0NAXShbT0hdKShbQ0BIXShbT0hdKUMoPVtDSF1cNikvW0NIM10pW0NIMl1DKFtDSDNdKShbQ0gzXSlbQ0BIXTNbQ0BIXTZbQ0BAXTEyNA==

>  <s_epik_cmdline>  (304) 
J2VwaWtfcHl0aG9uJywgJy1waHQnLCAnMi4wJywgJy1waCcsICc3LjAnLCAnLXRuJywgJzgnLCAnLW1hJywgJzIwMCcsICctaW1hZScsICc8aW5maWxlLm1hZT4nLCAnLW9tYWUnLCAnPG91dGZpbGUubWFlPic=

>  <r_lp_tautomer_probability>  (304) 
1

>  <r_epik_Ionization_Penalty>  (304) 
7.84863e-06

>  <r_epik_Ionization_Penalty_Charging>  (304) 
0

>  <r_epik_Ionization_Penalty_Neutral>  (304) 
7.84863e-06

>  <r_epik_State_Penalty>  (304) 
-0

>  <r_epik_Charging_Adjusted_Penalty>  (304) 
0

>  <i_epik_Tot_Q>  (304) 
0

>  <i_epik_Tot_abs_Q>  (304) 
0

>  <s_epik_Chemistry_Notes>  (304) 
This compound has an ester and may undergo hydrolysis at high or low pH.

>  <s_lp_Force_Field>  (304) 
OPLS3e

>  <r_lp_Energy>  (304) 
125.641

>  <b_lp_Chiralities_Consistent>  (304) 
1

>  <s_lp_Variant>  (304) 
93:0-1

>  <s_i_glide_gridfile>  (304) 
pfpi4k_grid

>  <i_i_glide_lignum>  (304) 
4

>  <i_i_glide_rotatable_bonds>  (304) 
5

>  <r_i_docking_score>  (304) 
-1.60052

>  <r_i_glide_ligand_efficiency>  (304) 
-0.0444589

>  <r_i_glide_ligand_efficiency_sa>  (304) 
-0.1468

>  <r_i_glide_ligand_efficiency_ln>  (304) 
-0.34919

>  <r_i_glide_gscore>  (304) 
-1.60052

>  <r_i_glide_lipo>  (304) 
-0.00839158

>  <r_i_glide_hbond>  (304) 
0

>  <r_i_glide_metal>  (304) 
-0

>  <r_i_glide_rewards>  (304) 
-0.000102942

>  <r_i_glide_evdw>  (304) 
-22.1118

>  <r_i_glide_ecoul>  (304) 
-3.07326

>  <r_i_glide_erotb>  (304) 
0

>  <r_i_glide_esite>  (304) 
-0.0254453

>  <r_i_glide_emodel>  (304) 
-26.906

>  <r_i_glide_energy>  (304) 
-25.1851

>  <r_i_glide_einternal>  (304) 
1.18738

>  <r_i_glide_intrahb_reward>  (304) 
-0

>  <i_i_glide_confnum>  (304) 
2

>  <i_i_glide_posenum>  (304) 
3

>  <r_i_glide_eff_state_penalty>  (304) 
0

>  <ligand_id>  (304) 
93

>  <original_smiles>  (304) 
COC1=CC2(C)C3C4COC(=O)C5(O)CC(C)(C)C6C(C=C(C)C5O)C(C1=O)(C3OC4=O)C2(O)C6O

>  <smiles>  (304) 
[H]OC1([H])C(C([H])([H])[H])=C([H])C2([H])C3([H])C([H])(O[H])C4(O[H])C25C(=O)C(OC([H])([H])[H])=C([H])C4(C([H])([H])[H])C2([H])C5([H])OC(=O)C2([H])C([H])([H])OC(=O)C1(O[H])C([H])([H])C3(C([H])([H])[H])C([H])([H])[H]

$$$$
93:0:2
     RDKit          3D

 68 73  0  0  1  0  0  0  0  0999 V2000
   -1.0902    4.3801    3.9268 C   0  0  0  0  0  0  0  0  0  0  0  0
   -1.0455    3.0582    3.4250 O   0  0  0  0  0  0  0  0  0  0  0  0
   -0.5617    2.0711    4.2460 C   0  0  0  0  0  0  0  0  0  0  0  0
   -0.2883    2.1856    5.5809 C   0  0  0  0  0  0  0  0  0  0  0  0
    0.2065    1.0036    6.4625 C   0  0  2  0  0  0  0  0  0  0  0  0
   -0.2230    1.1945    7.9280 C   0  0  0  0  0  0  0  0  0  0  0  0
    1.7354    0.7377    6.3247 C   0  0  2  0  0  0  0  0  0  0  0  0
    2.8911    1.7123    6.5051 C   0  0  1  0  0  0  0  0  0  0  0  0
    4.2098    0.9348    6.8534 C   0  0  0  0  0  0  0  0  0  0  0  0
    4.4972   -0.1815    5.9795 O   0  0  0  0  0  0  0  0  0  0  0  0
    4.2225   -1.4787    6.3174 C   0  0  0  0  0  0  0  0  0  0  0  0
    3.9486   -1.8358    7.4625 O   0  0  0  0  0  0  0  0  0  0  0  0
    4.2295   -2.5225    5.1352 C   0  0  1  0  0  0  0  0  0  0  0  0
    5.5199   -3.1070    5.2455 O   0  0  0  0  0  0  0  0  0  0  0  0
    3.2833   -3.7885    5.3027 C   0  0  0  0  0  0  0  0  0  0  0  0
    1.7300   -3.7447    5.6387 C   0  0  0  0  0  0  0  0  0  0  0  0
    0.9727   -4.7666    4.7625 C   0  0  0  0  0  0  0  0  0  0  0  0
    1.5795   -4.2197    7.1077 C   0  0  0  0  0  0  0  0  0  0  0  0
    1.0970   -2.3308    5.4634 C   0  0  1  0  0  0  0  0  0  0  0  0
    0.7311   -1.7208    4.0868 C   0  0  2  0  0  0  0  0  0  0  0  0
    1.6522   -1.9126    2.8877 C   0  0  0  0  0  0  0  0  0  0  0  0
    2.9890   -2.0316    2.6830 C   0  0  0  0  0  0  0  0  0  0  0  0
    3.4296   -2.1723    1.2269 C   0  0  0  0  0  0  0  0  0  0  0  0
    4.2173   -2.0130    3.6276 C   0  0  1  0  0  0  0  0  0  0  0  0
    4.9665   -0.8359    3.3881 O   0  0  0  0  0  0  0  0  0  0  0  0
    0.4685   -0.2382    4.4646 C   0  0  2  0  0  0  0  0  0  0  0  0
   -0.2468    0.7868    3.5622 C   0  0  0  0  0  0  0  0  0  0  0  0
   -0.5173    0.5422    2.3875 O   0  0  0  0  0  0  0  0  0  0  0  0
    1.8482    0.3898    4.8424 C   0  0  1  0  0  0  0  0  0  0  0  0
    2.3416    1.5909    4.2509 O   0  0  0  0  0  0  0  0  0  0  0  0
    2.9877    2.3569    5.1342 C   0  0  0  0  0  0  0  0  0  0  0  0
    3.5574    3.4235    4.9215 O   0  0  0  0  0  0  0  0  0  0  0  0
   -0.3267   -0.3231    5.8086 C   0  0  2  0  0  0  0  0  0  0  0  0
   -1.7566   -0.2906    5.7011 O   0  0  0  0  0  0  0  0  0  0  0  0
    0.0332   -1.7426    6.4226 C   0  0  1  0  0  0  0  0  0  0  0  0
   -1.0643   -2.6404    6.4715 O   0  0  0  0  0  0  0  0  0  0  0  0
   -1.4503    5.0409    3.1374 H   0  0  0  0  0  0  0  0  0  0  0  0
   -0.1036    4.7328    4.2274 H   0  0  0  0  0  0  0  0  0  0  0  0
   -1.7804    4.4570    4.7658 H   0  0  0  0  0  0  0  0  0  0  0  0
   -0.4624    3.1140    6.1026 H   0  0  0  0  0  0  0  0  0  0  0  0
    0.0995    0.3627    8.5524 H   0  0  0  0  0  0  0  0  0  0  0  0
   -1.3053    1.2882    8.0231 H   0  0  0  0  0  0  0  0  0  0  0  0
    0.2222    2.0984    8.3437 H   0  0  0  0  0  0  0  0  0  0  0  0
    1.9507   -0.0828    7.0056 H   0  0  0  0  0  0  0  0  0  0  0  0
    2.6741    2.4671    7.2567 H   0  0  0  0  0  0  0  0  0  0  0  0
    5.0542    1.6235    6.7877 H   0  0  0  0  0  0  0  0  0  0  0  0
    4.1827    0.6077    7.8957 H   0  0  0  0  0  0  0  0  0  0  0  0
    5.6052   -3.7939    4.6000 H   0  0  0  0  0  0  0  0  0  0  0  0
    3.3893   -4.3588    4.3803 H   0  0  0  0  0  0  0  0  0  0  0  0
    3.7523   -4.4484    6.0363 H   0  0  0  0  0  0  0  0  0  0  0  0
   -0.0934   -4.7713    4.9880 H   0  0  0  0  0  0  0  0  0  0  0  0
    1.3422   -5.7789    4.9283 H   0  0  0  0  0  0  0  0  0  0  0  0
    1.0824   -4.5510    3.7002 H   0  0  0  0  0  0  0  0  0  0  0  0
    0.5379   -4.3590    7.3931 H   0  0  0  0  0  0  0  0  0  0  0  0
    2.0224   -3.5164    7.8117 H   0  0  0  0  0  0  0  0  0  0  0  0
    2.0609   -5.1844    7.2686 H   0  0  0  0  0  0  0  0  0  0  0  0
    1.9112   -1.7881    5.8313 H   0  0  0  0  0  0  0  0  0  0  0  0
   -0.2109   -2.1734    3.7759 H   0  0  0  0  0  0  0  0  0  0  0  0
    1.0516   -1.9263    1.9894 H   0  0  0  0  0  0  0  0  0  0  0  0
    3.9615   -3.1117    1.0678 H   0  0  0  0  0  0  0  0  0  0  0  0
    4.0926   -1.3522    0.9506 H   0  0  0  0  0  0  0  0  0  0  0  0
    2.5926   -2.1526    0.5265 H   0  0  0  0  0  0  0  0  0  0  0  0
    4.8336   -2.7532    3.1127 H   0  0  0  0  0  0  0  0  0  0  0  0
    5.8849   -1.0323    3.5005 H   0  0  0  0  0  0  0  0  0  0  0  0
    2.6352   -0.3161    4.6397 H   0  0  0  0  0  0  0  0  0  0  0  0
   -2.0071    0.4444    5.1603 H   0  0  0  0  0  0  0  0  0  0  0  0
    0.4058   -1.6560    7.4436 H   0  0  0  0  0  0  0  0  0  0  0  0
   -1.2656   -2.8853    5.5811 H   0  0  0  0  0  0  0  0  0  0  0  0
  1  2  1  0
  1 37  1  0
  1 38  1  0
  1 39  1  0
  2  3  1  0
  3 27  1  0
  3  4  2  0
  4  5  1  0
  4 40  1  0
  5 33  1  0
  5  6  1  1
  5  7  1  0
  6 41  1  0
  6 42  1  0
  6 43  1  0
  7 29  1  0
  7  8  1  0
  7 44  1  1
  8 31  1  0
  8  9  1  0
  8 45  1  1
  9 10  1  0
  9 46  1  0
  9 47  1  0
 10 11  1  0
 11 12  2  0
 11 13  1  0
 13 24  1  0
 13 14  1  6
 13 15  1  0
 14 48  1  0
 15 16  1  0
 15 49  1  0
 15 50  1  0
 16 17  1  0
 16 18  1  0
 16 19  1  0
 17 51  1  0
 17 52  1  0
 17 53  1  0
 18 54  1  0
 18 55  1  0
 18 56  1  0
 19 35  1  0
 19 20  1  0
 19 57  1  1
 20 21  1  0
 20 26  1  0
 20 58  1  6
 21 22  2  3
 21 59  1  0
 22 23  1  0
 22 24  1  0
 23 60  1  0
 23 61  1  0
 23 62  1  0
 24 25  1  0
 24 63  1  6
 25 64  1  0
 26 27  1  6
 26 29  1  0
 26 33  1  0
 27 28  2  0
 29 30  1  0
 29 65  1  1
 30 31  1  0
 31 32  2  0
 33 34  1  6
 33 35  1  0
 34 66  1  0
 35 36  1  0
 35 67  1  1
 36 68  1  0
M  END
>  <i_m_ct_stereo_status>  (305) 
1

>  <s_m_source_file>  (305) 
/var/tmp/pbs.5076255.sched01/tmpj3mqheq3/1200r5s1sfv.sdf

>  <i_m_source_file_index>  (305) 
4

>  <i_lp_mmshare_version>  (305) 
48012

>  <i_f3d_flags>  (305) 
0

>  <s_epik_input>  (305) 
W0NIM11PQyhDMT1PKT1bQ0hdW0NAQF0oW0NIM10pKFtDQF0yKFtPSF0pW0NASF0zW09IXSlbQ0BASF0oW0NAQEhdNE9DNT1PKVtDQEhdNVtDSDJdT0MoPU8pW0NAXShbT0hdKShbQ0BIXShbT0hdKUMoPVtDSF1cNikvW0NIM10pW0NIMl1DKFtDSDNdKShbQ0gzXSlbQ0BIXTNbQ0BIXTZbQ0BAXTEyNA==

>  <s_epik_cmdline>  (305) 
J2VwaWtfcHl0aG9uJywgJy1waHQnLCAnMi4wJywgJy1waCcsICc3LjAnLCAnLXRuJywgJzgnLCAnLW1hJywgJzIwMCcsICctaW1hZScsICc8aW5maWxlLm1hZT4nLCAnLW9tYWUnLCAnPG91dGZpbGUubWFlPic=

>  <r_lp_tautomer_probability>  (305) 
1

>  <r_epik_Ionization_Penalty>  (305) 
7.84863e-06

>  <r_epik_Ionization_Penalty_Charging>  (305) 
0

>  <r_epik_Ionization_Penalty_Neutral>  (305) 
7.84863e-06

>  <r_epik_State_Penalty>  (305) 
-0

>  <r_epik_Charging_Adjusted_Penalty>  (305) 
0

>  <i_epik_Tot_Q>  (305) 
0

>  <i_epik_Tot_abs_Q>  (305) 
0

>  <s_epik_Chemistry_Notes>  (305) 
This compound has an ester and may undergo hydrolysis at high or low pH.

>  <s_lp_Force_Field>  (305) 
OPLS3e

>  <r_lp_Energy>  (305) 
125.641

>  <b_lp_Chiralities_Consistent>  (305) 
1

>  <s_lp_Variant>  (305) 
93:0-1

>  <s_i_glide_gridfile>  (305) 
pfpi4k_grid

>  <i_i_glide_lignum>  (305) 
4

>  <i_i_glide_rotatable_bonds>  (305) 
5

>  <r_i_docking_score>  (305) 
-1.50927

>  <r_i_glide_ligand_efficiency>  (305) 
-0.041924

>  <r_i_glide_ligand_efficiency_sa>  (305) 
-0.13843

>  <r_i_glide_ligand_efficiency_ln>  (305) 
-0.329281

>  <r_i_glide_gscore>  (305) 
-1.50927

>  <r_i_glide_lipo>  (305) 
-0.0131464

>  <r_i_glide_hbond>  (305) 
-0.000359472

>  <r_i_glide_metal>  (305) 
-0

>  <r_i_glide_rewards>  (305) 
-0.000291148

>  <r_i_glide_evdw>  (305) 
-22.2434

>  <r_i_glide_ecoul>  (305) 
-2.37683

>  <r_i_glide_erotb>  (305) 
0

>  <r_i_glide_esite>  (305) 
-0.0267718

>  <r_i_glide_emodel>  (305) 
-26.3626

>  <r_i_glide_energy>  (305) 
-24.6203

>  <r_i_glide_einternal>  (305) 
0.928228

>  <r_i_glide_intrahb_reward>  (305) 
-0

>  <i_i_glide_confnum>  (305) 
1

>  <i_i_glide_posenum>  (305) 
10

>  <r_i_glide_eff_state_penalty>  (305) 
0

>  <ligand_id>  (305) 
93

>  <original_smiles>  (305) 
COC1=CC2(C)C3C4COC(=O)C5(O)CC(C)(C)C6C(C=C(C)C5O)C(C1=O)(C3OC4=O)C2(O)C6O

>  <smiles>  (305) 
[H]OC1([H])C(C([H])([H])[H])=C([H])C2([H])C3([H])C([H])(O[H])C4(O[H])C25C(=O)C(OC([H])([H])[H])=C([H])C4(C([H])([H])[H])C2([H])C5([H])OC(=O)C2([H])C([H])([H])OC(=O)C1(O[H])C([H])([H])C3(C([H])([H])[H])C([H])([H])[H]

$$$$
94:0:0
     RDKit          3D

 29 31  0  0  1  0  0  0  0  0999 V2000
   -1.1347   -7.4415    4.4772 C   0  0  0  0  0  0  0  0  0  0  0  0
   -0.1051   -7.1390    3.4687 N   0  0  0  0  0  0  0  0  0  0  0  0
    0.2536   -8.0323    2.4765 C   0  0  0  0  0  0  0  0  0  0  0  0
    1.2186   -7.4363    1.7184 C   0  0  0  0  0  0  0  0  0  0  0  0
    1.4415   -6.1479    2.2457 C   0  0  0  0  0  0  0  0  0  0  0  0
    0.6474   -5.9691    3.3466 C   0  0  0  0  0  0  0  0  0  0  0  0
    0.4744   -4.8557    4.2269 C   0  0  0  0  0  0  0  0  0  0  0  0
    0.9469   -3.5817    4.2820 C   0  0  0  0  0  0  0  0  0  0  0  0
    0.3450   -2.5669    5.5766 S   0  0  0  0  0  0  0  0  0  0  0  0
   -0.0996   -1.1018    4.7083 C   0  0  0  0  0  0  0  0  0  0  0  0
    0.4502   -0.6534    3.5692 C   0  0  0  0  0  0  0  0  0  0  0  0
   -0.1380    0.6462    3.0760 C   0  0  0  0  0  0  0  0  0  0  0  0
   -1.2033    0.9793    4.1271 C   0  0  0  0  0  0  0  0  0  0  0  0
   -1.1347   -0.1629    5.1079 C   0  0  0  0  0  0  0  0  0  0  0  0
   -1.8731   -0.2644    6.0787 O   0  0  0  0  0  0  0  0  0  0  0  0
    1.7655   -1.4053    2.6256 S   0  0  0  0  0  0  0  0  0  0  0  0
    1.9557   -3.0549    3.3201 C   0  0  0  0  0  0  0  0  0  0  0  0
    2.9729   -3.6665    3.0262 O   0  0  0  0  0  0  0  0  0  0  0  0
   -1.4091   -8.5005    4.4240 H   0  0  0  0  0  0  0  0  0  0  0  0
   -2.0284   -6.8379    4.2904 H   0  0  0  0  0  0  0  0  0  0  0  0
   -0.7519   -7.2374    5.4828 H   0  0  0  0  0  0  0  0  0  0  0  0
   -0.2026   -9.0160    2.3936 H   0  0  0  0  0  0  0  0  0  0  0  0
    1.7103   -7.8824    0.8747 H   0  0  0  0  0  0  0  0  0  0  0  0
    2.1352   -5.4468    1.8186 H   0  0  0  0  0  0  0  0  0  0  0  0
   -0.1919   -5.0603    5.0536 H   0  0  0  0  0  0  0  0  0  0  0  0
    0.6421    1.4076    3.0373 H   0  0  0  0  0  0  0  0  0  0  0  0
   -0.5473    0.5393    2.0650 H   0  0  0  0  0  0  0  0  0  0  0  0
   -0.9991    1.9184    4.6305 H   0  0  0  0  0  0  0  0  0  0  0  0
   -2.1828    1.0298    3.6710 H   0  0  0  0  0  0  0  0  0  0  0  0
  1  2  1  0
  1 19  1  0
  1 20  1  0
  1 21  1  0
  2  6  1  0
  2  3  1  0
  3  4  2  0
  3 22  1  0
  4  5  1  0
  4 23  1  0
  5  6  2  0
  5 24  1  0
  6  7  1  0
  7  8  2  3
  7 25  1  0
  8 17  1  0
  8  9  1  0
  9 10  1  0
 10 14  1  0
 10 11  2  0
 11 12  1  0
 11 16  1  0
 12 13  1  0
 12 26  1  0
 12 27  1  0
 13 14  1  0
 13 28  1  0
 13 29  1  0
 14 15  2  0
 16 17  1  0
 17 18  2  0
M  END
>  <i_m_ct_stereo_status>  (306) 
1

>  <s_m_source_file>  (306) 
/var/tmp/pbs.5076255.sched01/tmpj3mqheq3/1200r5s1sfv.sdf

>  <i_m_source_file_index>  (306) 
6

>  <i_lp_mmshare_version>  (306) 
48012

>  <i_f3d_flags>  (306) 
0

>  <s_epik_input>  (306) 
W0NIM11uMVtjSF1bY0hdW2NIXWMxL1tDSF09QygvUzIpQyg9TylTQyg9QzIzKVtDSDJdW0NIMl1DMz1P

>  <s_epik_cmdline>  (306) 
J2VwaWtfcHl0aG9uJywgJy1waHQnLCAnMi4wJywgJy1waCcsICc3LjAnLCAnLXRuJywgJzgnLCAnLW1hJywgJzIwMCcsICctaW1hZScsICc8aW5maWxlLm1hZT4nLCAnLW9tYWUnLCAnPG91dGZpbGUubWFlPic=

>  <r_lp_tautomer_probability>  (306) 
0.499977

>  <r_epik_Ionization_Penalty>  (306) 
2.36805e-14

>  <r_epik_Ionization_Penalty_Charging>  (306) 
0

>  <r_epik_Ionization_Penalty_Neutral>  (306) 
2.36805e-14

>  <r_epik_State_Penalty>  (306) 
0.41068

>  <r_epik_Charging_Adjusted_Penalty>  (306) 
0.41068

>  <i_epik_Tot_Q>  (306) 
0

>  <i_epik_Tot_abs_Q>  (306) 
0

>  <s_lp_Force_Field>  (306) 
OPLS3e

>  <r_lp_Energy>  (306) 
11.4873

>  <b_lp_Chiralities_Consistent>  (306) 
1

>  <s_lp_Variant>  (306) 
94:0-1

>  <s_i_glide_gridfile>  (306) 
pfpi4k_grid

>  <i_i_glide_lignum>  (306) 
6

>  <i_i_glide_rotatable_bonds>  (306) 
1

>  <r_i_docking_score>  (306) 
-3.29927

>  <r_i_glide_ligand_efficiency>  (306) 
-0.183293

>  <r_i_glide_ligand_efficiency_sa>  (306) 
-0.480362

>  <r_i_glide_ligand_efficiency_ln>  (306) 
-0.848059

>  <r_i_glide_gscore>  (306) 
-3.29927

>  <r_i_glide_lipo>  (306) 
-0.0204139

>  <r_i_glide_hbond>  (306) 
-0.143735

>  <r_i_glide_metal>  (306) 
-0

>  <r_i_glide_rewards>  (306) 
-1.53213

>  <r_i_glide_evdw>  (306) 
-19.854

>  <r_i_glide_ecoul>  (306) 
-5.03735

>  <r_i_glide_erotb>  (306) 
0.234075

>  <r_i_glide_esite>  (306) 
-0.0887599

>  <r_i_glide_emodel>  (306) 
-30.13

>  <r_i_glide_energy>  (306) 
-24.8913

>  <r_i_glide_einternal>  (306) 
0.0804634

>  <r_i_glide_intrahb_reward>  (306) 
-0

>  <i_i_glide_confnum>  (306) 
3

>  <i_i_glide_posenum>  (306) 
8

>  <r_i_glide_eff_state_penalty>  (306) 
0

>  <ligand_id>  (306) 
94

>  <original_smiles>  (306) 
Cn1cccc1C=C1SC2=C(CCC2=O)SC1=O

>  <smiles>  (306) 
[H]C(=C1SC2=C(SC1=O)C([H])([H])C([H])([H])C2=O)c1c([H])c([H])c([H])n1C([H])([H])[H]

$$$$
94:0:1
     RDKit          3D

 29 31  0  0  1  0  0  0  0  0999 V2000
    1.2919   -1.4134    7.3299 C   0  0  0  0  0  0  0  0  0  0  0  0
    0.6646   -2.4527    8.1341 N   0  0  0  0  0  0  0  0  0  0  0  0
    0.2138   -2.2583    9.4259 C   0  0  0  0  0  0  0  0  0  0  0  0
   -0.3142   -3.4444    9.8689 C   0  0  0  0  0  0  0  0  0  0  0  0
   -0.1882   -4.3833    8.8198 C   0  0  0  0  0  0  0  0  0  0  0  0
    0.4316   -3.7714    7.7617 C   0  0  0  0  0  0  0  0  0  0  0  0
    0.8708   -4.2823    6.5052 C   0  0  0  0  0  0  0  0  0  0  0  0
    1.0807   -5.5363    6.0442 C   0  0  0  0  0  0  0  0  0  0  0  0
    1.4879   -5.6417    4.3352 S   0  0  0  0  0  0  0  0  0  0  0  0
    0.4445   -6.9658    3.7862 C   0  0  0  0  0  0  0  0  0  0  0  0
   -0.0064   -7.9622    4.5537 C   0  0  0  0  0  0  0  0  0  0  0  0
   -0.9097   -8.9311    3.8197 C   0  0  0  0  0  0  0  0  0  0  0  0
   -1.0007   -8.3677    2.3996 C   0  0  0  0  0  0  0  0  0  0  0  0
   -0.1354   -7.1228    2.4547 C   0  0  0  0  0  0  0  0  0  0  0  0
   -0.0295   -6.3326    1.5208 O   0  0  0  0  0  0  0  0  0  0  0  0
    0.3917   -8.2942    6.2716 S   0  0  0  0  0  0  0  0  0  0  0  0
    1.0424   -6.7321    6.9152 C   0  0  0  0  0  0  0  0  0  0  0  0
    1.4961   -6.7258    8.0586 O   0  0  0  0  0  0  0  0  0  0  0  0
    1.4940   -0.5376    7.9487 H   0  0  0  0  0  0  0  0  0  0  0  0
    0.6259   -1.1288    6.5142 H   0  0  0  0  0  0  0  0  0  0  0  0
    2.2351   -1.7694    6.9163 H   0  0  0  0  0  0  0  0  0  0  0  0
    0.3073   -1.3121    9.9333 H   0  0  0  0  0  0  0  0  0  0  0  0
   -0.7238   -3.6173   10.8484 H   0  0  0  0  0  0  0  0  0  0  0  0
   -0.4939   -5.4179    8.8451 H   0  0  0  0  0  0  0  0  0  0  0  0
    0.9658   -3.5202    5.7437 H   0  0  0  0  0  0  0  0  0  0  0  0
   -0.4550   -9.9195    3.8184 H   0  0  0  0  0  0  0  0  0  0  0  0
   -1.8922   -9.0230    4.2825 H   0  0  0  0  0  0  0  0  0  0  0  0
   -0.5716   -9.0604    1.6836 H   0  0  0  0  0  0  0  0  0  0  0  0
   -2.0172   -8.1102    2.1193 H   0  0  0  0  0  0  0  0  0  0  0  0
  1  2  1  0
  1 19  1  0
  1 20  1  0
  1 21  1  0
  2  6  1  0
  2  3  1  0
  3  4  2  0
  3 22  1  0
  4  5  1  0
  4 23  1  0
  5  6  2  0
  5 24  1  0
  6  7  1  0
  7  8  2  3
  7 25  1  0
  8 17  1  0
  8  9  1  0
  9 10  1  0
 10 14  1  0
 10 11  2  0
 11 12  1  0
 11 16  1  0
 12 13  1  0
 12 26  1  0
 12 27  1  0
 13 14  1  0
 13 28  1  0
 13 29  1  0
 14 15  2  0
 16 17  1  0
 17 18  2  0
M  END
>  <i_m_ct_stereo_status>  (307) 
1

>  <s_m_source_file>  (307) 
/var/tmp/pbs.5076255.sched01/tmpj3mqheq3/1200r5s1sfv.sdf

>  <i_m_source_file_index>  (307) 
6

>  <i_lp_mmshare_version>  (307) 
48012

>  <i_f3d_flags>  (307) 
0

>  <s_epik_input>  (307) 
W0NIM11uMVtjSF1bY0hdW2NIXWMxL1tDSF09QygvUzIpQyg9TylTQyg9QzIzKVtDSDJdW0NIMl1DMz1P

>  <s_epik_cmdline>  (307) 
J2VwaWtfcHl0aG9uJywgJy1waHQnLCAnMi4wJywgJy1waCcsICc3LjAnLCAnLXRuJywgJzgnLCAnLW1hJywgJzIwMCcsICctaW1hZScsICc8aW5maWxlLm1hZT4nLCAnLW9tYWUnLCAnPG91dGZpbGUubWFlPic=

>  <r_lp_tautomer_probability>  (307) 
0.499977

>  <r_epik_Ionization_Penalty>  (307) 
2.36805e-14

>  <r_epik_Ionization_Penalty_Charging>  (307) 
0

>  <r_epik_Ionization_Penalty_Neutral>  (307) 
2.36805e-14

>  <r_epik_State_Penalty>  (307) 
0.41068

>  <r_epik_Charging_Adjusted_Penalty>  (307) 
0.41068

>  <i_epik_Tot_Q>  (307) 
0

>  <i_epik_Tot_abs_Q>  (307) 
0

>  <s_lp_Force_Field>  (307) 
OPLS3e

>  <r_lp_Energy>  (307) 
11.4873

>  <b_lp_Chiralities_Consistent>  (307) 
1

>  <s_lp_Variant>  (307) 
94:0-1

>  <s_i_glide_gridfile>  (307) 
pfpi4k_grid

>  <i_i_glide_lignum>  (307) 
6

>  <i_i_glide_rotatable_bonds>  (307) 
1

>  <r_i_docking_score>  (307) 
-3.16185

>  <r_i_glide_ligand_efficiency>  (307) 
-0.175659

>  <r_i_glide_ligand_efficiency_sa>  (307) 
-0.460356

>  <r_i_glide_ligand_efficiency_ln>  (307) 
-0.812738

>  <r_i_glide_gscore>  (307) 
-3.16185

>  <r_i_glide_lipo>  (307) 
0

>  <r_i_glide_hbond>  (307) 
-0.302052

>  <r_i_glide_metal>  (307) 
-0

>  <r_i_glide_rewards>  (307) 
-1.51797

>  <r_i_glide_evdw>  (307) 
-14.3011

>  <r_i_glide_ecoul>  (307) 
-4.92789

>  <r_i_glide_erotb>  (307) 
0.234075

>  <r_i_glide_esite>  (307) 
-0.121669

>  <r_i_glide_emodel>  (307) 
-24.1302

>  <r_i_glide_energy>  (307) 
-19.2289

>  <r_i_glide_einternal>  (307) 
0.459633

>  <r_i_glide_intrahb_reward>  (307) 
-0

>  <i_i_glide_confnum>  (307) 
4

>  <i_i_glide_posenum>  (307) 
3

>  <r_i_glide_eff_state_penalty>  (307) 
0

>  <ligand_id>  (307) 
94

>  <original_smiles>  (307) 
Cn1cccc1C=C1SC2=C(CCC2=O)SC1=O

>  <smiles>  (307) 
[H]C(=C1SC2=C(SC1=O)C([H])([H])C([H])([H])C2=O)c1c([H])c([H])c([H])n1C([H])([H])[H]

$$$$
94:0:2
     RDKit          3D

 29 31  0  0  1  0  0  0  0  0999 V2000
   -3.3298    2.9536    9.1100 C   0  0  0  0  0  0  0  0  0  0  0  0
   -2.2116    3.8874    9.0968 N   0  0  0  0  0  0  0  0  0  0  0  0
   -1.7380    4.5277   10.2317 C   0  0  0  0  0  0  0  0  0  0  0  0
   -0.6843    5.3129    9.8674 C   0  0  0  0  0  0  0  0  0  0  0  0
   -0.4714    5.1282    8.4776 C   0  0  0  0  0  0  0  0  0  0  0  0
   -1.4300    4.2769    8.0023 C   0  0  0  0  0  0  0  0  0  0  0  0
   -1.6923    3.7798    6.6740 C   0  0  0  0  0  0  0  0  0  0  0  0
   -1.1658    4.0477    5.4522 C   0  0  0  0  0  0  0  0  0  0  0  0
   -1.7965    3.1143    4.1016 S   0  0  0  0  0  0  0  0  0  0  0  0
   -0.2932    2.6381    3.3256 C   0  0  0  0  0  0  0  0  0  0  0  0
    0.8655    3.2885    3.3172 C   0  0  0  0  0  0  0  0  0  0  0  0
    1.9566    2.6059    2.5227 C   0  0  0  0  0  0  0  0  0  0  0  0
    1.2958    1.3228    2.0121 C   0  0  0  0  0  0  0  0  0  0  0  0
   -0.1093    1.4258    2.5751 C   0  0  0  0  0  0  0  0  0  0  0  0
   -0.9517    0.5475    2.4363 O   0  0  0  0  0  0  0  0  0  0  0  0
    1.2230    4.8345    4.0865 S   0  0  0  0  0  0  0  0  0  0  0  0
   -0.1565    5.1207    5.2186 C   0  0  0  0  0  0  0  0  0  0  0  0
   -0.2433    6.2399    5.7283 O   0  0  0  0  0  0  0  0  0  0  0  0
   -3.8258    2.9837   10.0828 H   0  0  0  0  0  0  0  0  0  0  0  0
   -2.9544    1.9448    8.9362 H   0  0  0  0  0  0  0  0  0  0  0  0
   -4.0557    3.2169    8.3384 H   0  0  0  0  0  0  0  0  0  0  0  0
   -2.1886    4.3638   11.2016 H   0  0  0  0  0  0  0  0  0  0  0  0
   -0.1025    5.9470   10.5164 H   0  0  0  0  0  0  0  0  0  0  0  0
    0.3225    5.5939    7.9111 H   0  0  0  0  0  0  0  0  0  0  0  0
   -2.4494    3.0075    6.6456 H   0  0  0  0  0  0  0  0  0  0  0  0
    2.2312    3.2693    1.7073 H   0  0  0  0  0  0  0  0  0  0  0  0
    2.8401    2.4172    3.1384 H   0  0  0  0  0  0  0  0  0  0  0  0
    1.2495    1.2854    0.9256 H   0  0  0  0  0  0  0  0  0  0  0  0
    1.7976    0.4315    2.3843 H   0  0  0  0  0  0  0  0  0  0  0  0
  1  2  1  0
  1 19  1  0
  1 20  1  0
  1 21  1  0
  2  6  1  0
  2  3  1  0
  3  4  2  0
  3 22  1  0
  4  5  1  0
  4 23  1  0
  5  6  2  0
  5 24  1  0
  6  7  1  0
  7  8  2  3
  7 25  1  0
  8 17  1  0
  8  9  1  0
  9 10  1  0
 10 14  1  0
 10 11  2  0
 11 12  1  0
 11 16  1  0
 12 13  1  0
 12 26  1  0
 12 27  1  0
 13 14  1  0
 13 28  1  0
 13 29  1  0
 14 15  2  0
 16 17  1  0
 17 18  2  0
M  END
>  <i_m_ct_stereo_status>  (308) 
1

>  <s_m_source_file>  (308) 
/var/tmp/pbs.5076255.sched01/tmpj3mqheq3/1200r5s1sfv.sdf

>  <i_m_source_file_index>  (308) 
6

>  <i_lp_mmshare_version>  (308) 
48012

>  <i_f3d_flags>  (308) 
0

>  <s_epik_input>  (308) 
W0NIM11uMVtjSF1bY0hdW2NIXWMxL1tDSF09QygvUzIpQyg9TylTQyg9QzIzKVtDSDJdW0NIMl1DMz1P

>  <s_epik_cmdline>  (308) 
J2VwaWtfcHl0aG9uJywgJy1waHQnLCAnMi4wJywgJy1waCcsICc3LjAnLCAnLXRuJywgJzgnLCAnLW1hJywgJzIwMCcsICctaW1hZScsICc8aW5maWxlLm1hZT4nLCAnLW9tYWUnLCAnPG91dGZpbGUubWFlPic=

>  <r_lp_tautomer_probability>  (308) 
0.499977

>  <r_epik_Ionization_Penalty>  (308) 
2.36805e-14

>  <r_epik_Ionization_Penalty_Charging>  (308) 
0

>  <r_epik_Ionization_Penalty_Neutral>  (308) 
2.36805e-14

>  <r_epik_State_Penalty>  (308) 
0.41068

>  <r_epik_Charging_Adjusted_Penalty>  (308) 
0.41068

>  <i_epik_Tot_Q>  (308) 
0

>  <i_epik_Tot_abs_Q>  (308) 
0

>  <s_lp_Force_Field>  (308) 
OPLS3e

>  <r_lp_Energy>  (308) 
11.4873

>  <b_lp_Chiralities_Consistent>  (308) 
1

>  <s_lp_Variant>  (308) 
94:0-1

>  <s_i_glide_gridfile>  (308) 
pfpi4k_grid

>  <i_i_glide_lignum>  (308) 
6

>  <i_i_glide_rotatable_bonds>  (308) 
1

>  <r_i_docking_score>  (308) 
-2.53903

>  <r_i_glide_ligand_efficiency>  (308) 
-0.141057

>  <r_i_glide_ligand_efficiency_sa>  (308) 
-0.369675

>  <r_i_glide_ligand_efficiency_ln>  (308) 
-0.652645

>  <r_i_glide_gscore>  (308) 
-2.53903

>  <r_i_glide_lipo>  (308) 
-0.0438829

>  <r_i_glide_hbond>  (308) 
-0.00543413

>  <r_i_glide_metal>  (308) 
-0

>  <r_i_glide_rewards>  (308) 
-1.51797

>  <r_i_glide_evdw>  (308) 
-20.7607

>  <r_i_glide_ecoul>  (308) 
-0.429361

>  <r_i_glide_erotb>  (308) 
0.234075

>  <r_i_glide_esite>  (308) 
-0.103381

>  <r_i_glide_emodel>  (308) 
-25.1865

>  <r_i_glide_energy>  (308) 
-21.19

>  <r_i_glide_einternal>  (308) 
0.0115021

>  <r_i_glide_intrahb_reward>  (308) 
-0

>  <i_i_glide_confnum>  (308) 
3

>  <i_i_glide_posenum>  (308) 
9

>  <r_i_glide_eff_state_penalty>  (308) 
0

>  <ligand_id>  (308) 
94

>  <original_smiles>  (308) 
Cn1cccc1C=C1SC2=C(CCC2=O)SC1=O

>  <smiles>  (308) 
[H]C(=C1SC2=C(SC1=O)C([H])([H])C([H])([H])C2=O)c1c([H])c([H])c([H])n1C([H])([H])[H]

$$$$
94:1:0
     RDKit          3D

 29 31  0  0  1  0  0  0  0  0999 V2000
    3.5740   -3.8188   -3.0707 C   0  0  0  0  0  0  0  0  0  0  0  0
    3.6230   -2.3854   -3.2004 N   0  0  0  0  0  0  0  0  0  0  0  0
    2.6960   -1.6561   -3.9100 C   0  0  0  0  0  0  0  0  0  0  0  0
    3.0558   -0.3455   -3.8894 C   0  0  0  0  0  0  0  0  0  0  0  0
    4.2099   -0.2549   -3.0679 C   0  0  0  0  0  0  0  0  0  0  0  0
    4.5529   -1.5119   -2.6426 C   0  0  0  0  0  0  0  0  0  0  0  0
    5.6515   -1.9753   -1.8407 C   0  0  0  0  0  0  0  0  0  0  0  0
    5.6540   -2.6183   -0.6531 C   0  0  0  0  0  0  0  0  0  0  0  0
    4.1243   -2.8893    0.2017 S   0  0  0  0  0  0  0  0  0  0  0  0
    4.2840   -4.5851    0.6443 C   0  0  0  0  0  0  0  0  0  0  0  0
    5.4291   -5.1917    0.9876 C   0  0  0  0  0  0  0  0  0  0  0  0
    5.2358   -6.6356    1.4260 C   0  0  0  0  0  0  0  0  0  0  0  0
    3.7305   -6.8901    1.2520 C   0  0  0  0  0  0  0  0  0  0  0  0
    3.2013   -5.5577    0.7409 C   0  0  0  0  0  0  0  0  0  0  0  0
    2.0171   -5.4047    0.4394 O   0  0  0  0  0  0  0  0  0  0  0  0
    7.0552   -4.4700    1.0100 S   0  0  0  0  0  0  0  0  0  0  0  0
    6.9570   -3.0015   -0.0641 C   0  0  0  0  0  0  0  0  0  0  0  0
    7.9820   -2.3387   -0.2528 O   0  0  0  0  0  0  0  0  0  0  0  0
    2.8321   -4.2219   -3.7665 H   0  0  0  0  0  0  0  0  0  0  0  0
    3.2486   -4.0540   -2.0620 H   0  0  0  0  0  0  0  0  0  0  0  0
    4.5514   -4.2571   -3.2677 H   0  0  0  0  0  0  0  0  0  0  0  0
    1.8448   -2.1441   -4.3658 H   0  0  0  0  0  0  0  0  0  0  0  0
    2.5247    0.4682   -4.3549 H   0  0  0  0  0  0  0  0  0  0  0  0
    4.7456    0.6449   -2.8076 H   0  0  0  0  0  0  0  0  0  0  0  0
    6.6083   -1.8352   -2.3237 H   0  0  0  0  0  0  0  0  0  0  0  0
    5.8423   -7.3296    0.8421 H   0  0  0  0  0  0  0  0  0  0  0  0
    5.5340   -6.7438    2.4686 H   0  0  0  0  0  0  0  0  0  0  0  0
    3.5362   -7.6859    0.5346 H   0  0  0  0  0  0  0  0  0  0  0  0
    3.2400   -7.1252    2.1944 H   0  0  0  0  0  0  0  0  0  0  0  0
  1  2  1  0
  1 19  1  0
  1 20  1  0
  1 21  1  0
  2  6  1  0
  2  3  1  0
  3  4  2  0
  3 22  1  0
  4  5  1  0
  4 23  1  0
  5  6  2  0
  5 24  1  0
  6  7  1  0
  7  8  2  3
  7 25  1  0
  8 17  1  0
  8  9  1  0
  9 10  1  0
 10 14  1  0
 10 11  2  0
 11 12  1  0
 11 16  1  0
 12 13  1  0
 12 26  1  0
 12 27  1  0
 13 14  1  0
 13 28  1  0
 13 29  1  0
 14 15  2  0
 16 17  1  0
 17 18  2  0
M  END
>  <i_m_ct_stereo_status>  (309) 
1

>  <s_m_source_file>  (309) 
/var/tmp/pbs.5076255.sched01/tmpj3mqheq3/1200r5s1sfv.sdf

>  <i_m_source_file_index>  (309) 
7

>  <i_lp_mmshare_version>  (309) 
48012

>  <i_f3d_flags>  (309) 
0

>  <s_epik_input>  (309) 
W0NIM11uMVtjSF1bY0hdW2NIXWMxL1tDSF09QygvUzIpQyg9TylTQyg9QzIzKVtDSDJdW0NIMl1DMz1P

>  <s_epik_cmdline>  (309) 
J2VwaWtfcHl0aG9uJywgJy1waHQnLCAnMi4wJywgJy1waCcsICc3LjAnLCAnLXRuJywgJzgnLCAnLW1hJywgJzIwMCcsICctaW1hZScsICc8aW5maWxlLm1hZT4nLCAnLW9tYWUnLCAnPG91dGZpbGUubWFlPic=

>  <r_lp_tautomer_probability>  (309) 
0.499977

>  <r_epik_Ionization_Penalty>  (309) 
2.36805e-14

>  <r_epik_Ionization_Penalty_Charging>  (309) 
0

>  <r_epik_Ionization_Penalty_Neutral>  (309) 
2.36805e-14

>  <r_epik_State_Penalty>  (309) 
0.41068

>  <r_epik_Charging_Adjusted_Penalty>  (309) 
0.41068

>  <i_epik_Tot_Q>  (309) 
0

>  <i_epik_Tot_abs_Q>  (309) 
0

>  <s_lp_Force_Field>  (309) 
OPLS3e

>  <r_lp_Energy>  (309) 
10.5193

>  <b_lp_Chiralities_Consistent>  (309) 
1

>  <s_lp_Variant>  (309) 
94:0-2

>  <s_i_glide_gridfile>  (309) 
pfpi4k_grid

>  <i_i_glide_lignum>  (309) 
7

>  <i_i_glide_rotatable_bonds>  (309) 
1

>  <r_i_docking_score>  (309) 
-4.28489

>  <r_i_glide_ligand_efficiency>  (309) 
-0.238049

>  <r_i_glide_ligand_efficiency_sa>  (309) 
-0.623866

>  <r_i_glide_ligand_efficiency_ln>  (309) 
-1.10141

>  <r_i_glide_gscore>  (309) 
-4.28489

>  <r_i_glide_lipo>  (309) 
-0.924014

>  <r_i_glide_hbond>  (309) 
-0.121639

>  <r_i_glide_metal>  (309) 
-0

>  <r_i_glide_rewards>  (309) 
-1.82072

>  <r_i_glide_evdw>  (309) 
-21.3892

>  <r_i_glide_ecoul>  (309) 
-3.80513

>  <r_i_glide_erotb>  (309) 
0.234075

>  <r_i_glide_esite>  (309) 
-0.0123676

>  <r_i_glide_emodel>  (309) 
-31.1166

>  <r_i_glide_energy>  (309) 
-25.1943

>  <r_i_glide_einternal>  (309) 
3.80902

>  <r_i_glide_intrahb_reward>  (309) 
-0

>  <i_i_glide_confnum>  (309) 
3

>  <i_i_glide_posenum>  (309) 
1

>  <r_i_glide_eff_state_penalty>  (309) 
0

>  <ligand_id>  (309) 
94

>  <original_smiles>  (309) 
Cn1cccc1C=C1SC2=C(CCC2=O)SC1=O

>  <smiles>  (309) 
[H]C(=C1SC2=C(SC1=O)C([H])([H])C([H])([H])C2=O)c1c([H])c([H])c([H])n1C([H])([H])[H]

$$$$
94:1:1
     RDKit          3D

 29 31  0  0  1  0  0  0  0  0999 V2000
    4.3734   -1.0244   -0.3909 C   0  0  0  0  0  0  0  0  0  0  0  0
    4.1920   -1.7310   -1.6525 N   0  0  0  0  0  0  0  0  0  0  0  0
    3.4244   -1.2571   -2.7063 C   0  0  0  0  0  0  0  0  0  0  0  0
    3.5213   -2.1416   -3.7411 C   0  0  0  0  0  0  0  0  0  0  0  0
    4.3689   -3.2044   -3.3146 C   0  0  0  0  0  0  0  0  0  0  0  0
    4.7591   -2.9508   -2.0229 C   0  0  0  0  0  0  0  0  0  0  0  0
    5.6289   -3.6975   -1.1748 C   0  0  0  0  0  0  0  0  0  0  0  0
    5.3681   -4.2994    0.0191 C   0  0  0  0  0  0  0  0  0  0  0  0
    3.7092   -4.2057    0.6314 S   0  0  0  0  0  0  0  0  0  0  0  0
    3.4266   -5.8177    1.2306 C   0  0  0  0  0  0  0  0  0  0  0  0
    4.3541   -6.6646    1.6921 C   0  0  0  0  0  0  0  0  0  0  0  0
    3.7610   -7.9983    2.1229 C   0  0  0  0  0  0  0  0  0  0  0  0
    2.2429   -7.8563    1.8558 C   0  0  0  0  0  0  0  0  0  0  0  0
    2.1238   -6.4598    1.2893 C   0  0  0  0  0  0  0  0  0  0  0  0
    1.0369   -5.9946    0.9216 O   0  0  0  0  0  0  0  0  0  0  0  0
    6.1187   -6.3750    1.8331 S   0  0  0  0  0  0  0  0  0  0  0  0
    6.4913   -4.9661    0.7358 C   0  0  0  0  0  0  0  0  0  0  0  0
    7.6703   -4.6049    0.6111 O   0  0  0  0  0  0  0  0  0  0  0  0
    3.6181   -0.2520   -0.3211 H   0  0  0  0  0  0  0  0  0  0  0  0
    5.3865   -0.6217   -0.3328 H   0  0  0  0  0  0  0  0  0  0  0  0
    4.1817   -1.6366    0.4781 H   0  0  0  0  0  0  0  0  0  0  0  0
    2.8693   -0.3312   -2.6425 H   0  0  0  0  0  0  0  0  0  0  0  0
    3.0181   -2.0206   -4.6895 H   0  0  0  0  0  0  0  0  0  0  0  0
    4.6636   -4.0778   -3.8818 H   0  0  0  0  0  0  0  0  0  0  0  0
    6.6351   -3.7755   -1.5549 H   0  0  0  0  0  0  0  0  0  0  0  0
    4.2007   -8.8265    1.5586 H   0  0  0  0  0  0  0  0  0  0  0  0
    3.9639   -8.1528    3.1825 H   0  0  0  0  0  0  0  0  0  0  0  0
    1.8831   -8.5778    1.1212 H   0  0  0  0  0  0  0  0  0  0  0  0
    1.6529   -7.9290    2.7706 H   0  0  0  0  0  0  0  0  0  0  0  0
  1  2  1  0
  1 19  1  0
  1 20  1  0
  1 21  1  0
  2  6  1  0
  2  3  1  0
  3  4  2  0
  3 22  1  0
  4  5  1  0
  4 23  1  0
  5  6  2  0
  5 24  1  0
  6  7  1  0
  7  8  2  3
  7 25  1  0
  8 17  1  0
  8  9  1  0
  9 10  1  0
 10 14  1  0
 10 11  2  0
 11 12  1  0
 11 16  1  0
 12 13  1  0
 12 26  1  0
 12 27  1  0
 13 14  1  0
 13 28  1  0
 13 29  1  0
 14 15  2  0
 16 17  1  0
 17 18  2  0
M  END
>  <i_m_ct_stereo_status>  (310) 
1

>  <s_m_source_file>  (310) 
/var/tmp/pbs.5076255.sched01/tmpj3mqheq3/1200r5s1sfv.sdf

>  <i_m_source_file_index>  (310) 
7

>  <i_lp_mmshare_version>  (310) 
48012

>  <i_f3d_flags>  (310) 
0

>  <s_epik_input>  (310) 
W0NIM11uMVtjSF1bY0hdW2NIXWMxL1tDSF09QygvUzIpQyg9TylTQyg9QzIzKVtDSDJdW0NIMl1DMz1P

>  <s_epik_cmdline>  (310) 
J2VwaWtfcHl0aG9uJywgJy1waHQnLCAnMi4wJywgJy1waCcsICc3LjAnLCAnLXRuJywgJzgnLCAnLW1hJywgJzIwMCcsICctaW1hZScsICc8aW5maWxlLm1hZT4nLCAnLW9tYWUnLCAnPG91dGZpbGUubWFlPic=

>  <r_lp_tautomer_probability>  (310) 
0.499977

>  <r_epik_Ionization_Penalty>  (310) 
2.36805e-14

>  <r_epik_Ionization_Penalty_Charging>  (310) 
0

>  <r_epik_Ionization_Penalty_Neutral>  (310) 
2.36805e-14

>  <r_epik_State_Penalty>  (310) 
0.41068

>  <r_epik_Charging_Adjusted_Penalty>  (310) 
0.41068

>  <i_epik_Tot_Q>  (310) 
0

>  <i_epik_Tot_abs_Q>  (310) 
0

>  <s_lp_Force_Field>  (310) 
OPLS3e

>  <r_lp_Energy>  (310) 
10.5193

>  <b_lp_Chiralities_Consistent>  (310) 
1

>  <s_lp_Variant>  (310) 
94:0-2

>  <s_i_glide_gridfile>  (310) 
pfpi4k_grid

>  <i_i_glide_lignum>  (310) 
7

>  <i_i_glide_rotatable_bonds>  (310) 
1

>  <r_i_docking_score>  (310) 
-4.13715

>  <r_i_glide_ligand_efficiency>  (310) 
-0.229841

>  <r_i_glide_ligand_efficiency_sa>  (310) 
-0.602355

>  <r_i_glide_ligand_efficiency_ln>  (310) 
-1.06343

>  <r_i_glide_gscore>  (310) 
-4.13715

>  <r_i_glide_lipo>  (310) 
-0.631209

>  <r_i_glide_hbond>  (310) 
-0.16

>  <r_i_glide_metal>  (310) 
-0

>  <r_i_glide_rewards>  (310) 
-1.66824

>  <r_i_glide_evdw>  (310) 
-24.2458

>  <r_i_glide_ecoul>  (310) 
-4.24758

>  <r_i_glide_erotb>  (310) 
0.234075

>  <r_i_glide_esite>  (310) 
-0.0623421

>  <r_i_glide_emodel>  (310) 
-33.8074

>  <r_i_glide_energy>  (310) 
-28.4934

>  <r_i_glide_einternal>  (310) 
4.11884

>  <r_i_glide_intrahb_reward>  (310) 
-0

>  <i_i_glide_confnum>  (310) 
3

>  <i_i_glide_posenum>  (310) 
10

>  <r_i_glide_eff_state_penalty>  (310) 
0

>  <ligand_id>  (310) 
94

>  <original_smiles>  (310) 
Cn1cccc1C=C1SC2=C(CCC2=O)SC1=O

>  <smiles>  (310) 
[H]C(=C1SC2=C(SC1=O)C([H])([H])C([H])([H])C2=O)c1c([H])c([H])c([H])n1C([H])([H])[H]

$$$$
94:1:2
     RDKit          3D

 29 31  0  0  1  0  0  0  0  0999 V2000
    3.4981   -3.6538   -3.9236 C   0  0  0  0  0  0  0  0  0  0  0  0
    3.8564   -2.4456   -3.2150 N   0  0  0  0  0  0  0  0  0  0  0  0
    3.8470   -1.1853   -3.7899 C   0  0  0  0  0  0  0  0  0  0  0  0
    4.2081   -0.2878   -2.8348 C   0  0  0  0  0  0  0  0  0  0  0  0
    4.4698   -1.0141   -1.6422 C   0  0  0  0  0  0  0  0  0  0  0  0
    4.2320   -2.3437   -1.8757 C   0  0  0  0  0  0  0  0  0  0  0  0
    4.3282   -3.5202   -1.0444 C   0  0  0  0  0  0  0  0  0  0  0  0
    4.9269   -3.7130    0.1548 C   0  0  0  0  0  0  0  0  0  0  0  0
    5.9013   -2.4210    0.8795 S   0  0  0  0  0  0  0  0  0  0  0  0
    5.2990   -2.4213    2.5228 C   0  0  0  0  0  0  0  0  0  0  0  0
    4.9217   -3.5011    3.2150 C   0  0  0  0  0  0  0  0  0  0  0  0
    4.5584   -3.1939    4.6573 C   0  0  0  0  0  0  0  0  0  0  0  0
    4.7337   -1.6705    4.7794 C   0  0  0  0  0  0  0  0  0  0  0  0
    5.1775   -1.2547    3.3890 C   0  0  0  0  0  0  0  0  0  0  0  0
    5.4056   -0.0889    3.0801 O   0  0  0  0  0  0  0  0  0  0  0  0
    4.8748   -5.1812    2.6136 S   0  0  0  0  0  0  0  0  0  0  0  0
    4.8133   -5.0469    0.7989 C   0  0  0  0  0  0  0  0  0  0  0  0
    4.6917   -6.0859    0.1464 O   0  0  0  0  0  0  0  0  0  0  0  0
    3.4295   -3.4377   -4.9856 H   0  0  0  0  0  0  0  0  0  0  0  0
    2.5238   -3.9945   -3.5755 H   0  0  0  0  0  0  0  0  0  0  0  0
    4.2588   -4.4185   -3.7633 H   0  0  0  0  0  0  0  0  0  0  0  0
    3.5872   -1.0277   -4.8267 H   0  0  0  0  0  0  0  0  0  0  0  0
    4.3052    0.7765   -2.9856 H   0  0  0  0  0  0  0  0  0  0  0  0
    4.7686   -0.5684   -0.7035 H   0  0  0  0  0  0  0  0  0  0  0  0
    3.7672   -4.3572   -1.4293 H   0  0  0  0  0  0  0  0  0  0  0  0
    3.5393   -3.5079    4.8890 H   0  0  0  0  0  0  0  0  0  0  0  0
    5.2389   -3.7230    5.3255 H   0  0  0  0  0  0  0  0  0  0  0  0
    3.8079   -1.1647    5.0458 H   0  0  0  0  0  0  0  0  0  0  0  0
    5.5085   -1.3992    5.4930 H   0  0  0  0  0  0  0  0  0  0  0  0
  1  2  1  0
  1 19  1  0
  1 20  1  0
  1 21  1  0
  2  6  1  0
  2  3  1  0
  3  4  2  0
  3 22  1  0
  4  5  1  0
  4 23  1  0
  5  6  2  0
  5 24  1  0
  6  7  1  0
  7  8  2  3
  7 25  1  0
  8 17  1  0
  8  9  1  0
  9 10  1  0
 10 14  1  0
 10 11  2  0
 11 12  1  0
 11 16  1  0
 12 13  1  0
 12 26  1  0
 12 27  1  0
 13 14  1  0
 13 28  1  0
 13 29  1  0
 14 15  2  0
 16 17  1  0
 17 18  2  0
M  END
>  <i_m_ct_stereo_status>  (311) 
1

>  <s_m_source_file>  (311) 
/var/tmp/pbs.5076255.sched01/tmpj3mqheq3/1200r5s1sfv.sdf

>  <i_m_source_file_index>  (311) 
7

>  <i_lp_mmshare_version>  (311) 
48012

>  <i_f3d_flags>  (311) 
0

>  <s_epik_input>  (311) 
W0NIM11uMVtjSF1bY0hdW2NIXWMxL1tDSF09QygvUzIpQyg9TylTQyg9QzIzKVtDSDJdW0NIMl1DMz1P

>  <s_epik_cmdline>  (311) 
J2VwaWtfcHl0aG9uJywgJy1waHQnLCAnMi4wJywgJy1waCcsICc3LjAnLCAnLXRuJywgJzgnLCAnLW1hJywgJzIwMCcsICctaW1hZScsICc8aW5maWxlLm1hZT4nLCAnLW9tYWUnLCAnPG91dGZpbGUubWFlPic=

>  <r_lp_tautomer_probability>  (311) 
0.499977

>  <r_epik_Ionization_Penalty>  (311) 
2.36805e-14

>  <r_epik_Ionization_Penalty_Charging>  (311) 
0

>  <r_epik_Ionization_Penalty_Neutral>  (311) 
2.36805e-14

>  <r_epik_State_Penalty>  (311) 
0.41068

>  <r_epik_Charging_Adjusted_Penalty>  (311) 
0.41068

>  <i_epik_Tot_Q>  (311) 
0

>  <i_epik_Tot_abs_Q>  (311) 
0

>  <s_lp_Force_Field>  (311) 
OPLS3e

>  <r_lp_Energy>  (311) 
10.5193

>  <b_lp_Chiralities_Consistent>  (311) 
1

>  <s_lp_Variant>  (311) 
94:0-2

>  <s_i_glide_gridfile>  (311) 
pfpi4k_grid

>  <i_i_glide_lignum>  (311) 
7

>  <i_i_glide_rotatable_bonds>  (311) 
1

>  <r_i_docking_score>  (311) 
-3.65322

>  <r_i_glide_ligand_efficiency>  (311) 
-0.202957

>  <r_i_glide_ligand_efficiency_sa>  (311) 
-0.531897

>  <r_i_glide_ligand_efficiency_ln>  (311) 
-0.939042

>  <r_i_glide_gscore>  (311) 
-3.65322

>  <r_i_glide_lipo>  (311) 
-0.63253

>  <r_i_glide_hbond>  (311) 
-0.071285

>  <r_i_glide_metal>  (311) 
-0

>  <r_i_glide_rewards>  (311) 
-1.92296

>  <r_i_glide_evdw>  (311) 
-22.231

>  <r_i_glide_ecoul>  (311) 
-0.993131

>  <r_i_glide_erotb>  (311) 
0.234075

>  <r_i_glide_esite>  (311) 
0

>  <r_i_glide_emodel>  (311) 
-29.9583

>  <r_i_glide_energy>  (311) 
-23.2241

>  <r_i_glide_einternal>  (311) 
0.00844719

>  <r_i_glide_intrahb_reward>  (311) 
-0

>  <i_i_glide_confnum>  (311) 
4

>  <i_i_glide_posenum>  (311) 
7

>  <r_i_glide_eff_state_penalty>  (311) 
0

>  <ligand_id>  (311) 
94

>  <original_smiles>  (311) 
Cn1cccc1C=C1SC2=C(CCC2=O)SC1=O

>  <smiles>  (311) 
[H]C(=C1SC2=C(SC1=O)C([H])([H])C([H])([H])C2=O)c1c([H])c([H])c([H])n1C([H])([H])[H]

$$$$
94:2:0
     RDKit          3D

 29 31  0  0  1  0  0  0  0  0999 V2000
    1.8348   -3.0491   -3.7784 C   0  0  0  0  0  0  0  0  0  0  0  0
    2.8208   -2.0074   -3.5726 N   0  0  0  0  0  0  0  0  0  0  0  0
    2.8793   -0.8408   -4.3223 C   0  0  0  0  0  0  0  0  0  0  0  0
    3.8470   -0.0477   -3.8115 C   0  0  0  0  0  0  0  0  0  0  0  0
    4.4124   -0.7317   -2.7105 C   0  0  0  0  0  0  0  0  0  0  0  0
    3.7972   -1.9438   -2.5837 C   0  0  0  0  0  0  0  0  0  0  0  0
    3.9655   -3.0276   -1.6449 C   0  0  0  0  0  0  0  0  0  0  0  0
    4.8497   -3.2462   -0.6468 C   0  0  0  0  0  0  0  0  0  0  0  0
    4.4781   -4.5974    0.4393 S   0  0  0  0  0  0  0  0  0  0  0  0
    5.0137   -3.9191    2.0316 C   0  0  1  0  0  0  0  0  0  0  0  0
    4.8089   -2.4072    2.0668 C   0  0  1  0  0  0  0  0  0  0  0  0
    4.5471   -2.1394    3.5264 C   0  0  0  0  0  0  0  0  0  0  0  0
    4.1418   -3.2398    4.1799 C   0  0  0  0  0  0  0  0  0  0  0  0
    4.1961   -4.3539    3.2319 C   0  0  0  0  0  0  0  0  0  0  0  0
    3.6759   -5.4602    3.3270 O   0  0  0  0  0  0  0  0  0  0  0  0
    6.2054   -1.5767    1.2561 S   0  0  0  0  0  0  0  0  0  0  0  0
    5.9913   -2.3337   -0.3935 C   0  0  0  0  0  0  0  0  0  0  0  0
    6.8249   -2.0773   -1.2620 O   0  0  0  0  0  0  0  0  0  0  0  0
    1.2677   -2.8733   -4.6936 H   0  0  0  0  0  0  0  0  0  0  0  0
    1.1365   -3.0443   -2.9368 H   0  0  0  0  0  0  0  0  0  0  0  0
    2.3221   -4.0208   -3.8536 H   0  0  0  0  0  0  0  0  0  0  0  0
    2.1980   -0.6614   -5.1338 H   0  0  0  0  0  0  0  0  0  0  0  0
    4.1134    0.9314   -4.1810 H   0  0  0  0  0  0  0  0  0  0  0  0
    5.1885   -0.3325   -2.0749 H   0  0  0  0  0  0  0  0  0  0  0  0
    3.1753   -3.7635   -1.6672 H   0  0  0  0  0  0  0  0  0  0  0  0
    4.6368   -1.1546    3.9537 H   0  0  0  0  0  0  0  0  0  0  0  0
    3.8963   -2.1081    1.5471 H   0  0  0  0  0  0  0  0  0  0  0  0
    3.8624   -3.3189    5.2205 H   0  0  0  0  0  0  0  0  0  0  0  0
    6.0623   -4.1666    2.2244 H   0  0  0  0  0  0  0  0  0  0  0  0
  1  2  1  0
  1 19  1  0
  1 20  1  0
  1 21  1  0
  2  6  1  0
  2  3  1  0
  3  4  2  0
  3 22  1  0
  4  5  1  0
  4 23  1  0
  5  6  2  0
  5 24  1  0
  6  7  1  0
  7  8  2  3
  7 25  1  0
  8 17  1  0
  8  9  1  0
  9 10  1  0
 10 11  1  0
 10 29  1  1
 10 14  1  0
 11 12  1  0
 11 16  1  0
 11 27  1  6
 12 26  1  0
 12 13  2  0
 13 14  1  0
 13 28  1  0
 14 15  2  0
 16 17  1  0
 17 18  2  0
M  END
>  <i_m_ct_stereo_status>  (312) 
1

>  <s_m_source_file>  (312) 
/var/tmp/pbs.5076255.sched01/tmpj3mqheq3/1200r5s1sfv.sdf

>  <i_m_source_file_index>  (312) 
8

>  <i_lp_mmshare_version>  (312) 
48012

>  <i_f3d_flags>  (312) 
0

>  <s_epik_input>  (312) 
W0NIM11uMVtjSF1bY0hdW2NIXWMxL1tDSF09QygvUzIpQyg9TylTQyg9QzIzKVtDSDJdW0NIMl1DMz1P

>  <s_epik_cmdline>  (312) 
J2VwaWtfcHl0aG9uJywgJy1waHQnLCAnMi4wJywgJy1waCcsICc3LjAnLCAnLXRuJywgJzgnLCAnLW1hJywgJzIwMCcsICctaW1hZScsICc8aW5maWxlLm1hZT4nLCAnLW9tYWUnLCAnPG91dGZpbGUubWFlPic=

>  <r_lp_tautomer_probability>  (312) 
0.499977

>  <r_epik_Ionization_Penalty>  (312) 
1.29059e-13

>  <r_epik_Ionization_Penalty_Charging>  (312) 
0

>  <r_epik_Ionization_Penalty_Neutral>  (312) 
1.29059e-13

>  <r_epik_State_Penalty>  (312) 
0.41068

>  <r_epik_Charging_Adjusted_Penalty>  (312) 
0.41068

>  <i_epik_Tot_Q>  (312) 
0

>  <i_epik_Tot_abs_Q>  (312) 
0

>  <s_lp_Force_Field>  (312) 
OPLS3e

>  <r_lp_Energy>  (312) 
20.5035

>  <b_lp_Chiralities_Consistent>  (312) 
1

>  <s_lp_Variant>  (312) 
94:0-3

>  <s_i_glide_gridfile>  (312) 
pfpi4k_grid

>  <i_i_glide_lignum>  (312) 
8

>  <i_i_glide_rotatable_bonds>  (312) 
1

>  <r_i_docking_score>  (312) 
-4.32756

>  <r_i_glide_ligand_efficiency>  (312) 
-0.24042

>  <r_i_glide_ligand_efficiency_sa>  (312) 
-0.630078

>  <r_i_glide_ligand_efficiency_ln>  (312) 
-1.11238

>  <r_i_glide_gscore>  (312) 
-4.32756

>  <r_i_glide_lipo>  (312) 
-0.773796

>  <r_i_glide_hbond>  (312) 
-0.16

>  <r_i_glide_metal>  (312) 
-0

>  <r_i_glide_rewards>  (312) 
-1.81654

>  <r_i_glide_evdw>  (312) 
-21.7164

>  <r_i_glide_ecoul>  (312) 
-4.73696

>  <r_i_glide_erotb>  (312) 
0.234075

>  <r_i_glide_esite>  (312) 
-0.0149285

>  <r_i_glide_emodel>  (312) 
-33.0668

>  <r_i_glide_energy>  (312) 
-26.4534

>  <r_i_glide_einternal>  (312) 
0.0340177

>  <r_i_glide_intrahb_reward>  (312) 
-0

>  <i_i_glide_confnum>  (312) 
3

>  <i_i_glide_posenum>  (312) 
1

>  <r_i_glide_eff_state_penalty>  (312) 
0

>  <ligand_id>  (312) 
94

>  <original_smiles>  (312) 
Cn1cccc1C=C1SC2=C(CCC2=O)SC1=O

>  <smiles>  (312) 
[H]C1=C([H])C2([H])SC(=O)C(=C([H])c3c([H])c([H])c([H])n3C([H])([H])[H])SC2([H])C1=O

$$$$
94:2:1
     RDKit          3D

 29 31  0  0  1  0  0  0  0  0999 V2000
   -1.5089   -8.0261    4.0905 C   0  0  0  0  0  0  0  0  0  0  0  0
   -0.2742   -7.6585    3.4242 N   0  0  0  0  0  0  0  0  0  0  0  0
    0.3422   -8.4569    2.4747 C   0  0  0  0  0  0  0  0  0  0  0  0
    1.4622   -7.8188    2.0477 C   0  0  0  0  0  0  0  0  0  0  0  0
    1.5342   -6.5879    2.7344 C   0  0  0  0  0  0  0  0  0  0  0  0
    0.4971   -6.5075    3.6059 C   0  0  0  0  0  0  0  0  0  0  0  0
    0.1192   -5.4992    4.5771 C   0  0  0  0  0  0  0  0  0  0  0  0
    0.7034   -4.3630    4.9822 C   0  0  0  0  0  0  0  0  0  0  0  0
   -0.3228   -3.2754    5.9467 S   0  0  0  0  0  0  0  0  0  0  0  0
    0.1996   -1.6450    5.3378 C   0  0  1  0  0  0  0  0  0  0  0  0
    0.6086   -1.7402    3.8769 C   0  0  1  0  0  0  0  0  0  0  0  0
    0.2588   -0.3787    3.3240 C   0  0  0  0  0  0  0  0  0  0  0  0
   -0.6383    0.2695    4.0924 C   0  0  0  0  0  0  0  0  0  0  0  0
   -0.8714   -0.5802    5.2642 C   0  0  0  0  0  0  0  0  0  0  0  0
   -1.7929   -0.5239    6.0796 O   0  0  0  0  0  0  0  0  0  0  0  0
    2.3158   -2.3344    3.7401 S   0  0  0  0  0  0  0  0  0  0  0  0
    2.0569   -3.9610    4.5240 C   0  0  0  0  0  0  0  0  0  0  0  0
    3.0352   -4.6857    4.7099 O   0  0  0  0  0  0  0  0  0  0  0  0
   -1.7732   -9.0538    3.8424 H   0  0  0  0  0  0  0  0  0  0  0  0
   -2.3139   -7.3644    3.7738 H   0  0  0  0  0  0  0  0  0  0  0  0
   -1.3782   -7.9645    5.1659 H   0  0  0  0  0  0  0  0  0  0  0  0
   -0.0605   -9.4220    2.1815 H   0  0  0  0  0  0  0  0  0  0  0  0
    2.1574   -8.2095    1.3220 H   0  0  0  0  0  0  0  0  0  0  0  0
    2.3196   -5.8521    2.5910 H   0  0  0  0  0  0  0  0  0  0  0  0
   -0.8781   -5.6345    4.9631 H   0  0  0  0  0  0  0  0  0  0  0  0
    0.6714    0.0044    2.4095 H   0  0  0  0  0  0  0  0  0  0  0  0
   -0.0249   -2.4347    3.3273 H   0  0  0  0  0  0  0  0  0  0  0  0
   -1.0595    1.2569    3.9310 H   0  0  0  0  0  0  0  0  0  0  0  0
    1.0328   -1.2550    5.9314 H   0  0  0  0  0  0  0  0  0  0  0  0
  1  2  1  0
  1 19  1  0
  1 20  1  0
  1 21  1  0
  2  6  1  0
  2  3  1  0
  3  4  2  0
  3 22  1  0
  4  5  1  0
  4 23  1  0
  5  6  2  0
  5 24  1  0
  6  7  1  0
  7  8  2  3
  7 25  1  0
  8 17  1  0
  8  9  1  0
  9 10  1  0
 10 11  1  0
 10 29  1  1
 10 14  1  0
 11 12  1  0
 11 16  1  0
 11 27  1  6
 12 26  1  0
 12 13  2  0
 13 14  1  0
 13 28  1  0
 14 15  2  0
 16 17  1  0
 17 18  2  0
M  END
>  <i_m_ct_stereo_status>  (313) 
1

>  <s_m_source_file>  (313) 
/var/tmp/pbs.5076255.sched01/tmpj3mqheq3/1200r5s1sfv.sdf

>  <i_m_source_file_index>  (313) 
8

>  <i_lp_mmshare_version>  (313) 
48012

>  <i_f3d_flags>  (313) 
0

>  <s_epik_input>  (313) 
W0NIM11uMVtjSF1bY0hdW2NIXWMxL1tDSF09QygvUzIpQyg9TylTQyg9QzIzKVtDSDJdW0NIMl1DMz1P

>  <s_epik_cmdline>  (313) 
J2VwaWtfcHl0aG9uJywgJy1waHQnLCAnMi4wJywgJy1waCcsICc3LjAnLCAnLXRuJywgJzgnLCAnLW1hJywgJzIwMCcsICctaW1hZScsICc8aW5maWxlLm1hZT4nLCAnLW9tYWUnLCAnPG91dGZpbGUubWFlPic=

>  <r_lp_tautomer_probability>  (313) 
0.499977

>  <r_epik_Ionization_Penalty>  (313) 
1.29059e-13

>  <r_epik_Ionization_Penalty_Charging>  (313) 
0

>  <r_epik_Ionization_Penalty_Neutral>  (313) 
1.29059e-13

>  <r_epik_State_Penalty>  (313) 
0.41068

>  <r_epik_Charging_Adjusted_Penalty>  (313) 
0.41068

>  <i_epik_Tot_Q>  (313) 
0

>  <i_epik_Tot_abs_Q>  (313) 
0

>  <s_lp_Force_Field>  (313) 
OPLS3e

>  <r_lp_Energy>  (313) 
20.5035

>  <b_lp_Chiralities_Consistent>  (313) 
1

>  <s_lp_Variant>  (313) 
94:0-3

>  <s_i_glide_gridfile>  (313) 
pfpi4k_grid

>  <i_i_glide_lignum>  (313) 
8

>  <i_i_glide_rotatable_bonds>  (313) 
1

>  <r_i_docking_score>  (313) 
-3.20929

>  <r_i_glide_ligand_efficiency>  (313) 
-0.178294

>  <r_i_glide_ligand_efficiency_sa>  (313) 
-0.467263

>  <r_i_glide_ligand_efficiency_ln>  (313) 
-0.824933

>  <r_i_glide_gscore>  (313) 
-3.20929

>  <r_i_glide_lipo>  (313) 
-0.00156218

>  <r_i_glide_hbond>  (313) 
-0.118719

>  <r_i_glide_metal>  (313) 
-0

>  <r_i_glide_rewards>  (313) 
-1.51889

>  <r_i_glide_evdw>  (313) 
-17.7426

>  <r_i_glide_ecoul>  (313) 
-5.5772

>  <r_i_glide_erotb>  (313) 
0.234075

>  <r_i_glide_esite>  (313) 
-0.080492

>  <r_i_glide_emodel>  (313) 
-28.0638

>  <r_i_glide_energy>  (313) 
-23.3198

>  <r_i_glide_einternal>  (313) 
0.0507862

>  <r_i_glide_intrahb_reward>  (313) 
-0

>  <i_i_glide_confnum>  (313) 
6

>  <i_i_glide_posenum>  (313) 
29

>  <r_i_glide_eff_state_penalty>  (313) 
0

>  <ligand_id>  (313) 
94

>  <original_smiles>  (313) 
Cn1cccc1C=C1SC2=C(CCC2=O)SC1=O

>  <smiles>  (313) 
[H]C1=C([H])C2([H])SC(=O)C(=C([H])c3c([H])c([H])c([H])n3C([H])([H])[H])SC2([H])C1=O

$$$$
94:2:2
     RDKit          3D

 29 31  0  0  1  0  0  0  0  0999 V2000
   -1.7924   -8.9121    3.2036 C   0  0  0  0  0  0  0  0  0  0  0  0
   -0.3595   -9.0301    3.4357 N   0  0  0  0  0  0  0  0  0  0  0  0
    0.4323   -9.9942    2.8316 C   0  0  0  0  0  0  0  0  0  0  0  0
    1.7160   -9.8169    3.2465 C   0  0  0  0  0  0  0  0  0  0  0  0
    1.7327   -8.7065    4.1284 C   0  0  0  0  0  0  0  0  0  0  0  0
    0.4567   -8.2484    4.2663 C   0  0  0  0  0  0  0  0  0  0  0  0
   -0.0968   -7.1341    5.0185 C   0  0  0  0  0  0  0  0  0  0  0  0
    0.4608   -6.1096    5.7061 C   0  0  0  0  0  0  0  0  0  0  0  0
   -0.5979   -4.8668    6.3641 S   0  0  0  0  0  0  0  0  0  0  0  0
    0.3132   -3.3618    5.9663 C   0  0  1  0  0  0  0  0  0  0  0  0
    1.2159   -3.5420    4.7348 C   0  0  1  0  0  0  0  0  0  0  0  0
    1.3181   -2.1418    4.2015 C   0  0  0  0  0  0  0  0  0  0  0  0
    0.3066   -1.3622    4.6131 C   0  0  0  0  0  0  0  0  0  0  0  0
   -0.5026   -2.1437    5.5492 C   0  0  0  0  0  0  0  0  0  0  0  0
   -1.6346   -1.8936    5.9504 O   0  0  0  0  0  0  0  0  0  0  0  0
    2.7243   -4.4061    5.2296 S   0  0  0  0  0  0  0  0  0  0  0  0
    1.9349   -5.9395    5.8521 C   0  0  0  0  0  0  0  0  0  0  0  0
    2.6374   -6.7723    6.4351 O   0  0  0  0  0  0  0  0  0  0  0  0
   -2.1324   -9.7704    2.6265 H   0  0  0  0  0  0  0  0  0  0  0  0
   -2.0029   -7.9985    2.6499 H   0  0  0  0  0  0  0  0  0  0  0  0
   -2.3223   -8.9062    4.1536 H   0  0  0  0  0  0  0  0  0  0  0  0
    0.0179  -10.7225    2.1439 H   0  0  0  0  0  0  0  0  0  0  0  0
    2.5655  -10.4107    2.9487 H   0  0  0  0  0  0  0  0  0  0  0  0
    2.6262   -8.3194    4.6037 H   0  0  0  0  0  0  0  0  0  0  0  0
   -1.1796   -7.0898    5.0052 H   0  0  0  0  0  0  0  0  0  0  0  0
    2.1071   -1.8536    3.5247 H   0  0  0  0  0  0  0  0  0  0  0  0
    0.7244   -4.1305    3.9623 H   0  0  0  0  0  0  0  0  0  0  0  0
    0.1364   -0.3248    4.3422 H   0  0  0  0  0  0  0  0  0  0  0  0
    0.9082   -3.0807    6.8388 H   0  0  0  0  0  0  0  0  0  0  0  0
  1  2  1  0
  1 19  1  0
  1 20  1  0
  1 21  1  0
  2  6  1  0
  2  3  1  0
  3  4  2  0
  3 22  1  0
  4  5  1  0
  4 23  1  0
  5  6  2  0
  5 24  1  0
  6  7  1  0
  7  8  2  3
  7 25  1  0
  8 17  1  0
  8  9  1  0
  9 10  1  0
 10 11  1  0
 10 29  1  1
 10 14  1  0
 11 12  1  0
 11 16  1  0
 11 27  1  6
 12 26  1  0
 12 13  2  0
 13 14  1  0
 13 28  1  0
 14 15  2  0
 16 17  1  0
 17 18  2  0
M  END
>  <i_m_ct_stereo_status>  (314) 
1

>  <s_m_source_file>  (314) 
/var/tmp/pbs.5076255.sched01/tmpj3mqheq3/1200r5s1sfv.sdf

>  <i_m_source_file_index>  (314) 
8

>  <i_lp_mmshare_version>  (314) 
48012

>  <i_f3d_flags>  (314) 
0

>  <s_epik_input>  (314) 
W0NIM11uMVtjSF1bY0hdW2NIXWMxL1tDSF09QygvUzIpQyg9TylTQyg9QzIzKVtDSDJdW0NIMl1DMz1P

>  <s_epik_cmdline>  (314) 
J2VwaWtfcHl0aG9uJywgJy1waHQnLCAnMi4wJywgJy1waCcsICc3LjAnLCAnLXRuJywgJzgnLCAnLW1hJywgJzIwMCcsICctaW1hZScsICc8aW5maWxlLm1hZT4nLCAnLW9tYWUnLCAnPG91dGZpbGUubWFlPic=

>  <r_lp_tautomer_probability>  (314) 
0.499977

>  <r_epik_Ionization_Penalty>  (314) 
1.29059e-13

>  <r_epik_Ionization_Penalty_Charging>  (314) 
0

>  <r_epik_Ionization_Penalty_Neutral>  (314) 
1.29059e-13

>  <r_epik_State_Penalty>  (314) 
0.41068

>  <r_epik_Charging_Adjusted_Penalty>  (314) 
0.41068

>  <i_epik_Tot_Q>  (314) 
0

>  <i_epik_Tot_abs_Q>  (314) 
0

>  <s_lp_Force_Field>  (314) 
OPLS3e

>  <r_lp_Energy>  (314) 
20.5035

>  <b_lp_Chiralities_Consistent>  (314) 
1

>  <s_lp_Variant>  (314) 
94:0-3

>  <s_i_glide_gridfile>  (314) 
pfpi4k_grid

>  <i_i_glide_lignum>  (314) 
8

>  <i_i_glide_rotatable_bonds>  (314) 
1

>  <r_i_docking_score>  (314) 
-2.76666

>  <r_i_glide_ligand_efficiency>  (314) 
-0.153703

>  <r_i_glide_ligand_efficiency_sa>  (314) 
-0.402816

>  <r_i_glide_ligand_efficiency_ln>  (314) 
-0.711155

>  <r_i_glide_gscore>  (314) 
-2.76666

>  <r_i_glide_lipo>  (314) 
-0.1185

>  <r_i_glide_hbond>  (314) 
-0.000511952

>  <r_i_glide_metal>  (314) 
-0

>  <r_i_glide_rewards>  (314) 
-1.51797

>  <r_i_glide_evdw>  (314) 
-17.3428

>  <r_i_glide_ecoul>  (314) 
-2.77258

>  <r_i_glide_erotb>  (314) 
0.234075

>  <r_i_glide_esite>  (314) 
-0.0807203

>  <r_i_glide_emodel>  (314) 
-24.1343

>  <r_i_glide_energy>  (314) 
-20.1154

>  <r_i_glide_einternal>  (314) 
0.106324

>  <r_i_glide_intrahb_reward>  (314) 
-0

>  <i_i_glide_confnum>  (314) 
3

>  <i_i_glide_posenum>  (314) 
26

>  <r_i_glide_eff_state_penalty>  (314) 
0

>  <ligand_id>  (314) 
94

>  <original_smiles>  (314) 
Cn1cccc1C=C1SC2=C(CCC2=O)SC1=O

>  <smiles>  (314) 
[H]C1=C([H])C2([H])SC(=O)C(=C([H])c3c([H])c([H])c([H])n3C([H])([H])[H])SC2([H])C1=O

$$$$
94:3:0
     RDKit          3D

 29 31  0  0  1  0  0  0  0  0999 V2000
    4.7696   -0.2006   -2.1929 C   0  0  0  0  0  0  0  0  0  0  0  0
    3.9393   -1.2457   -2.6870 N   0  0  0  0  0  0  0  0  0  0  0  0
    2.8919   -1.0587   -3.5468 C   0  0  0  0  0  0  0  0  0  0  0  0
    2.2733   -2.2759   -3.7324 C   0  0  0  0  0  0  0  0  0  0  0  0
    2.9987   -3.2106   -2.9729 C   0  0  0  0  0  0  0  0  0  0  0  0
    4.0141   -2.5630   -2.3300 C   0  0  0  0  0  0  0  0  0  0  0  0
    5.0451   -2.9840   -1.4418 C   0  0  0  0  0  0  0  0  0  0  0  0
    4.9571   -3.6142   -0.2574 C   0  0  0  0  0  0  0  0  0  0  0  0
    3.3387   -3.9636    0.3769 S   0  0  0  0  0  0  0  0  0  0  0  0
    3.6507   -5.6655    0.7949 C   0  0  1  0  0  0  0  0  0  0  0  0
    4.6151   -5.8033    1.9531 C   0  0  1  0  0  0  0  0  0  0  0  0
    4.2058   -7.1626    2.5138 C   0  0  0  0  0  0  0  0  0  0  0  0
    2.9663   -7.5379    2.1470 C   0  0  0  0  0  0  0  0  0  0  0  0
    2.4572   -6.4956    1.2428 C   0  0  0  0  0  0  0  0  0  0  0  0
    1.3094   -6.3039    0.8538 O   0  0  0  0  0  0  0  0  0  0  0  0
    6.3458   -5.5831    1.4061 S   0  0  0  0  0  0  0  0  0  0  0  0
    6.2399   -4.0474    0.3888 C   0  0  0  0  0  0  0  0  0  0  0  0
    7.2899   -3.4280    0.1902 O   0  0  0  0  0  0  0  0  0  0  0  0
    4.5356    0.7022   -2.7608 H   0  0  0  0  0  0  0  0  0  0  0  0
    5.8244   -0.4660   -2.2861 H   0  0  0  0  0  0  0  0  0  0  0  0
    4.5478   -0.0493   -1.1326 H   0  0  0  0  0  0  0  0  0  0  0  0
    2.6074   -0.0769   -3.8735 H   0  0  0  0  0  0  0  0  0  0  0  0
    1.3923   -2.4281   -4.3316 H   0  0  0  0  0  0  0  0  0  0  0  0
    2.7645   -4.2496   -2.9119 H   0  0  0  0  0  0  0  0  0  0  0  0
    6.0315   -2.8589   -1.8700 H   0  0  0  0  0  0  0  0  0  0  0  0
    4.8613   -7.7304    3.1521 H   0  0  0  0  0  0  0  0  0  0  0  0
    4.3895   -5.0768    2.7353 H   0  0  0  0  0  0  0  0  0  0  0  0
    2.4603   -8.4558    2.4020 H   0  0  0  0  0  0  0  0  0  0  0  0
    4.0469   -6.1332   -0.1083 H   0  0  0  0  0  0  0  0  0  0  0  0
  1  2  1  0
  1 19  1  0
  1 20  1  0
  1 21  1  0
  2  6  1  0
  2  3  1  0
  3  4  2  0
  3 22  1  0
  4  5  1  0
  4 23  1  0
  5  6  2  0
  5 24  1  0
  6  7  1  0
  7  8  2  3
  7 25  1  0
  8 17  1  0
  8  9  1  0
  9 10  1  0
 10 11  1  0
 10 29  1  6
 10 14  1  0
 11 12  1  0
 11 16  1  0
 11 27  1  1
 12 26  1  0
 12 13  2  0
 13 14  1  0
 13 28  1  0
 14 15  2  0
 16 17  1  0
 17 18  2  0
M  END
>  <i_m_ct_stereo_status>  (315) 
1

>  <s_m_source_file>  (315) 
/var/tmp/pbs.5076255.sched01/tmpj3mqheq3/1200r5s1sfv.sdf

>  <i_m_source_file_index>  (315) 
9

>  <i_lp_mmshare_version>  (315) 
48012

>  <i_f3d_flags>  (315) 
0

>  <s_epik_input>  (315) 
W0NIM11uMVtjSF1bY0hdW2NIXWMxL1tDSF09QygvUzIpQyg9TylTQyg9QzIzKVtDSDJdW0NIMl1DMz1P

>  <s_epik_cmdline>  (315) 
J2VwaWtfcHl0aG9uJywgJy1waHQnLCAnMi4wJywgJy1waCcsICc3LjAnLCAnLXRuJywgJzgnLCAnLW1hJywgJzIwMCcsICctaW1hZScsICc8aW5maWxlLm1hZT4nLCAnLW9tYWUnLCAnPG91dGZpbGUubWFlPic=

>  <r_lp_tautomer_probability>  (315) 
0.499977

>  <r_epik_Ionization_Penalty>  (315) 
1.29059e-13

>  <r_epik_Ionization_Penalty_Charging>  (315) 
0

>  <r_epik_Ionization_Penalty_Neutral>  (315) 
1.29059e-13

>  <r_epik_State_Penalty>  (315) 
0.41068

>  <r_epik_Charging_Adjusted_Penalty>  (315) 
0.41068

>  <i_epik_Tot_Q>  (315) 
0

>  <i_epik_Tot_abs_Q>  (315) 
0

>  <s_lp_Force_Field>  (315) 
OPLS3e

>  <r_lp_Energy>  (315) 
19.3203

>  <b_lp_Chiralities_Consistent>  (315) 
1

>  <s_lp_Variant>  (315) 
94:0-4

>  <s_i_glide_gridfile>  (315) 
pfpi4k_grid

>  <i_i_glide_lignum>  (315) 
9

>  <i_i_glide_rotatable_bonds>  (315) 
1

>  <r_i_docking_score>  (315) 
-3.58787

>  <r_i_glide_ligand_efficiency>  (315) 
-0.199326

>  <r_i_glide_ligand_efficiency_sa>  (315) 
-0.522383

>  <r_i_glide_ligand_efficiency_ln>  (315) 
-0.922244

>  <r_i_glide_gscore>  (315) 
-3.58787

>  <r_i_glide_lipo>  (315) 
-0.630131

>  <r_i_glide_hbond>  (315) 
-0.108451

>  <r_i_glide_metal>  (315) 
-0

>  <r_i_glide_rewards>  (315) 
-1.65119

>  <r_i_glide_evdw>  (315) 
-16.9899

>  <r_i_glide_ecoul>  (315) 
-3.60993

>  <r_i_glide_erotb>  (315) 
0.234075

>  <r_i_glide_esite>  (315) 
-0.0411861

>  <r_i_glide_emodel>  (315) 
-23.1949

>  <r_i_glide_energy>  (315) 
-20.5999

>  <r_i_glide_einternal>  (315) 
3.79754

>  <r_i_glide_intrahb_reward>  (315) 
-0

>  <i_i_glide_confnum>  (315) 
5

>  <i_i_glide_posenum>  (315) 
6

>  <r_i_glide_eff_state_penalty>  (315) 
0

>  <ligand_id>  (315) 
94

>  <original_smiles>  (315) 
Cn1cccc1C=C1SC2=C(CCC2=O)SC1=O

>  <smiles>  (315) 
[H]C1=C([H])C2([H])SC(=O)C(=C([H])c3c([H])c([H])c([H])n3C([H])([H])[H])SC2([H])C1=O

$$$$
94:3:1
     RDKit          3D

 29 31  0  0  1  0  0  0  0  0999 V2000
   -2.1341    2.9492    2.8773 C   0  0  0  0  0  0  0  0  0  0  0  0
   -1.7717    2.5831    4.2398 N   0  0  0  0  0  0  0  0  0  0  0  0
   -2.4960    2.9469    5.3629 C   0  0  0  0  0  0  0  0  0  0  0  0
   -1.8881    2.4229    6.4634 C   0  0  0  0  0  0  0  0  0  0  0  0
   -0.7472    1.7116    6.0090 C   0  0  0  0  0  0  0  0  0  0  0  0
   -0.6665    1.8369    4.6447 C   0  0  0  0  0  0  0  0  0  0  0  0
    0.2555    1.2981    3.6737 C   0  0  0  0  0  0  0  0  0  0  0  0
    1.0908    0.2343    3.7553 C   0  0  0  0  0  0  0  0  0  0  0  0
    1.0409   -0.8105    5.1861 S   0  0  0  0  0  0  0  0  0  0  0  0
    0.8296   -2.3510    4.3229 C   0  0  1  0  0  0  0  0  0  0  0  0
    2.1210   -2.7312    3.6289 C   0  0  1  0  0  0  0  0  0  0  0  0
    1.9888   -4.2402    3.5704 C   0  0  0  0  0  0  0  0  0  0  0  0
    1.1124   -4.7190    4.4676 C   0  0  0  0  0  0  0  0  0  0  0  0
    0.5003   -3.5786    5.1425 C   0  0  0  0  0  0  0  0  0  0  0  0
   -0.2124   -3.5719    6.1471 O   0  0  0  0  0  0  0  0  0  0  0  0
    2.3384   -1.8161    2.0721 S   0  0  0  0  0  0  0  0  0  0  0  0
    1.9253   -0.0820    2.5543 C   0  0  0  0  0  0  0  0  0  0  0  0
    2.3412    0.8096    1.8139 O   0  0  0  0  0  0  0  0  0  0  0  0
   -3.1267    3.4011    2.8630 H   0  0  0  0  0  0  0  0  0  0  0  0
   -2.1478    2.0649    2.2398 H   0  0  0  0  0  0  0  0  0  0  0  0
   -1.4114    3.6671    2.4866 H   0  0  0  0  0  0  0  0  0  0  0  0
   -3.3868    3.5451    5.2832 H   0  0  0  0  0  0  0  0  0  0  0  0
   -2.2242    2.5447    7.4822 H   0  0  0  0  0  0  0  0  0  0  0  0
   -0.0425    1.1855    6.6355 H   0  0  0  0  0  0  0  0  0  0  0  0
    0.2844    1.8614    2.7511 H   0  0  0  0  0  0  0  0  0  0  0  0
    2.5825   -4.8418    2.8994 H   0  0  0  0  0  0  0  0  0  0  0  0
    2.9842   -2.5186    4.2647 H   0  0  0  0  0  0  0  0  0  0  0  0
    0.8532   -5.7540    4.6550 H   0  0  0  0  0  0  0  0  0  0  0  0
    0.0214   -2.2173    3.6040 H   0  0  0  0  0  0  0  0  0  0  0  0
  1  2  1  0
  1 19  1  0
  1 20  1  0
  1 21  1  0
  2  6  1  0
  2  3  1  0
  3  4  2  0
  3 22  1  0
  4  5  1  0
  4 23  1  0
  5  6  2  0
  5 24  1  0
  6  7  1  0
  7  8  2  3
  7 25  1  0
  8 17  1  0
  8  9  1  0
  9 10  1  0
 10 11  1  0
 10 29  1  6
 10 14  1  0
 11 12  1  0
 11 16  1  0
 11 27  1  1
 12 26  1  0
 12 13  2  0
 13 14  1  0
 13 28  1  0
 14 15  2  0
 16 17  1  0
 17 18  2  0
M  END
>  <i_m_ct_stereo_status>  (316) 
1

>  <s_m_source_file>  (316) 
/var/tmp/pbs.5076255.sched01/tmpj3mqheq3/1200r5s1sfv.sdf

>  <i_m_source_file_index>  (316) 
9

>  <i_lp_mmshare_version>  (316) 
48012

>  <i_f3d_flags>  (316) 
0

>  <s_epik_input>  (316) 
W0NIM11uMVtjSF1bY0hdW2NIXWMxL1tDSF09QygvUzIpQyg9TylTQyg9QzIzKVtDSDJdW0NIMl1DMz1P

>  <s_epik_cmdline>  (316) 
J2VwaWtfcHl0aG9uJywgJy1waHQnLCAnMi4wJywgJy1waCcsICc3LjAnLCAnLXRuJywgJzgnLCAnLW1hJywgJzIwMCcsICctaW1hZScsICc8aW5maWxlLm1hZT4nLCAnLW9tYWUnLCAnPG91dGZpbGUubWFlPic=

>  <r_lp_tautomer_probability>  (316) 
0.499977

>  <r_epik_Ionization_Penalty>  (316) 
1.29059e-13

>  <r_epik_Ionization_Penalty_Charging>  (316) 
0

>  <r_epik_Ionization_Penalty_Neutral>  (316) 
1.29059e-13

>  <r_epik_State_Penalty>  (316) 
0.41068

>  <r_epik_Charging_Adjusted_Penalty>  (316) 
0.41068

>  <i_epik_Tot_Q>  (316) 
0

>  <i_epik_Tot_abs_Q>  (316) 
0

>  <s_lp_Force_Field>  (316) 
OPLS3e

>  <r_lp_Energy>  (316) 
19.3203

>  <b_lp_Chiralities_Consistent>  (316) 
1

>  <s_lp_Variant>  (316) 
94:0-4

>  <s_i_glide_gridfile>  (316) 
pfpi4k_grid

>  <i_i_glide_lignum>  (316) 
9

>  <i_i_glide_rotatable_bonds>  (316) 
1

>  <r_i_docking_score>  (316) 
-2.70345

>  <r_i_glide_ligand_efficiency>  (316) 
-0.150192

>  <r_i_glide_ligand_efficiency_sa>  (316) 
-0.393614

>  <r_i_glide_ligand_efficiency_ln>  (316) 
-0.694908

>  <r_i_glide_gscore>  (316) 
-2.70345

>  <r_i_glide_lipo>  (316) 
-0.0605019

>  <r_i_glide_hbond>  (316) 
0

>  <r_i_glide_metal>  (316) 
-0

>  <r_i_glide_rewards>  (316) 
-1.51797

>  <r_i_glide_evdw>  (316) 
-18.8647

>  <r_i_glide_ecoul>  (316) 
-2.4388

>  <r_i_glide_erotb>  (316) 
0.234075

>  <r_i_glide_esite>  (316) 
-0.049998

>  <r_i_glide_emodel>  (316) 
-24.7781

>  <r_i_glide_energy>  (316) 
-21.3035

>  <r_i_glide_einternal>  (316) 
0.303939

>  <r_i_glide_intrahb_reward>  (316) 
-0

>  <i_i_glide_confnum>  (316) 
5

>  <i_i_glide_posenum>  (316) 
20

>  <r_i_glide_eff_state_penalty>  (316) 
0

>  <ligand_id>  (316) 
94

>  <original_smiles>  (316) 
Cn1cccc1C=C1SC2=C(CCC2=O)SC1=O

>  <smiles>  (316) 
[H]C1=C([H])C2([H])SC(=O)C(=C([H])c3c([H])c([H])c([H])n3C([H])([H])[H])SC2([H])C1=O

$$$$
94:3:2
     RDKit          3D

 29 31  0  0  1  0  0  0  0  0999 V2000
    0.0145    1.7356    1.8838 C   0  0  0  0  0  0  0  0  0  0  0  0
    0.0315    0.6524    2.8519 N   0  0  0  0  0  0  0  0  0  0  0  0
   -0.9867    0.4271    3.7694 C   0  0  0  0  0  0  0  0  0  0  0  0
   -0.6672   -0.6763    4.5007 C   0  0  0  0  0  0  0  0  0  0  0  0
    0.5859   -1.1416    4.0370 C   0  0  0  0  0  0  0  0  0  0  0  0
    1.0232   -0.3094    3.0342 C   0  0  0  0  0  0  0  0  0  0  0  0
    2.1979   -0.3297    2.1883 C   0  0  0  0  0  0  0  0  0  0  0  0
    3.1230   -1.3011    1.9777 C   0  0  0  0  0  0  0  0  0  0  0  0
    2.9255   -2.8892    2.7349 S   0  0  0  0  0  0  0  0  0  0  0  0
    3.0828   -3.8554    1.2481 C   0  0  1  0  0  0  0  0  0  0  0  0
    4.5305   -3.8479    0.8036 C   0  0  1  0  0  0  0  0  0  0  0  0
    4.6194   -5.1711    0.0710 C   0  0  0  0  0  0  0  0  0  0  0  0
    3.6457   -6.0237    0.4257 C   0  0  0  0  0  0  0  0  0  0  0  0
    2.7454   -5.3261    1.3344 C   0  0  0  0  0  0  0  0  0  0  0  0
    1.8154   -5.7824    2.0016 O   0  0  0  0  0  0  0  0  0  0  0  0
    4.9360   -2.3150   -0.1022 S   0  0  0  0  0  0  0  0  0  0  0  0
    4.2116   -1.0120    0.9954 C   0  0  0  0  0  0  0  0  0  0  0  0
    4.6498    0.1291    0.8594 O   0  0  0  0  0  0  0  0  0  0  0  0
   -0.9608    2.2163    1.8929 H   0  0  0  0  0  0  0  0  0  0  0  0
    0.2086    1.3533    0.8819 H   0  0  0  0  0  0  0  0  0  0  0  0
    0.7765    2.4683    2.1461 H   0  0  0  0  0  0  0  0  0  0  0  0
   -1.8555    1.0643    3.8083 H   0  0  0  0  0  0  0  0  0  0  0  0
   -1.2713   -1.1078    5.2820 H   0  0  0  0  0  0  0  0  0  0  0  0
    1.1051   -2.0070    4.4212 H   0  0  0  0  0  0  0  0  0  0  0  0
    2.3493    0.5859    1.6395 H   0  0  0  0  0  0  0  0  0  0  0  0
    5.4072   -5.3885   -0.6327 H   0  0  0  0  0  0  0  0  0  0  0  0
    5.1963   -3.9322    1.6692 H   0  0  0  0  0  0  0  0  0  0  0  0
    3.4969   -7.0336    0.0781 H   0  0  0  0  0  0  0  0  0  0  0  0
    2.4305   -3.4159    0.4918 H   0  0  0  0  0  0  0  0  0  0  0  0
  1  2  1  0
  1 19  1  0
  1 20  1  0
  1 21  1  0
  2  6  1  0
  2  3  1  0
  3  4  2  0
  3 22  1  0
  4  5  1  0
  4 23  1  0
  5  6  2  0
  5 24  1  0
  6  7  1  0
  7  8  2  3
  7 25  1  0
  8 17  1  0
  8  9  1  0
  9 10  1  0
 10 11  1  0
 10 29  1  6
 10 14  1  0
 11 12  1  0
 11 16  1  0
 11 27  1  1
 12 26  1  0
 12 13  2  0
 13 14  1  0
 13 28  1  0
 14 15  2  0
 16 17  1  0
 17 18  2  0
M  END
>  <i_m_ct_stereo_status>  (317) 
1

>  <s_m_source_file>  (317) 
/var/tmp/pbs.5076255.sched01/tmpj3mqheq3/1200r5s1sfv.sdf

>  <i_m_source_file_index>  (317) 
9

>  <i_lp_mmshare_version>  (317) 
48012

>  <i_f3d_flags>  (317) 
0

>  <s_epik_input>  (317) 
W0NIM11uMVtjSF1bY0hdW2NIXWMxL1tDSF09QygvUzIpQyg9TylTQyg9QzIzKVtDSDJdW0NIMl1DMz1P

>  <s_epik_cmdline>  (317) 
J2VwaWtfcHl0aG9uJywgJy1waHQnLCAnMi4wJywgJy1waCcsICc3LjAnLCAnLXRuJywgJzgnLCAnLW1hJywgJzIwMCcsICctaW1hZScsICc8aW5maWxlLm1hZT4nLCAnLW9tYWUnLCAnPG91dGZpbGUubWFlPic=

>  <r_lp_tautomer_probability>  (317) 
0.499977

>  <r_epik_Ionization_Penalty>  (317) 
1.29059e-13

>  <r_epik_Ionization_Penalty_Charging>  (317) 
0

>  <r_epik_Ionization_Penalty_Neutral>  (317) 
1.29059e-13

>  <r_epik_State_Penalty>  (317) 
0.41068

>  <r_epik_Charging_Adjusted_Penalty>  (317) 
0.41068

>  <i_epik_Tot_Q>  (317) 
0

>  <i_epik_Tot_abs_Q>  (317) 
0

>  <s_lp_Force_Field>  (317) 
OPLS3e

>  <r_lp_Energy>  (317) 
19.3203

>  <b_lp_Chiralities_Consistent>  (317) 
1

>  <s_lp_Variant>  (317) 
94:0-4

>  <s_i_glide_gridfile>  (317) 
pfpi4k_grid

>  <i_i_glide_lignum>  (317) 
9

>  <i_i_glide_rotatable_bonds>  (317) 
1

>  <r_i_docking_score>  (317) 
-2.59634

>  <r_i_glide_ligand_efficiency>  (317) 
-0.144241

>  <r_i_glide_ligand_efficiency_sa>  (317) 
-0.378018

>  <r_i_glide_ligand_efficiency_ln>  (317) 
-0.667375

>  <r_i_glide_gscore>  (317) 
-2.59634

>  <r_i_glide_lipo>  (317) 
-0.0625219

>  <r_i_glide_hbond>  (317) 
-0.0344674

>  <r_i_glide_metal>  (317) 
-0

>  <r_i_glide_rewards>  (317) 
-1.54783

>  <r_i_glide_evdw>  (317) 
-20.6748

>  <r_i_glide_ecoul>  (317) 
-0.6374

>  <r_i_glide_erotb>  (317) 
0.234075

>  <r_i_glide_esite>  (317) 
-0.056244

>  <r_i_glide_emodel>  (317) 
-24.7709

>  <r_i_glide_energy>  (317) 
-21.3122

>  <r_i_glide_einternal>  (317) 
0.0933892

>  <r_i_glide_intrahb_reward>  (317) 
-0

>  <i_i_glide_confnum>  (317) 
4

>  <i_i_glide_posenum>  (317) 
35

>  <r_i_glide_eff_state_penalty>  (317) 
0

>  <ligand_id>  (317) 
94

>  <original_smiles>  (317) 
Cn1cccc1C=C1SC2=C(CCC2=O)SC1=O

>  <smiles>  (317) 
[H]C1=C([H])C2([H])SC(=O)C(=C([H])c3c([H])c([H])c([H])n3C([H])([H])[H])SC2([H])C1=O

$$$$
94:4:0
     RDKit          3D

 29 31  0  0  1  0  0  0  0  0999 V2000
    3.0094   -3.3354   -1.6140 C   0  0  0  0  0  0  0  0  0  0  0  0
    3.3802   -2.2362   -2.4777 N   0  0  0  0  0  0  0  0  0  0  0  0
    3.0331   -2.1517   -3.8134 C   0  0  0  0  0  0  0  0  0  0  0  0
    3.4696   -0.9585   -4.2956 C   0  0  0  0  0  0  0  0  0  0  0  0
    4.1023   -0.2697   -3.2197 C   0  0  0  0  0  0  0  0  0  0  0  0
    4.0917   -1.0820   -2.1360 C   0  0  0  0  0  0  0  0  0  0  0  0
    4.6157   -0.8487   -0.8161 C   0  0  0  0  0  0  0  0  0  0  0  0
    5.4636   -1.5568   -0.0551 C   0  0  0  0  0  0  0  0  0  0  0  0
    5.7337   -1.0483    1.6016 S   0  0  0  0  0  0  0  0  0  0  0  0
    5.0695   -2.4372    2.5609 C   0  0  2  0  0  0  0  0  0  0  0  0
    5.3372   -3.8538    1.9749 C   0  0  1  0  0  0  0  0  0  0  0  0
    3.9510   -4.3811    1.6418 C   0  0  0  0  0  0  0  0  0  0  0  0
    2.9596   -3.5481    1.9691 C   0  0  0  0  0  0  0  0  0  0  0  0
    3.5499   -2.3502    2.5511 C   0  0  0  0  0  0  0  0  0  0  0  0
    2.9595   -1.3539    2.9575 O   0  0  0  0  0  0  0  0  0  0  0  0
    6.5669   -4.0557    0.5999 S   0  0  0  0  0  0  0  0  0  0  0  0
    6.1598   -2.7357   -0.5608 C   0  0  0  0  0  0  0  0  0  0  0  0
    6.5158   -2.8306   -1.7318 O   0  0  0  0  0  0  0  0  0  0  0  0
    2.2841   -3.9739   -2.1174 H   0  0  0  0  0  0  0  0  0  0  0  0
    2.5508   -2.9506   -0.7051 H   0  0  0  0  0  0  0  0  0  0  0  0
    3.8798   -3.9417   -1.3710 H   0  0  0  0  0  0  0  0  0  0  0  0
    2.4686   -2.9509   -4.2908 H   0  0  0  0  0  0  0  0  0  0  0  0
    3.3192   -0.6159   -5.3132 H   0  0  0  0  0  0  0  0  0  0  0  0
    4.5382    0.7217   -3.2403 H   0  0  0  0  0  0  0  0  0  0  0  0
    4.1616    0.0015   -0.3266 H   0  0  0  0  0  0  0  0  0  0  0  0
    3.7985   -5.3488    1.2018 H   0  0  0  0  0  0  0  0  0  0  0  0
    5.6915   -4.4983    2.7850 H   0  0  0  0  0  0  0  0  0  0  0  0
    1.9002   -3.6888    1.8299 H   0  0  0  0  0  0  0  0  0  0  0  0
    5.4354   -2.3670    3.5924 H   0  0  0  0  0  0  0  0  0  0  0  0
  1  2  1  0
  1 19  1  0
  1 20  1  0
  1 21  1  0
  2  6  1  0
  2  3  1  0
  3  4  2  0
  3 22  1  0
  4  5  1  0
  4 23  1  0
  5  6  2  0
  5 24  1  0
  6  7  1  0
  7  8  2  3
  7 25  1  0
  8 17  1  0
  8  9  1  0
  9 10  1  0
 10 11  1  0
 10 29  1  1
 10 14  1  0
 11 12  1  0
 11 16  1  0
 11 27  1  1
 12 26  1  0
 12 13  2  0
 13 14  1  0
 13 28  1  0
 14 15  2  0
 16 17  1  0
 17 18  2  0
M  END
>  <i_m_ct_stereo_status>  (318) 
1

>  <s_m_source_file>  (318) 
/var/tmp/pbs.5076255.sched01/tmpj3mqheq3/1200r5s1sfv.sdf

>  <i_m_source_file_index>  (318) 
10

>  <i_lp_mmshare_version>  (318) 
48012

>  <i_f3d_flags>  (318) 
0

>  <s_epik_input>  (318) 
W0NIM11uMVtjSF1bY0hdW2NIXWMxL1tDSF09QygvUzIpQyg9TylTQyg9QzIzKVtDSDJdW0NIMl1DMz1P

>  <s_epik_cmdline>  (318) 
J2VwaWtfcHl0aG9uJywgJy1waHQnLCAnMi4wJywgJy1waCcsICc3LjAnLCAnLXRuJywgJzgnLCAnLW1hJywgJzIwMCcsICctaW1hZScsICc8aW5maWxlLm1hZT4nLCAnLW9tYWUnLCAnPG91dGZpbGUubWFlPic=

>  <r_lp_tautomer_probability>  (318) 
0.499977

>  <r_epik_Ionization_Penalty>  (318) 
1.29059e-13

>  <r_epik_Ionization_Penalty_Charging>  (318) 
0

>  <r_epik_Ionization_Penalty_Neutral>  (318) 
1.29059e-13

>  <r_epik_State_Penalty>  (318) 
0.41068

>  <r_epik_Charging_Adjusted_Penalty>  (318) 
0.41068

>  <i_epik_Tot_Q>  (318) 
0

>  <i_epik_Tot_abs_Q>  (318) 
0

>  <s_lp_Force_Field>  (318) 
OPLS3e

>  <r_lp_Energy>  (318) 
14.1693

>  <b_lp_Chiralities_Consistent>  (318) 
1

>  <s_lp_Variant>  (318) 
94:0-5

>  <s_i_glide_gridfile>  (318) 
pfpi4k_grid

>  <i_i_glide_lignum>  (318) 
10

>  <i_i_glide_rotatable_bonds>  (318) 
1

>  <r_i_docking_score>  (318) 
-3.85913

>  <r_i_glide_ligand_efficiency>  (318) 
-0.214396

>  <r_i_glide_ligand_efficiency_sa>  (318) 
-0.561877

>  <r_i_glide_ligand_efficiency_ln>  (318) 
-0.99197

>  <r_i_glide_gscore>  (318) 
-3.85913

>  <r_i_glide_lipo>  (318) 
-0.933678

>  <r_i_glide_hbond>  (318) 
0

>  <r_i_glide_metal>  (318) 
-0

>  <r_i_glide_rewards>  (318) 
-1.51797

>  <r_i_glide_evdw>  (318) 
-26.1888

>  <r_i_glide_ecoul>  (318) 
-1.98421

>  <r_i_glide_erotb>  (318) 
0.234075

>  <r_i_glide_esite>  (318) 
-0.0344866

>  <r_i_glide_emodel>  (318) 
-31.8707

>  <r_i_glide_energy>  (318) 
-28.173

>  <r_i_glide_einternal>  (318) 
4.41382

>  <r_i_glide_intrahb_reward>  (318) 
-0

>  <i_i_glide_confnum>  (318) 
5

>  <i_i_glide_posenum>  (318) 
31

>  <r_i_glide_eff_state_penalty>  (318) 
0

>  <ligand_id>  (318) 
94

>  <original_smiles>  (318) 
Cn1cccc1C=C1SC2=C(CCC2=O)SC1=O

>  <smiles>  (318) 
[H]C1=C([H])C2([H])SC(=O)C(=C([H])c3c([H])c([H])c([H])n3C([H])([H])[H])SC2([H])C1=O

$$$$
94:4:1
     RDKit          3D

 29 31  0  0  1  0  0  0  0  0999 V2000
    3.1656   -0.3219   -3.2752 C   0  0  0  0  0  0  0  0  0  0  0  0
    3.7562   -1.6549   -3.2433 N   0  0  0  0  0  0  0  0  0  0  0  0
    3.5746   -2.5705   -4.2557 C   0  0  0  0  0  0  0  0  0  0  0  0
    4.2190   -3.7182   -3.9248 C   0  0  0  0  0  0  0  0  0  0  0  0
    4.7828   -3.5427   -2.6597 C   0  0  0  0  0  0  0  0  0  0  0  0
    4.5365   -2.2469   -2.2436 C   0  0  0  0  0  0  0  0  0  0  0  0
    4.8519   -1.5327   -1.0307 C   0  0  0  0  0  0  0  0  0  0  0  0
    5.4281   -1.8808    0.1448 C   0  0  0  0  0  0  0  0  0  0  0  0
    5.5168   -0.6546    1.3988 S   0  0  0  0  0  0  0  0  0  0  0  0
    4.4541   -1.3230    2.6966 C   0  0  2  0  0  0  0  0  0  0  0  0
    4.4342   -2.8675    2.8870 C   0  0  1  0  0  0  0  0  0  0  0  0
    3.0456   -3.2943    2.4756 C   0  0  0  0  0  0  0  0  0  0  0  0
    2.2521   -2.2735    2.1339 C   0  0  0  0  0  0  0  0  0  0  0  0
    3.0156   -1.0377    2.2752 C   0  0  0  0  0  0  0  0  0  0  0  0
    2.6164    0.0932    2.0428 O   0  0  0  0  0  0  0  0  0  0  0  0
    5.7508   -3.9024    2.1250 S   0  0  0  0  0  0  0  0  0  0  0  0
    5.9922   -3.1878    0.4723 C   0  0  0  0  0  0  0  0  0  0  0  0
    6.7240   -3.8125   -0.3228 O   0  0  0  0  0  0  0  0  0  0  0  0
    2.7376   -0.1339   -4.2673 H   0  0  0  0  0  0  0  0  0  0  0  0
    3.9228    0.4382   -3.0757 H   0  0  0  0  0  0  0  0  0  0  0  0
    2.3630   -0.2523   -2.5367 H   0  0  0  0  0  0  0  0  0  0  0  0
    3.0057   -2.3282   -5.1089 H   0  0  0  0  0  0  0  0  0  0  0  0
    4.2447   -4.6271   -4.5160 H   0  0  0  0  0  0  0  0  0  0  0  0
    5.3106   -4.3259   -2.1339 H   0  0  0  0  0  0  0  0  0  0  0  0
    4.5424   -0.4945   -1.0389 H   0  0  0  0  0  0  0  0  0  0  0  0
    2.7696   -4.3361    2.4806 H   0  0  0  0  0  0  0  0  0  0  0  0
    4.5196   -3.0764    3.9588 H   0  0  0  0  0  0  0  0  0  0  0  0
    1.2275   -2.3220    1.8172 H   0  0  0  0  0  0  0  0  0  0  0  0
    4.6587   -0.8045    3.6380 H   0  0  0  0  0  0  0  0  0  0  0  0
  1  2  1  0
  1 19  1  0
  1 20  1  0
  1 21  1  0
  2  6  1  0
  2  3  1  0
  3  4  2  0
  3 22  1  0
  4  5  1  0
  4 23  1  0
  5  6  2  0
  5 24  1  0
  6  7  1  0
  7  8  2  3
  7 25  1  0
  8 17  1  0
  8  9  1  0
  9 10  1  0
 10 11  1  0
 10 29  1  1
 10 14  1  0
 11 12  1  0
 11 16  1  0
 11 27  1  1
 12 26  1  0
 12 13  2  0
 13 14  1  0
 13 28  1  0
 14 15  2  0
 16 17  1  0
 17 18  2  0
M  END
>  <i_m_ct_stereo_status>  (319) 
1

>  <s_m_source_file>  (319) 
/var/tmp/pbs.5076255.sched01/tmpj3mqheq3/1200r5s1sfv.sdf

>  <i_m_source_file_index>  (319) 
10

>  <i_lp_mmshare_version>  (319) 
48012

>  <i_f3d_flags>  (319) 
0

>  <s_epik_input>  (319) 
W0NIM11uMVtjSF1bY0hdW2NIXWMxL1tDSF09QygvUzIpQyg9TylTQyg9QzIzKVtDSDJdW0NIMl1DMz1P

>  <s_epik_cmdline>  (319) 
J2VwaWtfcHl0aG9uJywgJy1waHQnLCAnMi4wJywgJy1waCcsICc3LjAnLCAnLXRuJywgJzgnLCAnLW1hJywgJzIwMCcsICctaW1hZScsICc8aW5maWxlLm1hZT4nLCAnLW9tYWUnLCAnPG91dGZpbGUubWFlPic=

>  <r_lp_tautomer_probability>  (319) 
0.499977

>  <r_epik_Ionization_Penalty>  (319) 
1.29059e-13

>  <r_epik_Ionization_Penalty_Charging>  (319) 
0

>  <r_epik_Ionization_Penalty_Neutral>  (319) 
1.29059e-13

>  <r_epik_State_Penalty>  (319) 
0.41068

>  <r_epik_Charging_Adjusted_Penalty>  (319) 
0.41068

>  <i_epik_Tot_Q>  (319) 
0

>  <i_epik_Tot_abs_Q>  (319) 
0

>  <s_lp_Force_Field>  (319) 
OPLS3e

>  <r_lp_Energy>  (319) 
14.1693

>  <b_lp_Chiralities_Consistent>  (319) 
1

>  <s_lp_Variant>  (319) 
94:0-5

>  <s_i_glide_gridfile>  (319) 
pfpi4k_grid

>  <i_i_glide_lignum>  (319) 
10

>  <i_i_glide_rotatable_bonds>  (319) 
1

>  <r_i_docking_score>  (319) 
-3.27446

>  <r_i_glide_ligand_efficiency>  (319) 
-0.181914

>  <r_i_glide_ligand_efficiency_sa>  (319) 
-0.476751

>  <r_i_glide_ligand_efficiency_ln>  (319) 
-0.841683

>  <r_i_glide_gscore>  (319) 
-3.27446

>  <r_i_glide_lipo>  (319) 
-0.404556

>  <r_i_glide_hbond>  (319) 
0

>  <r_i_glide_metal>  (319) 
-0

>  <r_i_glide_rewards>  (319) 
-1.74987

>  <r_i_glide_evdw>  (319) 
-21.6142

>  <r_i_glide_ecoul>  (319) 
-1.75272

>  <r_i_glide_erotb>  (319) 
0.234075

>  <r_i_glide_esite>  (319) 
-0.0104945

>  <r_i_glide_emodel>  (319) 
-28.1681

>  <r_i_glide_energy>  (319) 
-23.3669

>  <r_i_glide_einternal>  (319) 
0.207475

>  <r_i_glide_intrahb_reward>  (319) 
-0

>  <i_i_glide_confnum>  (319) 
5

>  <i_i_glide_posenum>  (319) 
1

>  <r_i_glide_eff_state_penalty>  (319) 
0

>  <ligand_id>  (319) 
94

>  <original_smiles>  (319) 
Cn1cccc1C=C1SC2=C(CCC2=O)SC1=O

>  <smiles>  (319) 
[H]C1=C([H])C2([H])SC(=O)C(=C([H])c3c([H])c([H])c([H])n3C([H])([H])[H])SC2([H])C1=O

$$$$
94:5:0
     RDKit          3D

 29 31  0  0  1  0  0  0  0  0999 V2000
    4.9411   -1.0577    0.1149 C   0  0  0  0  0  0  0  0  0  0  0  0
    4.6163   -1.8868   -1.0357 N   0  0  0  0  0  0  0  0  0  0  0  0
    3.6634   -1.5559   -1.9878 C   0  0  0  0  0  0  0  0  0  0  0  0
    3.6625   -2.4750   -2.9816 C   0  0  0  0  0  0  0  0  0  0  0  0
    4.6361   -3.4566   -2.6457 C   0  0  0  0  0  0  0  0  0  0  0  0
    5.1896   -3.0926   -1.4414 C   0  0  0  0  0  0  0  0  0  0  0  0
    6.2271   -3.7367   -0.7083 C   0  0  0  0  0  0  0  0  0  0  0  0
    6.2732   -4.1872    0.5671 C   0  0  0  0  0  0  0  0  0  0  0  0
    4.8851   -4.0147    1.6679 S   0  0  0  0  0  0  0  0  0  0  0  0
    4.5243   -5.6975    2.1789 C   0  0  2  0  0  0  0  0  0  0  0  0
    5.7512   -6.6485    2.3892 C   0  0  1  0  0  0  0  0  0  0  0  0
    5.6378   -7.6422    1.2499 C   0  0  0  0  0  0  0  0  0  0  0  0
    4.5436   -7.4942    0.4750 C   0  0  0  0  0  0  0  0  0  0  0  0
    3.7793   -6.3590    1.0057 C   0  0  0  0  0  0  0  0  0  0  0  0
    2.7291   -5.9185    0.5650 O   0  0  0  0  0  0  0  0  0  0  0  0
    7.4453   -5.9055    2.5110 S   0  0  0  0  0  0  0  0  0  0  0  0
    7.5371   -4.7776    1.0742 C   0  0  0  0  0  0  0  0  0  0  0  0
    8.6564   -4.4676    0.6254 O   0  0  0  0  0  0  0  0  0  0  0  0
    4.2450   -0.2041    0.1216 H   0  0  0  0  0  0  0  0  0  0  0  0
    5.9672   -0.6758   -0.0103 H   0  0  0  0  0  0  0  0  0  0  0  0
    4.8412   -1.5637    1.0524 H   0  0  0  0  0  0  0  0  0  0  0  0
    3.0528   -0.6820   -1.8701 H   0  0  0  0  0  0  0  0  0  0  0  0
    3.0048   -2.4321   -3.8571 H   0  0  0  0  0  0  0  0  0  0  0  0
    4.9142   -4.3304   -3.2367 H   0  0  0  0  0  0  0  0  0  0  0  0
    7.1444   -3.8016   -1.2751 H   0  0  0  0  0  0  0  0  0  0  0  0
    6.4036   -8.4113    1.0836 H   0  0  0  0  0  0  0  0  0  0  0  0
    5.5851   -7.2233    3.2976 H   0  0  0  0  0  0  0  0  0  0  0  0
    4.2955   -8.0732   -0.4137 H   0  0  0  0  0  0  0  0  0  0  0  0
    3.8567   -5.7133    3.0388 H   0  0  0  0  0  0  0  0  0  0  0  0
  1  2  1  0
  1 19  1  0
  1 20  1  0
  1 21  1  0
  2  6  1  0
  2  3  1  0
  3  4  2  0
  3 22  1  0
  4  5  1  0
  4 23  1  0
  5  6  2  0
  5 24  1  0
  6  7  1  0
  7  8  2  3
  7 25  1  0
  8 17  1  0
  8  9  1  0
  9 10  1  0
 10 11  1  0
 10 29  1  1
 10 14  1  0
 11 12  1  0
 11 16  1  0
 11 27  1  1
 12 26  1  0
 12 13  2  0
 13 14  1  0
 13 28  1  0
 14 15  2  0
 16 17  1  0
 17 18  2  0
M  END
>  <i_m_ct_stereo_status>  (320) 
1

>  <s_m_source_file>  (320) 
/var/tmp/pbs.5076255.sched01/tmpj3mqheq3/1200r5s1sfv.sdf

>  <i_m_source_file_index>  (320) 
11

>  <i_lp_mmshare_version>  (320) 
48012

>  <i_f3d_flags>  (320) 
0

>  <s_epik_input>  (320) 
W0NIM11uMVtjSF1bY0hdW2NIXWMxL1tDSF09QygvUzIpQyg9TylTQyg9QzIzKVtDSDJdW0NIMl1DMz1P

>  <s_epik_cmdline>  (320) 
J2VwaWtfcHl0aG9uJywgJy1waHQnLCAnMi4wJywgJy1waCcsICc3LjAnLCAnLXRuJywgJzgnLCAnLW1hJywgJzIwMCcsICctaW1hZScsICc8aW5maWxlLm1hZT4nLCAnLW9tYWUnLCAnPG91dGZpbGUubWFlPic=

>  <r_lp_tautomer_probability>  (320) 
0.499977

>  <r_epik_Ionization_Penalty>  (320) 
1.29059e-13

>  <r_epik_Ionization_Penalty_Charging>  (320) 
0

>  <r_epik_Ionization_Penalty_Neutral>  (320) 
1.29059e-13

>  <r_epik_State_Penalty>  (320) 
0.41068

>  <r_epik_Charging_Adjusted_Penalty>  (320) 
0.41068

>  <i_epik_Tot_Q>  (320) 
0

>  <i_epik_Tot_abs_Q>  (320) 
0

>  <s_lp_Force_Field>  (320) 
OPLS3e

>  <r_lp_Energy>  (320) 
12.5623

>  <b_lp_Chiralities_Consistent>  (320) 
1

>  <s_lp_Variant>  (320) 
94:0-6

>  <s_i_glide_gridfile>  (320) 
pfpi4k_grid

>  <i_i_glide_lignum>  (320) 
11

>  <i_i_glide_rotatable_bonds>  (320) 
1

>  <r_i_docking_score>  (320) 
-3.39313

>  <r_i_glide_ligand_efficiency>  (320) 
-0.188507

>  <r_i_glide_ligand_efficiency_sa>  (320) 
-0.494029

>  <r_i_glide_ligand_efficiency_ln>  (320) 
-0.872187

>  <r_i_glide_gscore>  (320) 
-3.39313

>  <r_i_glide_lipo>  (320) 
-0.582096

>  <r_i_glide_hbond>  (320) 
0

>  <r_i_glide_metal>  (320) 
-0

>  <r_i_glide_rewards>  (320) 
-1.78212

>  <r_i_glide_evdw>  (320) 
-23.9519

>  <r_i_glide_ecoul>  (320) 
-0.233818

>  <r_i_glide_erotb>  (320) 
0.234075

>  <r_i_glide_esite>  (320) 
-0.030323

>  <r_i_glide_emodel>  (320) 
-26.2255

>  <r_i_glide_energy>  (320) 
-24.1857

>  <r_i_glide_einternal>  (320) 
4.87913

>  <r_i_glide_intrahb_reward>  (320) 
-0

>  <i_i_glide_confnum>  (320) 
5

>  <i_i_glide_posenum>  (320) 
20

>  <r_i_glide_eff_state_penalty>  (320) 
0

>  <ligand_id>  (320) 
94

>  <original_smiles>  (320) 
Cn1cccc1C=C1SC2=C(CCC2=O)SC1=O

>  <smiles>  (320) 
[H]C1=C([H])C2([H])SC(=O)C(=C([H])c3c([H])c([H])c([H])n3C([H])([H])[H])SC2([H])C1=O

$$$$
94:5:1
     RDKit          3D

 29 31  0  0  1  0  0  0  0  0999 V2000
    6.6828   -3.7703    1.1348 C   0  0  0  0  0  0  0  0  0  0  0  0
    5.7733   -4.8778    1.2306 N   0  0  0  0  0  0  0  0  0  0  0  0
    5.5863   -5.6317    2.3762 C   0  0  0  0  0  0  0  0  0  0  0  0
    4.7077   -6.6349    2.1000 C   0  0  0  0  0  0  0  0  0  0  0  0
    4.3161   -6.4776    0.7310 C   0  0  0  0  0  0  0  0  0  0  0  0
    4.9240   -5.3611    0.2405 C   0  0  0  0  0  0  0  0  0  0  0  0
    4.8862   -4.7698   -1.0725 C   0  0  0  0  0  0  0  0  0  0  0  0
    4.0940   -3.8153   -1.5976 C   0  0  0  0  0  0  0  0  0  0  0  0
    2.8850   -3.0497   -0.5810 S   0  0  0  0  0  0  0  0  0  0  0  0
    3.3850   -1.3115   -0.6971 C   0  0  2  0  0  0  0  0  0  0  0  0
    3.9688   -0.8495   -2.0500 C   0  0  1  0  0  0  0  0  0  0  0  0
    5.4135   -0.6390   -1.6987 C   0  0  0  0  0  0  0  0  0  0  0  0
    5.7208   -0.7526   -0.4110 C   0  0  0  0  0  0  0  0  0  0  0  0
    4.4993   -1.0741    0.2949 C   0  0  0  0  0  0  0  0  0  0  0  0
    4.3806   -1.1681    1.5199 O   0  0  0  0  0  0  0  0  0  0  0  0
    3.7055   -1.8330   -3.5786 S   0  0  0  0  0  0  0  0  0  0  0  0
    4.2547   -3.4552   -3.0391 C   0  0  0  0  0  0  0  0  0  0  0  0
    4.6872   -4.2195   -3.9043 O   0  0  0  0  0  0  0  0  0  0  0  0
    7.2489   -3.6799    2.0613 H   0  0  0  0  0  0  0  0  0  0  0  0
    6.0909   -2.8756    1.0325 H   0  0  0  0  0  0  0  0  0  0  0  0
    7.3604   -3.8788    0.2787 H   0  0  0  0  0  0  0  0  0  0  0  0
    6.1044   -5.3864    3.2965 H   0  0  0  0  0  0  0  0  0  0  0  0
    4.3930   -7.4098    2.7920 H   0  0  0  0  0  0  0  0  0  0  0  0
    3.6656   -7.1308    0.1655 H   0  0  0  0  0  0  0  0  0  0  0  0
    5.6137   -5.1271   -1.7439 H   0  0  0  0  0  0  0  0  0  0  0  0
    6.0798   -0.3026   -2.4413 H   0  0  0  0  0  0  0  0  0  0  0  0
    3.6154    0.1259   -2.3240 H   0  0  0  0  0  0  0  0  0  0  0  0
    6.6854   -0.5685    0.0550 H   0  0  0  0  0  0  0  0  0  0  0  0
    2.6145   -0.6539   -0.3673 H   0  0  0  0  0  0  0  0  0  0  0  0
  1  2  1  0
  1 19  1  0
  1 20  1  0
  1 21  1  0
  2  6  1  0
  2  3  1  0
  3  4  2  0
  3 22  1  0
  4  5  1  0
  4 23  1  0
  5  6  2  0
  5 24  1  0
  6  7  1  0
  7  8  2  3
  7 25  1  0
  8 17  1  0
  8  9  1  0
  9 10  1  0
 10 11  1  0
 10 29  1  1
 10 14  1  0
 11 12  1  0
 11 16  1  0
 11 27  1  6
 12 26  1  0
 12 13  2  0
 13 14  1  0
 13 28  1  0
 14 15  2  0
 16 17  1  0
 17 18  2  0
M  END
>  <i_m_ct_stereo_status>  (321) 
1

>  <s_m_source_file>  (321) 
/var/tmp/pbs.5076255.sched01/tmpj3mqheq3/1200r5s1sfv.sdf

>  <i_m_source_file_index>  (321) 
11

>  <i_lp_mmshare_version>  (321) 
48012

>  <i_f3d_flags>  (321) 
0

>  <s_epik_input>  (321) 
W0NIM11uMVtjSF1bY0hdW2NIXWMxL1tDSF09QygvUzIpQyg9TylTQyg9QzIzKVtDSDJdW0NIMl1DMz1P

>  <s_epik_cmdline>  (321) 
J2VwaWtfcHl0aG9uJywgJy1waHQnLCAnMi4wJywgJy1waCcsICc3LjAnLCAnLXRuJywgJzgnLCAnLW1hJywgJzIwMCcsICctaW1hZScsICc8aW5maWxlLm1hZT4nLCAnLW9tYWUnLCAnPG91dGZpbGUubWFlPic=

>  <r_lp_tautomer_probability>  (321) 
0.499977

>  <r_epik_Ionization_Penalty>  (321) 
1.29059e-13

>  <r_epik_Ionization_Penalty_Charging>  (321) 
0

>  <r_epik_Ionization_Penalty_Neutral>  (321) 
1.29059e-13

>  <r_epik_State_Penalty>  (321) 
0.41068

>  <r_epik_Charging_Adjusted_Penalty>  (321) 
0.41068

>  <i_epik_Tot_Q>  (321) 
0

>  <i_epik_Tot_abs_Q>  (321) 
0

>  <s_lp_Force_Field>  (321) 
OPLS3e

>  <r_lp_Energy>  (321) 
12.5623

>  <b_lp_Chiralities_Consistent>  (321) 
1

>  <s_lp_Variant>  (321) 
94:0-6

>  <s_i_glide_gridfile>  (321) 
pfpi4k_grid

>  <i_i_glide_lignum>  (321) 
11

>  <i_i_glide_rotatable_bonds>  (321) 
1

>  <r_i_docking_score>  (321) 
-2.7973

>  <r_i_glide_ligand_efficiency>  (321) 
-0.155406

>  <r_i_glide_ligand_efficiency_sa>  (321) 
-0.407278

>  <r_i_glide_ligand_efficiency_ln>  (321) 
-0.719032

>  <r_i_glide_gscore>  (321) 
-2.7973

>  <r_i_glide_lipo>  (321) 
-0.525775

>  <r_i_glide_hbond>  (321) 
0

>  <r_i_glide_metal>  (321) 
-0

>  <r_i_glide_rewards>  (321) 
-1.66107

>  <r_i_glide_evdw>  (321) 
-13.9347

>  <r_i_glide_ecoul>  (321) 
-0.985312

>  <r_i_glide_erotb>  (321) 
0.234075

>  <r_i_glide_esite>  (321) 
0

>  <r_i_glide_emodel>  (321) 
-14.265

>  <r_i_glide_energy>  (321) 
-14.9201

>  <r_i_glide_einternal>  (321) 
5.84842

>  <r_i_glide_intrahb_reward>  (321) 
-0

>  <i_i_glide_confnum>  (321) 
2

>  <i_i_glide_posenum>  (321) 
4

>  <r_i_glide_eff_state_penalty>  (321) 
0

>  <ligand_id>  (321) 
94

>  <original_smiles>  (321) 
Cn1cccc1C=C1SC2=C(CCC2=O)SC1=O

>  <smiles>  (321) 
[H]C1=C([H])C2([H])SC(=O)C(=C([H])c3c([H])c([H])c([H])n3C([H])([H])[H])SC2([H])C1=O

$$$$
95:0:0
     RDKit          3D

 20 21  0  0  1  0  0  0  0  0999 V2000
    2.7662   -4.0744   -0.3692 C   0  0  0  0  0  0  0  0  0  0  0  0
    2.6946   -5.3080    0.4789 C   0  0  0  0  0  0  0  0  0  0  0  0
    3.7707   -6.0148    1.0836 C   0  0  0  0  0  0  0  0  0  0  0  0
    3.1209   -7.0245    1.7223 C   0  0  0  0  0  0  0  0  0  0  0  0
    3.8902   -8.2367    2.6694 Cl  0  0  0  0  0  0  0  0  0  0  0  0
    1.7538   -6.9251    1.5443 N   0  0  0  0  0  0  0  0  0  0  0  0
    0.6773   -7.7094    2.0503 C   0  0  0  0  0  0  0  0  0  0  0  0
   -0.5425   -7.1464    2.0665 N   0  0  0  0  0  0  0  0  0  0  0  0
   -1.5748   -7.9087    2.4819 C   0  0  0  0  0  0  0  0  0  0  0  0
   -1.3942   -9.2304    2.8961 C   0  0  0  0  0  0  0  0  0  0  0  0
   -0.0816   -9.7220    2.8813 C   0  0  0  0  0  0  0  0  0  0  0  0
    0.9396   -8.9492    2.4650 N   0  0  0  0  0  0  0  0  0  0  0  0
    1.5115   -5.8547    0.7398 N   0  0  0  0  0  0  0  0  0  0  0  0
    3.7966   -3.7412   -0.4869 H   0  0  0  0  0  0  0  0  0  0  0  0
    2.2027   -3.2529    0.0710 H   0  0  0  0  0  0  0  0  0  0  0  0
    2.3614   -4.2549   -1.3643 H   0  0  0  0  0  0  0  0  0  0  0  0
    4.8347   -5.8280    1.0690 H   0  0  0  0  0  0  0  0  0  0  0  0
   -2.5526   -7.4480    2.4882 H   0  0  0  0  0  0  0  0  0  0  0  0
   -2.2083   -9.8356    3.2706 H   0  0  0  0  0  0  0  0  0  0  0  0
    0.1536  -10.7268    3.2065 H   0  0  0  0  0  0  0  0  0  0  0  0
  1  2  1  0
  1 14  1  0
  1 15  1  0
  1 16  1  0
  2 13  2  0
  2  3  1  0
  3  4  2  0
  3 17  1  0
  4  5  1  0
  4  6  1  0
  6  7  1  0
  6 13  1  0
  7 12  1  0
  7  8  2  0
  8  9  1  0
  9 10  2  0
  9 18  1  0
 10 11  1  0
 10 19  1  0
 11 12  2  0
 11 20  1  0
M  END
>  <i_m_ct_stereo_status>  (322) 
1

>  <s_m_source_file>  (322) 
/var/tmp/pbs.5076255.sched01/tmpj3mqheq3/1200r5s1sfv.sdf

>  <i_m_source_file_index>  (322) 
12

>  <i_lp_mmshare_version>  (322) 
48012

>  <i_f3d_flags>  (322) 
0

>  <s_epik_input>  (322) 
W0NIM11jMVtjSF1jKENsKW4objEpLWMybltjSF1bY0hdW2NIXW4y

>  <s_epik_cmdline>  (322) 
J2VwaWtfcHl0aG9uJywgJy1waHQnLCAnMi4wJywgJy1waCcsICc3LjAnLCAnLXRuJywgJzgnLCAnLW1hJywgJzIwMCcsICctaW1hZScsICc8aW5maWxlLm1hZT4nLCAnLW9tYWUnLCAnPG91dGZpbGUubWFlPic=

>  <r_lp_tautomer_probability>  (322) 
1

>  <r_epik_Ionization_Penalty>  (322) 
3.21918e-07

>  <r_epik_Ionization_Penalty_Charging>  (322) 
0

>  <r_epik_Ionization_Penalty_Neutral>  (322) 
3.21918e-07

>  <r_epik_State_Penalty>  (322) 
-0

>  <r_epik_Charging_Adjusted_Penalty>  (322) 
0

>  <i_epik_Tot_Q>  (322) 
0

>  <i_epik_Tot_abs_Q>  (322) 
0

>  <s_lp_Force_Field>  (322) 
OPLS3e

>  <r_lp_Energy>  (322) 
19.0822

>  <b_lp_Chiralities_Consistent>  (322) 
1

>  <s_lp_Variant>  (322) 
95:0-1

>  <s_i_glide_gridfile>  (322) 
pfpi4k_grid

>  <i_i_glide_lignum>  (322) 
12

>  <i_i_glide_rotatable_bonds>  (322) 
1

>  <r_i_docking_score>  (322) 
-3.79982

>  <r_i_glide_ligand_efficiency>  (322) 
-0.292294

>  <r_i_glide_ligand_efficiency_sa>  (322) 
-0.68728

>  <r_i_glide_ligand_efficiency_ln>  (322) 
-1.06588

>  <r_i_glide_gscore>  (322) 
-3.79982

>  <r_i_glide_lipo>  (322) 
-0.0918941

>  <r_i_glide_hbond>  (322) 
-0.247332

>  <r_i_glide_metal>  (322) 
-0

>  <r_i_glide_rewards>  (322) 
-2.08213

>  <r_i_glide_evdw>  (322) 
-18.4799

>  <r_i_glide_ecoul>  (322) 
-5.31208

>  <r_i_glide_erotb>  (322) 
0.427281

>  <r_i_glide_esite>  (322) 
-0.0849318

>  <r_i_glide_emodel>  (322) 
-29.9632

>  <r_i_glide_energy>  (322) 
-23.792

>  <r_i_glide_einternal>  (322) 
0.264972

>  <r_i_glide_intrahb_reward>  (322) 
-0

>  <i_i_glide_confnum>  (322) 
4

>  <i_i_glide_posenum>  (322) 
7

>  <r_i_glide_eff_state_penalty>  (322) 
0

>  <ligand_id>  (322) 
95

>  <original_smiles>  (322) 
Cc1cc(Cl)n(-c2ncccn2)n1

>  <smiles>  (322) 
[H]c1nc(-n2nc(C([H])([H])[H])c([H])c2Cl)nc([H])c1[H]

$$$$
95:0:1
     RDKit          3D

 20 21  0  0  1  0  0  0  0  0999 V2000
   -2.1439   -7.9178    3.3413 C   0  0  0  0  0  0  0  0  0  0  0  0
   -0.7227   -8.1169    2.9232 C   0  0  0  0  0  0  0  0  0  0  0  0
    0.0678   -9.2934    3.0363 C   0  0  0  0  0  0  0  0  0  0  0  0
    1.2554   -8.8863    2.5140 C   0  0  0  0  0  0  0  0  0  0  0  0
    2.6664   -9.8579    2.3527 Cl  0  0  0  0  0  0  0  0  0  0  0  0
    1.1838   -7.5703    2.1019 N   0  0  0  0  0  0  0  0  0  0  0  0
    2.1584   -6.7387    1.4902 C   0  0  0  0  0  0  0  0  0  0  0  0
    1.7116   -5.7983    0.6486 N   0  0  0  0  0  0  0  0  0  0  0  0
    2.6178   -4.9741    0.0822 C   0  0  0  0  0  0  0  0  0  0  0  0
    3.9944   -5.0984    0.3340 C   0  0  0  0  0  0  0  0  0  0  0  0
    4.3668   -6.1217    1.2175 C   0  0  0  0  0  0  0  0  0  0  0  0
    3.4477   -6.9191    1.7951 N   0  0  0  0  0  0  0  0  0  0  0  0
   -0.0662   -7.1022    2.3681 N   0  0  0  0  0  0  0  0  0  0  0  0
   -2.5648   -8.8361    3.7483 H   0  0  0  0  0  0  0  0  0  0  0  0
   -2.7493   -7.6132    2.4904 H   0  0  0  0  0  0  0  0  0  0  0  0
   -2.2214   -7.1443    4.1046 H   0  0  0  0  0  0  0  0  0  0  0  0
   -0.1874  -10.2675    3.4314 H   0  0  0  0  0  0  0  0  0  0  0  0
    2.2359   -4.2180   -0.5914 H   0  0  0  0  0  0  0  0  0  0  0  0
    4.7190   -4.4516   -0.1375 H   0  0  0  0  0  0  0  0  0  0  0  0
    5.4044   -6.2992    1.4664 H   0  0  0  0  0  0  0  0  0  0  0  0
  1  2  1  0
  1 14  1  0
  1 15  1  0
  1 16  1  0
  2 13  2  0
  2  3  1  0
  3  4  2  0
  3 17  1  0
  4  5  1  0
  4  6  1  0
  6  7  1  0
  6 13  1  0
  7 12  1  0
  7  8  2  0
  8  9  1  0
  9 10  2  0
  9 18  1  0
 10 11  1  0
 10 19  1  0
 11 12  2  0
 11 20  1  0
M  END
>  <i_m_ct_stereo_status>  (323) 
1

>  <s_m_source_file>  (323) 
/var/tmp/pbs.5076255.sched01/tmpj3mqheq3/1200r5s1sfv.sdf

>  <i_m_source_file_index>  (323) 
12

>  <i_lp_mmshare_version>  (323) 
48012

>  <i_f3d_flags>  (323) 
0

>  <s_epik_input>  (323) 
W0NIM11jMVtjSF1jKENsKW4objEpLWMybltjSF1bY0hdW2NIXW4y

>  <s_epik_cmdline>  (323) 
J2VwaWtfcHl0aG9uJywgJy1waHQnLCAnMi4wJywgJy1waCcsICc3LjAnLCAnLXRuJywgJzgnLCAnLW1hJywgJzIwMCcsICctaW1hZScsICc8aW5maWxlLm1hZT4nLCAnLW9tYWUnLCAnPG91dGZpbGUubWFlPic=

>  <r_lp_tautomer_probability>  (323) 
1

>  <r_epik_Ionization_Penalty>  (323) 
3.21918e-07

>  <r_epik_Ionization_Penalty_Charging>  (323) 
0

>  <r_epik_Ionization_Penalty_Neutral>  (323) 
3.21918e-07

>  <r_epik_State_Penalty>  (323) 
-0

>  <r_epik_Charging_Adjusted_Penalty>  (323) 
0

>  <i_epik_Tot_Q>  (323) 
0

>  <i_epik_Tot_abs_Q>  (323) 
0

>  <s_lp_Force_Field>  (323) 
OPLS3e

>  <r_lp_Energy>  (323) 
19.0822

>  <b_lp_Chiralities_Consistent>  (323) 
1

>  <s_lp_Variant>  (323) 
95:0-1

>  <s_i_glide_gridfile>  (323) 
pfpi4k_grid

>  <i_i_glide_lignum>  (323) 
12

>  <i_i_glide_rotatable_bonds>  (323) 
1

>  <r_i_docking_score>  (323) 
-3.53537

>  <r_i_glide_ligand_efficiency>  (323) 
-0.271951

>  <r_i_glide_ligand_efficiency_sa>  (323) 
-0.639449

>  <r_i_glide_ligand_efficiency_ln>  (323) 
-0.991702

>  <r_i_glide_gscore>  (323) 
-3.53537

>  <r_i_glide_lipo>  (323) 
-0.0902645

>  <r_i_glide_hbond>  (323) 
-0.130937

>  <r_i_glide_metal>  (323) 
-0

>  <r_i_glide_rewards>  (323) 
-2.08213

>  <r_i_glide_evdw>  (323) 
-18.8998

>  <r_i_glide_ecoul>  (323) 
-4.39742

>  <r_i_glide_erotb>  (323) 
0.427281

>  <r_i_glide_esite>  (323) 
-0.0547134

>  <r_i_glide_emodel>  (323) 
-29.1199

>  <r_i_glide_energy>  (323) 
-23.2972

>  <r_i_glide_einternal>  (323) 
0.0867627

>  <r_i_glide_intrahb_reward>  (323) 
-0

>  <i_i_glide_confnum>  (323) 
3

>  <i_i_glide_posenum>  (323) 
2

>  <r_i_glide_eff_state_penalty>  (323) 
0

>  <ligand_id>  (323) 
95

>  <original_smiles>  (323) 
Cc1cc(Cl)n(-c2ncccn2)n1

>  <smiles>  (323) 
[H]c1nc(-n2nc(C([H])([H])[H])c([H])c2Cl)nc([H])c1[H]

$$$$
95:0:2
     RDKit          3D

 20 21  0  0  1  0  0  0  0  0999 V2000
    3.3697   -4.0855    0.0836 C   0  0  0  0  0  0  0  0  0  0  0  0
    3.0979   -5.3620    0.8210 C   0  0  0  0  0  0  0  0  0  0  0  0
    3.9961   -6.4384    1.0800 C   0  0  0  0  0  0  0  0  0  0  0  0
    3.2050   -7.3067    1.7661 C   0  0  0  0  0  0  0  0  0  0  0  0
    3.6806   -8.8325    2.3998 Cl  0  0  0  0  0  0  0  0  0  0  0  0
    1.9405   -6.7837    1.9321 N   0  0  0  0  0  0  0  0  0  0  0  0
    0.8149   -7.3115    2.6108 C   0  0  0  0  0  0  0  0  0  0  0  0
    0.1476   -6.4923    3.4334 N   0  0  0  0  0  0  0  0  0  0  0  0
   -0.9255   -6.9837    4.0798 C   0  0  0  0  0  0  0  0  0  0  0  0
   -1.3938   -8.2812    3.8454 C   0  0  0  0  0  0  0  0  0  0  0  0
   -0.6440   -9.0601    2.9524 C   0  0  0  0  0  0  0  0  0  0  0  0
    0.4590   -8.5705    2.3544 N   0  0  0  0  0  0  0  0  0  0  0  0
    1.8828   -5.5725    1.3214 N   0  0  0  0  0  0  0  0  0  0  0  0
    4.4071   -4.0402   -0.2503 H   0  0  0  0  0  0  0  0  0  0  0  0
    3.1852   -3.2163    0.7159 H   0  0  0  0  0  0  0  0  0  0  0  0
    2.7340   -4.0023   -0.7978 H   0  0  0  0  0  0  0  0  0  0  0  0
    5.0358   -6.5530    0.8120 H   0  0  0  0  0  0  0  0  0  0  0  0
   -1.4369   -6.3134    4.7575 H   0  0  0  0  0  0  0  0  0  0  0  0
   -2.2586   -8.6891    4.3471 H   0  0  0  0  0  0  0  0  0  0  0  0
   -0.9306  -10.0763    2.7147 H   0  0  0  0  0  0  0  0  0  0  0  0
  1  2  1  0
  1 14  1  0
  1 15  1  0
  1 16  1  0
  2 13  2  0
  2  3  1  0
  3  4  2  0
  3 17  1  0
  4  5  1  0
  4  6  1  0
  6  7  1  0
  6 13  1  0
  7 12  1  0
  7  8  2  0
  8  9  1  0
  9 10  2  0
  9 18  1  0
 10 11  1  0
 10 19  1  0
 11 12  2  0
 11 20  1  0
M  END
>  <i_m_ct_stereo_status>  (324) 
1

>  <s_m_source_file>  (324) 
/var/tmp/pbs.5076255.sched01/tmpj3mqheq3/1200r5s1sfv.sdf

>  <i_m_source_file_index>  (324) 
12

>  <i_lp_mmshare_version>  (324) 
48012

>  <i_f3d_flags>  (324) 
0

>  <s_epik_input>  (324) 
W0NIM11jMVtjSF1jKENsKW4objEpLWMybltjSF1bY0hdW2NIXW4y

>  <s_epik_cmdline>  (324) 
J2VwaWtfcHl0aG9uJywgJy1waHQnLCAnMi4wJywgJy1waCcsICc3LjAnLCAnLXRuJywgJzgnLCAnLW1hJywgJzIwMCcsICctaW1hZScsICc8aW5maWxlLm1hZT4nLCAnLW9tYWUnLCAnPG91dGZpbGUubWFlPic=

>  <r_lp_tautomer_probability>  (324) 
1

>  <r_epik_Ionization_Penalty>  (324) 
3.21918e-07

>  <r_epik_Ionization_Penalty_Charging>  (324) 
0

>  <r_epik_Ionization_Penalty_Neutral>  (324) 
3.21918e-07

>  <r_epik_State_Penalty>  (324) 
-0

>  <r_epik_Charging_Adjusted_Penalty>  (324) 
0

>  <i_epik_Tot_Q>  (324) 
0

>  <i_epik_Tot_abs_Q>  (324) 
0

>  <s_lp_Force_Field>  (324) 
OPLS3e

>  <r_lp_Energy>  (324) 
19.0822

>  <b_lp_Chiralities_Consistent>  (324) 
1

>  <s_lp_Variant>  (324) 
95:0-1

>  <s_i_glide_gridfile>  (324) 
pfpi4k_grid

>  <i_i_glide_lignum>  (324) 
12

>  <i_i_glide_rotatable_bonds>  (324) 
1

>  <r_i_docking_score>  (324) 
-2.89141

>  <r_i_glide_ligand_efficiency>  (324) 
-0.222416

>  <r_i_glide_ligand_efficiency_sa>  (324) 
-0.522974

>  <r_i_glide_ligand_efficiency_ln>  (324) 
-0.811066

>  <r_i_glide_gscore>  (324) 
-2.89141

>  <r_i_glide_lipo>  (324) 
-0.130148

>  <r_i_glide_hbond>  (324) 
-0.0888144

>  <r_i_glide_metal>  (324) 
-0

>  <r_i_glide_rewards>  (324) 
-2.08213

>  <r_i_glide_evdw>  (324) 
-17.0471

>  <r_i_glide_ecoul>  (324) 
-0.699427

>  <r_i_glide_erotb>  (324) 
0.427281

>  <r_i_glide_esite>  (324) 
-0.0603252

>  <r_i_glide_emodel>  (324) 
-22.3891

>  <r_i_glide_energy>  (324) 
-17.7465

>  <r_i_glide_einternal>  (324) 
0.267016

>  <r_i_glide_intrahb_reward>  (324) 
-0

>  <i_i_glide_confnum>  (324) 
3

>  <i_i_glide_posenum>  (324) 
10

>  <r_i_glide_eff_state_penalty>  (324) 
0

>  <ligand_id>  (324) 
95

>  <original_smiles>  (324) 
Cc1cc(Cl)n(-c2ncccn2)n1

>  <smiles>  (324) 
[H]c1nc(-n2nc(C([H])([H])[H])c([H])c2Cl)nc([H])c1[H]

$$$$
96:0:0
     RDKit          3D

 36 40  0  0  1  0  0  0  0  0999 V2000
    2.8381   -0.0415    3.3971 O   0  0  0  0  0  0  0  0  0  0  0  0
    2.9983   -1.0121    2.4573 C   0  0  0  0  0  0  0  0  0  0  0  0
    2.2352   -2.2114    2.5169 C   0  0  0  0  0  0  0  0  0  0  0  0
    2.5622   -3.3113    1.6740 C   0  0  0  0  0  0  0  0  0  0  0  0
    3.5133   -3.1503    0.6471 C   0  0  0  0  0  0  0  0  0  0  0  0
    4.0354   -1.8685    0.5127 C   0  0  0  0  0  0  0  0  0  0  0  0
    3.9823   -0.8753    1.4632 C   0  0  0  0  0  0  0  0  0  0  0  0
    5.0764   -0.0522    1.4422 O   0  0  0  0  0  0  0  0  0  0  0  0
    5.9906   -0.6159    0.4746 C   0  0  1  0  0  0  0  0  0  0  0  0
    6.7291   -1.9580    0.7705 C   0  0  0  0  0  0  0  0  0  0  0  0
    6.2241   -2.4931   -0.6062 C   0  0  1  0  0  0  0  0  0  0  0  0
    7.1915   -2.2633   -1.6068 O   0  0  0  0  0  0  0  0  0  0  0  0
    5.5759   -3.8536   -0.8774 C   0  0  1  0  0  0  0  0  0  0  0  0
    4.3878   -4.2518    0.0444 C   0  0  0  0  0  0  0  0  0  0  0  0
    5.1044   -3.9678   -2.3575 C   0  0  0  0  0  0  0  0  0  0  0  0
    3.9606   -3.0761   -2.9189 C   0  0  1  0  0  0  0  0  0  0  0  0
    2.6874   -3.4521   -2.4613 O   0  0  0  0  0  0  0  0  0  0  0  0
    4.1091   -1.5823   -2.7841 C   0  0  0  0  0  0  0  0  0  0  0  0
    4.6192   -0.9112   -1.7374 C   0  0  0  0  0  0  0  0  0  0  0  0
    5.1213   -1.4916   -0.4311 C   0  0  1  0  0  0  0  0  0  0  0  0
    3.3629    0.7188    3.1942 H   0  0  0  0  0  0  0  0  0  0  0  0
    1.5025   -2.3337    3.2937 H   0  0  0  0  0  0  0  0  0  0  0  0
    2.1374   -4.2841    1.8641 H   0  0  0  0  0  0  0  0  0  0  0  0
    6.6242    0.1149   -0.0228 H   0  0  0  0  0  0  0  0  0  0  0  0
    7.8143   -1.8505    0.8291 H   0  0  0  0  0  0  0  0  0  0  0  0
    6.3308   -2.5211    1.6196 H   0  0  0  0  0  0  0  0  0  0  0  0
    7.7007   -3.0527   -1.7073 H   0  0  0  0  0  0  0  0  0  0  0  0
    6.3187   -4.6324   -0.7166 H   0  0  0  0  0  0  0  0  0  0  0  0
    4.8324   -4.7461    0.9078 H   0  0  0  0  0  0  0  0  0  0  0  0
    3.7537   -5.0048   -0.4170 H   0  0  0  0  0  0  0  0  0  0  0  0
    5.9524   -3.8573   -3.0343 H   0  0  0  0  0  0  0  0  0  0  0  0
    4.8046   -4.9976   -2.5112 H   0  0  0  0  0  0  0  0  0  0  0  0
    3.9288   -3.2628   -3.9942 H   0  0  0  0  0  0  0  0  0  0  0  0
    2.6146   -4.3996   -2.5560 H   0  0  0  0  0  0  0  0  0  0  0  0
    3.7217   -1.0073   -3.6115 H   0  0  0  0  0  0  0  0  0  0  0  0
    4.6220    0.1552   -1.8140 H   0  0  0  0  0  0  0  0  0  0  0  0
  1  2  1  0
  1 21  1  0
  2  7  2  0
  2  3  1  0
  3  4  2  0
  3 22  1  0
  4  5  1  0
  4 23  1  0
  5 14  1  0
  5  6  2  0
  6 20  1  0
  6  7  1  0
  7  8  1  0
  8  9  1  0
  9 20  1  0
  9 10  1  0
  9 24  1  6
 10 11  1  0
 10 25  1  0
 10 26  1  0
 11 20  1  0
 11 12  1  6
 11 13  1  0
 12 27  1  0
 13 14  1  0
 13 15  1  0
 13 28  1  6
 14 29  1  0
 14 30  1  0
 15 16  1  0
 15 31  1  0
 15 32  1  0
 16 17  1  0
 16 18  1  0
 16 33  1  6
 17 34  1  0
 18 19  2  0
 18 35  1  0
 20 19  1  6
 19 36  1  0
M  END
>  <i_m_ct_stereo_status>  (325) 
1

>  <s_m_source_file>  (325) 
/var/tmp/pbs.5076255.sched01/tmpj3mqheq3/1200r5s1sfv.sdf

>  <i_m_source_file_index>  (325) 
13

>  <i_lp_mmshare_version>  (325) 
48012

>  <i_f3d_flags>  (325) 
0

>  <s_epik_input>  (325) 
W0NAXTEyM2M0YzVbY0hdW2NIXWMoW09IXSljNE9bQ0BIXTFbQ0gyXVtDQEBdMihbT0hdKVtDQEBIXShbQ0gyXTUpW0NIMl1bQ0BASF0oW09IXSlbQ0hdPVtDSF0z

>  <s_epik_cmdline>  (325) 
J2VwaWtfcHl0aG9uJywgJy1waHQnLCAnMi4wJywgJy1waCcsICc3LjAnLCAnLXRuJywgJzgnLCAnLW1hJywgJzIwMCcsICctaW1hZScsICc8aW5maWxlLm1hZT4nLCAnLW9tYWUnLCAnPG91dGZpbGUubWFlPic=

>  <r_lp_tautomer_probability>  (325) 
1

>  <r_epik_Ionization_Penalty>  (325) 
0.000925386

>  <r_epik_Ionization_Penalty_Charging>  (325) 
0

>  <r_epik_Ionization_Penalty_Neutral>  (325) 
0.000925386

>  <r_epik_State_Penalty>  (325) 
0.000600028

>  <r_epik_Charging_Adjusted_Penalty>  (325) 
0.000600028

>  <i_epik_Tot_Q>  (325) 
0

>  <i_epik_Tot_abs_Q>  (325) 
0

>  <s_lp_Force_Field>  (325) 
OPLS3e

>  <r_lp_Energy>  (325) 
75.4412

>  <b_lp_Chiralities_Consistent>  (325) 
1

>  <s_lp_Variant>  (325) 
96:0-1

>  <s_i_glide_gridfile>  (325) 
pfpi4k_grid

>  <i_i_glide_lignum>  (325) 
13

>  <i_i_glide_rotatable_bonds>  (325) 
3

>  <r_i_docking_score>  (325) 
-4.64281

>  <r_i_glide_ligand_efficiency>  (325) 
-0.23214

>  <r_i_glide_ligand_efficiency_sa>  (325) 
-0.630126

>  <r_i_glide_ligand_efficiency_ln>  (325) 
-1.16194

>  <r_i_glide_gscore>  (325) 
-4.64281

>  <r_i_glide_lipo>  (325) 
-0.258739

>  <r_i_glide_hbond>  (325) 
-0.642008

>  <r_i_glide_metal>  (325) 
-0

>  <r_i_glide_rewards>  (325) 
-1.55253

>  <r_i_glide_evdw>  (325) 
-20.7475

>  <r_i_glide_ecoul>  (325) 
-7.68106

>  <r_i_glide_erotb>  (325) 
0

>  <r_i_glide_esite>  (325) 
0

>  <r_i_glide_emodel>  (325) 
-35.4229

>  <r_i_glide_energy>  (325) 
-28.4285

>  <r_i_glide_einternal>  (325) 
1.4492

>  <r_i_glide_intrahb_reward>  (325) 
-0

>  <i_i_glide_confnum>  (325) 
2

>  <i_i_glide_posenum>  (325) 
11

>  <r_i_glide_eff_state_penalty>  (325) 
0

>  <ligand_id>  (325) 
96

>  <original_smiles>  (325) 
Oc1ccc2c3c1OC1CC4(O)C(C2)CC(O)C=CC314

>  <smiles>  (325) 
[H]Oc1c([H])c([H])c2c3c1OC1([H])C([H])([H])C4(O[H])C31C([H])=C([H])C([H])(O[H])C([H])([H])C4([H])C2([H])[H]

$$$$
96:0:1
     RDKit          3D

 36 40  0  0  1  0  0  0  0  0999 V2000
    1.1603   -4.9933    3.0271 O   0  0  0  0  0  0  0  0  0  0  0  0
    2.2252   -4.9521    2.1779 C   0  0  0  0  0  0  0  0  0  0  0  0
    2.8486   -6.1506    1.7416 C   0  0  0  0  0  0  0  0  0  0  0  0
    4.0813   -6.0985    1.0385 C   0  0  0  0  0  0  0  0  0  0  0  0
    4.6017   -4.8552    0.6279 C   0  0  0  0  0  0  0  0  0  0  0  0
    3.7889   -3.7453    0.8698 C   0  0  0  0  0  0  0  0  0  0  0  0
    2.7590   -3.7104    1.7797 C   0  0  0  0  0  0  0  0  0  0  0  0
    2.5739   -2.4587    2.3180 O   0  0  0  0  0  0  0  0  0  0  0  0
    3.6697   -1.6284    1.8391 C   0  0  1  0  0  0  0  0  0  0  0  0
    5.1324   -1.9108    2.3371 C   0  0  0  0  0  0  0  0  0  0  0  0
    5.5856   -1.9574    0.8398 C   0  0  1  0  0  0  0  0  0  0  0  0
    6.0455   -0.6953    0.3881 O   0  0  0  0  0  0  0  0  0  0  0  0
    6.4961   -3.0234    0.1912 C   0  0  1  0  0  0  0  0  0  0  0  0
    6.0825   -4.5057    0.4357 C   0  0  0  0  0  0  0  0  0  0  0  0
    6.6408   -2.8139   -1.3482 C   0  0  0  0  0  0  0  0  0  0  0  0
    5.3995   -2.9266   -2.2813 C   0  0  1  0  0  0  0  0  0  0  0  0
    5.0178   -4.2579   -2.5230 O   0  0  0  0  0  0  0  0  0  0  0  0
    4.1652   -2.1002   -1.9610 C   0  0  0  0  0  0  0  0  0  0  0  0
    3.6346   -1.8367   -0.7577 C   0  0  0  0  0  0  0  0  0  0  0  0
    4.1552   -2.3336    0.5725 C   0  0  1  0  0  0  0  0  0  0  0  0
    0.9511   -4.1196    3.3254 H   0  0  0  0  0  0  0  0  0  0  0  0
    2.4628   -7.1004    2.0817 H   0  0  0  0  0  0  0  0  0  0  0  0
    4.6728   -6.9984    0.9316 H   0  0  0  0  0  0  0  0  0  0  0  0
    3.4487   -0.5618    1.7342 H   0  0  0  0  0  0  0  0  0  0  0  0
    5.5673   -1.0980    2.9219 H   0  0  0  0  0  0  0  0  0  0  0  0
    5.2611   -2.8710    2.8466 H   0  0  0  0  0  0  0  0  0  0  0  0
    5.3404   -0.0770    0.5174 H   0  0  0  0  0  0  0  0  0  0  0  0
    7.5054   -2.9015    0.5869 H   0  0  0  0  0  0  0  0  0  0  0  0
    6.5707   -4.8173    1.3573 H   0  0  0  0  0  0  0  0  0  0  0  0
    6.4987   -5.1652   -0.3238 H   0  0  0  0  0  0  0  0  0  0  0  0
    7.1025   -1.8574   -1.5387 H   0  0  0  0  0  0  0  0  0  0  0  0
    7.3883   -3.5050   -1.7286 H   0  0  0  0  0  0  0  0  0  0  0  0
    5.7285   -2.5704   -3.2587 H   0  0  0  0  0  0  0  0  0  0  0  0
    4.0993   -4.3866   -2.3158 H   0  0  0  0  0  0  0  0  0  0  0  0
    3.6431   -1.7137   -2.8241 H   0  0  0  0  0  0  0  0  0  0  0  0
    2.7286   -1.2511   -0.7149 H   0  0  0  0  0  0  0  0  0  0  0  0
  1  2  1  0
  1 21  1  0
  2  7  2  0
  2  3  1  0
  3  4  2  0
  3 22  1  0
  4  5  1  0
  4 23  1  0
  5 14  1  0
  5  6  2  0
  6 20  1  0
  6  7  1  0
  7  8  1  0
  8  9  1  0
  9 20  1  0
  9 10  1  0
  9 24  1  6
 10 11  1  0
 10 25  1  0
 10 26  1  0
 11 20  1  0
 11 12  1  6
 11 13  1  0
 12 27  1  0
 13 14  1  0
 13 15  1  0
 13 28  1  1
 14 29  1  0
 14 30  1  0
 15 16  1  0
 15 31  1  0
 15 32  1  0
 16 17  1  0
 16 18  1  0
 16 33  1  6
 17 34  1  0
 18 19  2  0
 18 35  1  0
 20 19  1  6
 19 36  1  0
M  END
>  <i_m_ct_stereo_status>  (326) 
1

>  <s_m_source_file>  (326) 
/var/tmp/pbs.5076255.sched01/tmpj3mqheq3/1200r5s1sfv.sdf

>  <i_m_source_file_index>  (326) 
13

>  <i_lp_mmshare_version>  (326) 
48012

>  <i_f3d_flags>  (326) 
0

>  <s_epik_input>  (326) 
W0NAXTEyM2M0YzVbY0hdW2NIXWMoW09IXSljNE9bQ0BIXTFbQ0gyXVtDQEBdMihbT0hdKVtDQEBIXShbQ0gyXTUpW0NIMl1bQ0BASF0oW09IXSlbQ0hdPVtDSF0z

>  <s_epik_cmdline>  (326) 
J2VwaWtfcHl0aG9uJywgJy1waHQnLCAnMi4wJywgJy1waCcsICc3LjAnLCAnLXRuJywgJzgnLCAnLW1hJywgJzIwMCcsICctaW1hZScsICc8aW5maWxlLm1hZT4nLCAnLW9tYWUnLCAnPG91dGZpbGUubWFlPic=

>  <r_lp_tautomer_probability>  (326) 
1

>  <r_epik_Ionization_Penalty>  (326) 
0.000925386

>  <r_epik_Ionization_Penalty_Charging>  (326) 
0

>  <r_epik_Ionization_Penalty_Neutral>  (326) 
0.000925386

>  <r_epik_State_Penalty>  (326) 
0.000600028

>  <r_epik_Charging_Adjusted_Penalty>  (326) 
0.000600028

>  <i_epik_Tot_Q>  (326) 
0

>  <i_epik_Tot_abs_Q>  (326) 
0

>  <s_lp_Force_Field>  (326) 
OPLS3e

>  <r_lp_Energy>  (326) 
75.4412

>  <b_lp_Chiralities_Consistent>  (326) 
1

>  <s_lp_Variant>  (326) 
96:0-1

>  <s_i_glide_gridfile>  (326) 
pfpi4k_grid

>  <i_i_glide_lignum>  (326) 
13

>  <i_i_glide_rotatable_bonds>  (326) 
3

>  <r_i_docking_score>  (326) 
-3.74954

>  <r_i_glide_ligand_efficiency>  (326) 
-0.187477

>  <r_i_glide_ligand_efficiency_sa>  (326) 
-0.508891

>  <r_i_glide_ligand_efficiency_ln>  (326) 
-0.938387

>  <r_i_glide_gscore>  (326) 
-3.74954

>  <r_i_glide_lipo>  (326) 
-0.61429

>  <r_i_glide_hbond>  (326) 
-0.152014

>  <r_i_glide_metal>  (326) 
-0

>  <r_i_glide_rewards>  (326) 
-1.55253

>  <r_i_glide_evdw>  (326) 
-19.5807

>  <r_i_glide_ecoul>  (326) 
-3.01117

>  <r_i_glide_erotb>  (326) 
0

>  <r_i_glide_esite>  (326) 
0

>  <r_i_glide_emodel>  (326) 
-28.0341

>  <r_i_glide_energy>  (326) 
-22.5919

>  <r_i_glide_einternal>  (326) 
1.51551

>  <r_i_glide_intrahb_reward>  (326) 
-0

>  <i_i_glide_confnum>  (326) 
2

>  <i_i_glide_posenum>  (326) 
29

>  <r_i_glide_eff_state_penalty>  (326) 
0

>  <ligand_id>  (326) 
96

>  <original_smiles>  (326) 
Oc1ccc2c3c1OC1CC4(O)C(C2)CC(O)C=CC314

>  <smiles>  (326) 
[H]Oc1c([H])c([H])c2c3c1OC1([H])C([H])([H])C4(O[H])C31C([H])=C([H])C([H])(O[H])C([H])([H])C4([H])C2([H])[H]

$$$$
96:0:2
     RDKit          3D

 36 40  0  0  1  0  0  0  0  0999 V2000
    1.2597   -4.3423    3.2926 O   0  0  0  0  0  0  0  0  0  0  0  0
    2.2327   -4.4179    2.3410 C   0  0  0  0  0  0  0  0  0  0  0  0
    2.6187   -5.6668    1.7907 C   0  0  0  0  0  0  0  0  0  0  0  0
    3.7758   -5.7594    0.9689 C   0  0  0  0  0  0  0  0  0  0  0  0
    4.4451   -4.5853    0.5685 C   0  0  0  0  0  0  0  0  0  0  0  0
    3.8457   -3.3801    0.9444 C   0  0  0  0  0  0  0  0  0  0  0  0
    2.9127   -3.2464    1.9542 C   0  0  0  0  0  0  0  0  0  0  0  0
    2.9783   -2.0238    2.5684 O   0  0  0  0  0  0  0  0  0  0  0  0
    4.1456   -1.3398    2.0296 C   0  0  1  0  0  0  0  0  0  0  0  0
    5.5782   -1.8812    2.3710 C   0  0  0  0  0  0  0  0  0  0  0  0
    5.8960   -1.8949    0.8429 C   0  0  1  0  0  0  0  0  0  0  0  0
    6.5078   -0.6779    0.4483 O   0  0  0  0  0  0  0  0  0  0  0  0
    6.5661   -3.0434    0.0436 C   0  0  1  0  0  0  0  0  0  0  0  0
    5.9388   -4.4598    0.2460 C   0  0  0  0  0  0  0  0  0  0  0  0
    6.6059   -2.7455   -1.4879 C   0  0  0  0  0  0  0  0  0  0  0  0
    5.2837   -2.6122   -2.2937 C   0  0  1  0  0  0  0  0  0  0  0  0
    4.6910   -3.8562   -2.5633 O   0  0  0  0  0  0  0  0  0  0  0  0
    4.2200   -1.6334   -1.8133 C   0  0  0  0  0  0  0  0  0  0  0  0
    3.8402   -1.3662   -0.5530 C   0  0  0  0  0  0  0  0  0  0  0  0
    4.4010   -2.0195    0.6912 C   0  0  1  0  0  0  0  0  0  0  0  0
    1.1578   -3.4518    3.5922 H   0  0  0  0  0  0  0  0  0  0  0  0
    2.1226   -6.5652    2.1198 H   0  0  0  0  0  0  0  0  0  0  0  0
    4.2044   -6.7322    0.7605 H   0  0  0  0  0  0  0  0  0  0  0  0
    4.0914   -0.2478    2.0013 H   0  0  0  0  0  0  0  0  0  0  0  0
    6.1815   -1.1846    2.9480 H   0  0  0  0  0  0  0  0  0  0  0  0
    5.6013   -2.8803    2.8117 H   0  0  0  0  0  0  0  0  0  0  0  0
    6.8455   -0.2552    1.2292 H   0  0  0  0  0  0  0  0  0  0  0  0
    7.6161   -3.1107    0.3412 H   0  0  0  0  0  0  0  0  0  0  0  0
    6.4529   -4.9025    1.1003 H   0  0  0  0  0  0  0  0  0  0  0  0
    6.1651   -5.1124   -0.5912 H   0  0  0  0  0  0  0  0  0  0  0  0
    7.1890   -1.8581   -1.6680 H   0  0  0  0  0  0  0  0  0  0  0  0
    7.1917   -3.5172   -1.9781 H   0  0  0  0  0  0  0  0  0  0  0  0
    5.5613   -2.2536   -3.2851 H   0  0  0  0  0  0  0  0  0  0  0  0
    4.2903   -4.1837   -1.7685 H   0  0  0  0  0  0  0  0  0  0  0  0
    3.6893   -1.1312   -2.6075 H   0  0  0  0  0  0  0  0  0  0  0  0
    3.0427   -0.6610   -0.3920 H   0  0  0  0  0  0  0  0  0  0  0  0
  1  2  1  0
  1 21  1  0
  2  7  2  0
  2  3  1  0
  3  4  2  0
  3 22  1  0
  4  5  1  0
  4 23  1  0
  5 14  1  0
  5  6  2  0
  6 20  1  0
  6  7  1  0
  7  8  1  0
  8  9  1  0
  9 20  1  0
  9 10  1  0
  9 24  1  6
 10 11  1  0
 10 25  1  0
 10 26  1  0
 11 20  1  0
 11 12  1  6
 11 13  1  0
 12 27  1  0
 13 14  1  0
 13 15  1  0
 13 28  1  1
 14 29  1  0
 14 30  1  0
 15 16  1  0
 15 31  1  0
 15 32  1  0
 16 17  1  0
 16 18  1  0
 16 33  1  6
 17 34  1  0
 18 19  2  0
 18 35  1  0
 20 19  1  6
 19 36  1  0
M  END
>  <i_m_ct_stereo_status>  (327) 
1

>  <s_m_source_file>  (327) 
/var/tmp/pbs.5076255.sched01/tmpj3mqheq3/1200r5s1sfv.sdf

>  <i_m_source_file_index>  (327) 
13

>  <i_lp_mmshare_version>  (327) 
48012

>  <i_f3d_flags>  (327) 
0

>  <s_epik_input>  (327) 
W0NAXTEyM2M0YzVbY0hdW2NIXWMoW09IXSljNE9bQ0BIXTFbQ0gyXVtDQEBdMihbT0hdKVtDQEBIXShbQ0gyXTUpW0NIMl1bQ0BASF0oW09IXSlbQ0hdPVtDSF0z

>  <s_epik_cmdline>  (327) 
J2VwaWtfcHl0aG9uJywgJy1waHQnLCAnMi4wJywgJy1waCcsICc3LjAnLCAnLXRuJywgJzgnLCAnLW1hJywgJzIwMCcsICctaW1hZScsICc8aW5maWxlLm1hZT4nLCAnLW9tYWUnLCAnPG91dGZpbGUubWFlPic=

>  <r_lp_tautomer_probability>  (327) 
1

>  <r_epik_Ionization_Penalty>  (327) 
0.000925386

>  <r_epik_Ionization_Penalty_Charging>  (327) 
0

>  <r_epik_Ionization_Penalty_Neutral>  (327) 
0.000925386

>  <r_epik_State_Penalty>  (327) 
0.000600028

>  <r_epik_Charging_Adjusted_Penalty>  (327) 
0.000600028

>  <i_epik_Tot_Q>  (327) 
0

>  <i_epik_Tot_abs_Q>  (327) 
0

>  <s_lp_Force_Field>  (327) 
OPLS3e

>  <r_lp_Energy>  (327) 
75.4412

>  <b_lp_Chiralities_Consistent>  (327) 
1

>  <s_lp_Variant>  (327) 
96:0-1

>  <s_i_glide_gridfile>  (327) 
pfpi4k_grid

>  <i_i_glide_lignum>  (327) 
13

>  <i_i_glide_rotatable_bonds>  (327) 
3

>  <r_i_docking_score>  (327) 
-3.61379

>  <r_i_glide_ligand_efficiency>  (327) 
-0.180689

>  <r_i_glide_ligand_efficiency_sa>  (327) 
-0.490466

>  <r_i_glide_ligand_efficiency_ln>  (327) 
-0.904412

>  <r_i_glide_gscore>  (327) 
-3.61379

>  <r_i_glide_lipo>  (327) 
-0.527802

>  <r_i_glide_hbond>  (327) 
-0.256144

>  <r_i_glide_metal>  (327) 
-0

>  <r_i_glide_rewards>  (327) 
-1.55253

>  <r_i_glide_evdw>  (327) 
-20.8333

>  <r_i_glide_ecoul>  (327) 
-1.57101

>  <r_i_glide_erotb>  (327) 
0

>  <r_i_glide_esite>  (327) 
0

>  <r_i_glide_emodel>  (327) 
-27.7978

>  <r_i_glide_energy>  (327) 
-22.4043

>  <r_i_glide_einternal>  (327) 
1.24938

>  <r_i_glide_intrahb_reward>  (327) 
-0

>  <i_i_glide_confnum>  (327) 
1

>  <i_i_glide_posenum>  (327) 
7

>  <r_i_glide_eff_state_penalty>  (327) 
0

>  <ligand_id>  (327) 
96

>  <original_smiles>  (327) 
Oc1ccc2c3c1OC1CC4(O)C(C2)CC(O)C=CC314

>  <smiles>  (327) 
[H]Oc1c([H])c([H])c2c3c1OC1([H])C([H])([H])C4(O[H])C31C([H])=C([H])C([H])(O[H])C([H])([H])C4([H])C2([H])[H]

$$$$
98:0:0
     RDKit          3D

 34 35  0  0  1  0  0  0  0  0999 V2000
    2.9106    0.3828   -4.6207 C   0  0  0  0  0  0  0  0  0  0  0  0
    3.5882   -0.7708   -3.9438 C   0  0  0  0  0  0  0  0  0  0  0  0
    4.0387   -1.7084   -4.6443 O   0  0  0  0  0  0  0  0  0  0  0  0
    3.6189   -0.7083   -2.5879 O   0  0  0  0  0  0  0  0  0  0  0  0
    4.0900   -1.7420   -1.6919 C   0  0  2  0  0  0  0  0  0  0  0  0
    4.2604   -1.1068   -0.3036 C   0  0  0  0  0  0  0  0  0  0  0  0
    5.4145   -1.6833    0.5065 C   0  0  0  0  0  0  0  0  0  0  0  0
    5.4283   -1.2972    1.9826 C   0  0  0  0  0  0  0  0  0  0  0  0
    6.3711   -2.4700   -0.0692 C   0  0  0  0  0  0  0  0  0  0  0  0
    7.5502   -3.1102    0.6146 C   0  0  0  0  0  0  0  0  0  0  0  0
    6.3722   -2.8600   -1.3719 O   0  0  0  0  0  0  0  0  0  0  0  0
    5.2822   -2.5675   -2.2270 C   0  0  1  0  0  0  0  0  0  0  0  0
    4.4467   -3.7229   -2.4627 O   0  0  0  0  0  0  0  0  0  0  0  0
    3.3188   -3.0908   -1.7889 C   0  0  0  0  0  0  0  0  0  0  0  0
    3.0763   -3.9016   -0.5027 C   0  0  0  0  0  0  0  0  0  0  0  0
    2.0698   -3.2065   -2.6680 C   0  0  0  0  0  0  0  0  0  0  0  0
    1.9226    0.5655   -4.1862 H   0  0  0  0  0  0  0  0  0  0  0  0
    2.7652    0.1516   -5.6737 H   0  0  0  0  0  0  0  0  0  0  0  0
    3.5288    1.2811   -4.5471 H   0  0  0  0  0  0  0  0  0  0  0  0
    4.4517   -0.0346   -0.3920 H   0  0  0  0  0  0  0  0  0  0  0  0
    3.3393   -1.1981    0.2780 H   0  0  0  0  0  0  0  0  0  0  0  0
    5.1695   -0.2419    2.1047 H   0  0  0  0  0  0  0  0  0  0  0  0
    6.4058   -1.4395    2.4469 H   0  0  0  0  0  0  0  0  0  0  0  0
    4.6999   -1.8960    2.5373 H   0  0  0  0  0  0  0  0  0  0  0  0
    7.4173   -3.1785    1.6809 H   0  0  0  0  0  0  0  0  0  0  0  0
    8.4603   -2.5658    0.3743 H   0  0  0  0  0  0  0  0  0  0  0  0
    7.6654   -4.1324    0.2557 H   0  0  0  0  0  0  0  0  0  0  0  0
    5.7254   -2.1813   -3.1373 H   0  0  0  0  0  0  0  0  0  0  0  0
    2.2919   -3.4454    0.1033 H   0  0  0  0  0  0  0  0  0  0  0  0
    3.9690   -3.9896    0.1166 H   0  0  0  0  0  0  0  0  0  0  0  0
    2.7568   -4.9277   -0.7107 H   0  0  0  0  0  0  0  0  0  0  0  0
    1.1989   -2.7379   -2.2081 H   0  0  0  0  0  0  0  0  0  0  0  0
    1.7926   -4.2503   -2.7076 H   0  0  0  0  0  0  0  0  0  0  0  0
    2.1844   -2.8999   -3.7115 H   0  0  0  0  0  0  0  0  0  0  0  0
  1  2  1  0
  1 17  1  0
  1 18  1  0
  1 19  1  0
  2  3  2  0
  2  4  1  0
  5  4  1  6
  5 12  1  0
  5 14  1  0
  5  6  1  0
  6  7  1  0
  6 20  1  0
  6 21  1  0
  7  8  1  0
  7  9  2  0
  8 22  1  0
  8 23  1  0
  8 24  1  0
  9 10  1  0
  9 11  1  0
 10 25  1  0
 10 26  1  0
 10 27  1  0
 11 12  1  0
 12 13  1  0
 12 28  1  6
 13 14  1  0
 14 15  1  0
 14 16  1  0
 15 29  1  0
 15 30  1  0
 15 31  1  0
 16 32  1  0
 16 33  1  0
 16 34  1  0
M  END
>  <i_m_ct_stereo_status>  (328) 
1

>  <s_m_source_file>  (328) 
/var/tmp/pbs.5076255.sched01/tmpj3mqheq3/1200r5s1sfv.sdf

>  <i_m_source_file_index>  (328) 
15

>  <i_lp_mmshare_version>  (328) 
48012

>  <i_f3d_flags>  (328) 
0

>  <s_epik_input>  (328) 
W0NIM11DKD1PKU9bQ0BAXTEyW0NASF0oT0MyKFtDSDNdKVtDSDNdKU9DKFtDSDNdKT1DKFtDSDJdMSlbQ0gzXQ==

>  <s_epik_cmdline>  (328) 
J2VwaWtfcHl0aG9uJywgJy1waHQnLCAnMi4wJywgJy1waCcsICc3LjAnLCAnLXRuJywgJzgnLCAnLW1hJywgJzIwMCcsICctaW1hZScsICc8aW5maWxlLm1hZT4nLCAnLW9tYWUnLCAnPG91dGZpbGUubWFlPic=

>  <r_lp_tautomer_probability>  (328) 
1

>  <r_epik_Ionization_Penalty>  (328) 
1.05247e-15

>  <r_epik_Ionization_Penalty_Charging>  (328) 
0

>  <r_epik_Ionization_Penalty_Neutral>  (328) 
1.05247e-15

>  <r_epik_State_Penalty>  (328) 
-0

>  <r_epik_Charging_Adjusted_Penalty>  (328) 
0

>  <i_epik_Tot_Q>  (328) 
0

>  <i_epik_Tot_abs_Q>  (328) 
0

>  <s_epik_Chemistry_Notes>  (328) 
This compound has an ester and may undergo hydrolysis at high or low pH. This compound contains an acetal/aminal-like group ( X-CH(R)-Y where X, Y are N, S, or O) that may be acid/base labile, releasing an aldehyde.

>  <s_lp_Force_Field>  (328) 
OPLS3e

>  <r_lp_Energy>  (328) 
13.2612

>  <b_lp_Chiralities_Consistent>  (328) 
1

>  <s_lp_Variant>  (328) 
98:0-1

>  <s_i_glide_gridfile>  (328) 
pfpi4k_grid

>  <i_i_glide_lignum>  (328) 
15

>  <i_i_glide_rotatable_bonds>  (328) 
2

>  <r_i_docking_score>  (328) 
-4.33419

>  <r_i_glide_ligand_efficiency>  (328) 
-0.270887

>  <r_i_glide_ligand_efficiency_sa>  (328) 
-0.682593

>  <r_i_glide_ligand_efficiency_ln>  (328) 
-1.14886

>  <r_i_glide_gscore>  (328) 
-4.33419

>  <r_i_glide_lipo>  (328) 
-0.560178

>  <r_i_glide_hbond>  (328) 
-0.32

>  <r_i_glide_metal>  (328) 
-0

>  <r_i_glide_rewards>  (328) 
-2.2528

>  <r_i_glide_evdw>  (328) 
-20.205

>  <r_i_glide_ecoul>  (328) 
-3.48556

>  <r_i_glide_erotb>  (328) 
0.331868

>  <r_i_glide_esite>  (328) 
0

>  <r_i_glide_emodel>  (328) 
-25.7066

>  <r_i_glide_energy>  (328) 
-23.6905

>  <r_i_glide_einternal>  (328) 
6.44454

>  <r_i_glide_intrahb_reward>  (328) 
-0

>  <i_i_glide_confnum>  (328) 
5

>  <i_i_glide_posenum>  (328) 
27

>  <r_i_glide_eff_state_penalty>  (328) 
0

>  <ligand_id>  (328) 
98

>  <original_smiles>  (328) 
CC(=O)OC12CC(C)=C(C)OC1OC2(C)C

>  <smiles>  (328) 
[H]C([H])([H])C(=O)OC12C([H])(OC(C([H])([H])[H])=C(C([H])([H])[H])C1([H])[H])OC2(C([H])([H])[H])C([H])([H])[H]

$$$$
98:0:1
     RDKit          3D

 34 35  0  0  1  0  0  0  0  0999 V2000
    7.6953   -5.4180    1.1799 C   0  0  0  0  0  0  0  0  0  0  0  0
    7.2679   -4.1295    0.4945 C   0  0  0  0  0  0  0  0  0  0  0  0
    8.0512   -3.2008    0.3788 O   0  0  0  0  0  0  0  0  0  0  0  0
    5.9447   -4.1654    0.1161 O   0  0  0  0  0  0  0  0  0  0  0  0
    5.1551   -3.0134   -0.3490 C   0  0  2  0  0  0  0  0  0  0  0  0
    3.9124   -3.5991   -1.0531 C   0  0  0  0  0  0  0  0  0  0  0  0
    3.4107   -2.7430   -2.2162 C   0  0  0  0  0  0  0  0  0  0  0  0
    2.0115   -3.0930   -2.7283 C   0  0  0  0  0  0  0  0  0  0  0  0
    4.1319   -1.7212   -2.7440 C   0  0  0  0  0  0  0  0  0  0  0  0
    3.7512   -0.8135   -3.8756 C   0  0  0  0  0  0  0  0  0  0  0  0
    5.3666   -1.3460   -2.2668 O   0  0  0  0  0  0  0  0  0  0  0  0
    5.9178   -1.9500   -1.1113 C   0  0  1  0  0  0  0  0  0  0  0  0
    5.9052   -1.0575    0.0289 O   0  0  0  0  0  0  0  0  0  0  0  0
    4.9662   -1.9160    0.7275 C   0  0  0  0  0  0  0  0  0  0  0  0
    3.6118   -1.1819    0.8011 C   0  0  0  0  0  0  0  0  0  0  0  0
    5.4587   -2.0873    2.1888 C   0  0  0  0  0  0  0  0  0  0  0  0
    7.0143   -5.6809    1.9896 H   0  0  0  0  0  0  0  0  0  0  0  0
    8.6834   -5.2478    1.6214 H   0  0  0  0  0  0  0  0  0  0  0  0
    7.7875   -6.2546    0.4704 H   0  0  0  0  0  0  0  0  0  0  0  0
    4.1380   -4.5833   -1.4554 H   0  0  0  0  0  0  0  0  0  0  0  0
    3.0970   -3.7211   -0.3475 H   0  0  0  0  0  0  0  0  0  0  0  0
    1.8658   -4.1746   -2.7761 H   0  0  0  0  0  0  0  0  0  0  0  0
    1.8124   -2.6952   -3.7257 H   0  0  0  0  0  0  0  0  0  0  0  0
    1.2652   -2.6961   -2.0471 H   0  0  0  0  0  0  0  0  0  0  0  0
    2.6867   -0.7683   -4.0904 H   0  0  0  0  0  0  0  0  0  0  0  0
    4.2887   -1.1018   -4.7773 H   0  0  0  0  0  0  0  0  0  0  0  0
    4.0635    0.2072   -3.6276 H   0  0  0  0  0  0  0  0  0  0  0  0
    6.9271   -2.2759   -1.4007 H   0  0  0  0  0  0  0  0  0  0  0  0
    2.8451   -1.8174    1.2492 H   0  0  0  0  0  0  0  0  0  0  0  0
    3.2467   -0.8752   -0.1811 H   0  0  0  0  0  0  0  0  0  0  0  0
    3.6820   -0.2805    1.4072 H   0  0  0  0  0  0  0  0  0  0  0  0
    4.8278   -2.8139    2.7241 H   0  0  0  0  0  0  0  0  0  0  0  0
    5.3473   -1.1427    2.7374 H   0  0  0  0  0  0  0  0  0  0  0  0
    6.4933   -2.3977    2.2432 H   0  0  0  0  0  0  0  0  0  0  0  0
  1  2  1  0
  1 17  1  0
  1 18  1  0
  1 19  1  0
  2  3  2  0
  2  4  1  0
  5  4  1  1
  5 12  1  0
  5 14  1  0
  5  6  1  0
  6  7  1  0
  6 20  1  0
  6 21  1  0
  7  8  1  0
  7  9  2  0
  8 22  1  0
  8 23  1  0
  8 24  1  0
  9 10  1  0
  9 11  1  0
 10 25  1  0
 10 26  1  0
 10 27  1  0
 11 12  1  0
 12 13  1  0
 12 28  1  6
 13 14  1  0
 14 15  1  0
 14 16  1  0
 15 29  1  0
 15 30  1  0
 15 31  1  0
 16 32  1  0
 16 33  1  0
 16 34  1  0
M  END
>  <i_m_ct_stereo_status>  (329) 
1

>  <s_m_source_file>  (329) 
/var/tmp/pbs.5076255.sched01/tmpj3mqheq3/1200r5s1sfv.sdf

>  <i_m_source_file_index>  (329) 
15

>  <i_lp_mmshare_version>  (329) 
48012

>  <i_f3d_flags>  (329) 
0

>  <s_epik_input>  (329) 
W0NIM11DKD1PKU9bQ0BAXTEyW0NASF0oT0MyKFtDSDNdKVtDSDNdKU9DKFtDSDNdKT1DKFtDSDJdMSlbQ0gzXQ==

>  <s_epik_cmdline>  (329) 
J2VwaWtfcHl0aG9uJywgJy1waHQnLCAnMi4wJywgJy1waCcsICc3LjAnLCAnLXRuJywgJzgnLCAnLW1hJywgJzIwMCcsICctaW1hZScsICc8aW5maWxlLm1hZT4nLCAnLW9tYWUnLCAnPG91dGZpbGUubWFlPic=

>  <r_lp_tautomer_probability>  (329) 
1

>  <r_epik_Ionization_Penalty>  (329) 
1.05247e-15

>  <r_epik_Ionization_Penalty_Charging>  (329) 
0

>  <r_epik_Ionization_Penalty_Neutral>  (329) 
1.05247e-15

>  <r_epik_State_Penalty>  (329) 
-0

>  <r_epik_Charging_Adjusted_Penalty>  (329) 
0

>  <i_epik_Tot_Q>  (329) 
0

>  <i_epik_Tot_abs_Q>  (329) 
0

>  <s_epik_Chemistry_Notes>  (329) 
This compound has an ester and may undergo hydrolysis at high or low pH. This compound contains an acetal/aminal-like group ( X-CH(R)-Y where X, Y are N, S, or O) that may be acid/base labile, releasing an aldehyde.

>  <s_lp_Force_Field>  (329) 
OPLS3e

>  <r_lp_Energy>  (329) 
13.2612

>  <b_lp_Chiralities_Consistent>  (329) 
1

>  <s_lp_Variant>  (329) 
98:0-1

>  <s_i_glide_gridfile>  (329) 
pfpi4k_grid

>  <i_i_glide_lignum>  (329) 
15

>  <i_i_glide_rotatable_bonds>  (329) 
2

>  <r_i_docking_score>  (329) 
-3.54135

>  <r_i_glide_ligand_efficiency>  (329) 
-0.221334

>  <r_i_glide_ligand_efficiency_sa>  (329) 
-0.557727

>  <r_i_glide_ligand_efficiency_ln>  (329) 
-0.938705

>  <r_i_glide_gscore>  (329) 
-3.54135

>  <r_i_glide_lipo>  (329) 
-0.588929

>  <r_i_glide_hbond>  (329) 
0

>  <r_i_glide_metal>  (329) 
-0

>  <r_i_glide_rewards>  (329) 
-2.06542

>  <r_i_glide_evdw>  (329) 
-20.4738

>  <r_i_glide_ecoul>  (329) 
-0.957982

>  <r_i_glide_erotb>  (329) 
0.331868

>  <r_i_glide_esite>  (329) 
-0.0514749

>  <r_i_glide_emodel>  (329) 
-22.3068

>  <r_i_glide_energy>  (329) 
-21.4318

>  <r_i_glide_einternal>  (329) 
6.34237

>  <r_i_glide_intrahb_reward>  (329) 
-0

>  <i_i_glide_confnum>  (329) 
2

>  <i_i_glide_posenum>  (329) 
17

>  <r_i_glide_eff_state_penalty>  (329) 
0

>  <ligand_id>  (329) 
98

>  <original_smiles>  (329) 
CC(=O)OC12CC(C)=C(C)OC1OC2(C)C

>  <smiles>  (329) 
[H]C([H])([H])C(=O)OC12C([H])(OC(C([H])([H])[H])=C(C([H])([H])[H])C1([H])[H])OC2(C([H])([H])[H])C([H])([H])[H]

$$$$
98:0:2
     RDKit          3D

 34 35  0  0  1  0  0  0  0  0999 V2000
    8.9221   -3.8018    0.3974 C   0  0  0  0  0  0  0  0  0  0  0  0
    7.7223   -3.1775   -0.3012 C   0  0  0  0  0  0  0  0  0  0  0  0
    7.8488   -2.2618   -1.1165 O   0  0  0  0  0  0  0  0  0  0  0  0
    6.5647   -3.7496    0.0537 O   0  0  0  0  0  0  0  0  0  0  0  0
    5.2996   -3.3270   -0.4694 C   0  0  2  0  0  0  0  0  0  0  0  0
    5.1586   -3.8097   -1.9092 C   0  0  0  0  0  0  0  0  0  0  0  0
    4.2751   -2.9051   -2.7431 C   0  0  0  0  0  0  0  0  0  0  0  0
    3.8492   -3.5184   -4.0684 C   0  0  0  0  0  0  0  0  0  0  0  0
    3.8983   -1.6701   -2.3350 C   0  0  0  0  0  0  0  0  0  0  0  0
    3.0197   -0.7075   -3.1034 C   0  0  0  0  0  0  0  0  0  0  0  0
    4.2724   -1.1067   -1.1371 O   0  0  0  0  0  0  0  0  0  0  0  0
    4.9369   -1.8769   -0.1351 C   0  0  1  0  0  0  0  0  0  0  0  0
    4.0395   -2.2851    0.9194 O   0  0  0  0  0  0  0  0  0  0  0  0
    4.2004   -3.6800    0.5576 C   0  0  0  0  0  0  0  0  0  0  0  0
    2.8410   -4.1805    0.0566 C   0  0  0  0  0  0  0  0  0  0  0  0
    4.5671   -4.4134    1.8500 C   0  0  0  0  0  0  0  0  0  0  0  0
    8.7815   -3.8245    1.4760 H   0  0  0  0  0  0  0  0  0  0  0  0
    9.8185   -3.2263    0.1823 H   0  0  0  0  0  0  0  0  0  0  0  0
    9.0658   -4.8261    0.0593 H   0  0  0  0  0  0  0  0  0  0  0  0
    6.1178   -3.8525   -2.4289 H   0  0  0  0  0  0  0  0  0  0  0  0
    4.7611   -4.8258   -1.9168 H   0  0  0  0  0  0  0  0  0  0  0  0
    4.6913   -4.0273   -4.5450 H   0  0  0  0  0  0  0  0  0  0  0  0
    3.4788   -2.7669   -4.7603 H   0  0  0  0  0  0  0  0  0  0  0  0
    3.0485   -4.2491   -3.9180 H   0  0  0  0  0  0  0  0  0  0  0  0
    2.4374   -1.1646   -3.9013 H   0  0  0  0  0  0  0  0  0  0  0  0
    3.6199    0.0983   -3.5155 H   0  0  0  0  0  0  0  0  0  0  0  0
    2.3005   -0.2677   -2.4168 H   0  0  0  0  0  0  0  0  0  0  0  0
    5.7741   -1.3164    0.2737 H   0  0  0  0  0  0  0  0  0  0  0  0
    2.9129   -5.2102   -0.2932 H   0  0  0  0  0  0  0  0  0  0  0  0
    2.4599   -3.5724   -0.7657 H   0  0  0  0  0  0  0  0  0  0  0  0
    2.0971   -4.1477    0.8539 H   0  0  0  0  0  0  0  0  0  0  0  0
    4.7840   -5.4663    1.6588 H   0  0  0  0  0  0  0  0  0  0  0  0
    3.7502   -4.3615    2.5730 H   0  0  0  0  0  0  0  0  0  0  0  0
    5.4385   -3.9664    2.3354 H   0  0  0  0  0  0  0  0  0  0  0  0
  1  2  1  0
  1 17  1  0
  1 18  1  0
  1 19  1  0
  2  3  2  0
  2  4  1  0
  5  4  1  1
  5 12  1  0
  5 14  1  0
  5  6  1  0
  6  7  1  0
  6 20  1  0
  6 21  1  0
  7  8  1  0
  7  9  2  0
  8 22  1  0
  8 23  1  0
  8 24  1  0
  9 10  1  0
  9 11  1  0
 10 25  1  0
 10 26  1  0
 10 27  1  0
 11 12  1  0
 12 13  1  0
 12 28  1  1
 13 14  1  0
 14 15  1  0
 14 16  1  0
 15 29  1  0
 15 30  1  0
 15 31  1  0
 16 32  1  0
 16 33  1  0
 16 34  1  0
M  END
>  <i_m_ct_stereo_status>  (330) 
1

>  <s_m_source_file>  (330) 
/var/tmp/pbs.5076255.sched01/tmpj3mqheq3/1200r5s1sfv.sdf

>  <i_m_source_file_index>  (330) 
15

>  <i_lp_mmshare_version>  (330) 
48012

>  <i_f3d_flags>  (330) 
0

>  <s_epik_input>  (330) 
W0NIM11DKD1PKU9bQ0BAXTEyW0NASF0oT0MyKFtDSDNdKVtDSDNdKU9DKFtDSDNdKT1DKFtDSDJdMSlbQ0gzXQ==

>  <s_epik_cmdline>  (330) 
J2VwaWtfcHl0aG9uJywgJy1waHQnLCAnMi4wJywgJy1waCcsICc3LjAnLCAnLXRuJywgJzgnLCAnLW1hJywgJzIwMCcsICctaW1hZScsICc8aW5maWxlLm1hZT4nLCAnLW9tYWUnLCAnPG91dGZpbGUubWFlPic=

>  <r_lp_tautomer_probability>  (330) 
1

>  <r_epik_Ionization_Penalty>  (330) 
1.05247e-15

>  <r_epik_Ionization_Penalty_Charging>  (330) 
0

>  <r_epik_Ionization_Penalty_Neutral>  (330) 
1.05247e-15

>  <r_epik_State_Penalty>  (330) 
-0

>  <r_epik_Charging_Adjusted_Penalty>  (330) 
0

>  <i_epik_Tot_Q>  (330) 
0

>  <i_epik_Tot_abs_Q>  (330) 
0

>  <s_epik_Chemistry_Notes>  (330) 
This compound has an ester and may undergo hydrolysis at high or low pH. This compound contains an acetal/aminal-like group ( X-CH(R)-Y where X, Y are N, S, or O) that may be acid/base labile, releasing an aldehyde.

>  <s_lp_Force_Field>  (330) 
OPLS3e

>  <r_lp_Energy>  (330) 
13.2612

>  <b_lp_Chiralities_Consistent>  (330) 
1

>  <s_lp_Variant>  (330) 
98:0-1

>  <s_i_glide_gridfile>  (330) 
pfpi4k_grid

>  <i_i_glide_lignum>  (330) 
15

>  <i_i_glide_rotatable_bonds>  (330) 
2

>  <r_i_docking_score>  (330) 
-3.45831

>  <r_i_glide_ligand_efficiency>  (330) 
-0.216144

>  <r_i_glide_ligand_efficiency_sa>  (330) 
-0.544649

>  <r_i_glide_ligand_efficiency_ln>  (330) 
-0.916693

>  <r_i_glide_gscore>  (330) 
-3.45831

>  <r_i_glide_lipo>  (330) 
-0.204404

>  <r_i_glide_hbond>  (330) 
-0.16

>  <r_i_glide_metal>  (330) 
-0

>  <r_i_glide_rewards>  (330) 
-2.08262

>  <r_i_glide_evdw>  (330) 
-21.4289

>  <r_i_glide_ecoul>  (330) 
-1.75652

>  <r_i_glide_erotb>  (330) 
0.331868

>  <r_i_glide_esite>  (330) 
-0.00822097

>  <r_i_glide_emodel>  (330) 
-27.9983

>  <r_i_glide_energy>  (330) 
-23.1854

>  <r_i_glide_einternal>  (330) 
0.00133476

>  <r_i_glide_intrahb_reward>  (330) 
-0

>  <i_i_glide_confnum>  (330) 
4

>  <i_i_glide_posenum>  (330) 
13

>  <r_i_glide_eff_state_penalty>  (330) 
0

>  <ligand_id>  (330) 
98

>  <original_smiles>  (330) 
CC(=O)OC12CC(C)=C(C)OC1OC2(C)C

>  <smiles>  (330) 
[H]C([H])([H])C(=O)OC12C([H])(OC(C([H])([H])[H])=C(C([H])([H])[H])C1([H])[H])OC2(C([H])([H])[H])C([H])([H])[H]

$$$$
99:0:0
     RDKit          3D

 28 30  0  0  1  0  0  0  0  0999 V2000
    2.7848   -3.0572    0.8560 C   0  0  0  0  0  0  0  0  0  0  0  0
    3.9329   -2.8496   -0.1422 C   0  0  2  0  0  0  0  0  0  0  0  0
    3.5059   -2.8552   -1.6175 C   0  0  0  0  0  0  0  0  0  0  0  0
    4.7426   -2.2405   -2.2658 C   0  0  2  0  0  0  0  0  0  0  0  0
    5.9572   -3.1761   -2.0378 C   0  0  0  0  0  0  0  0  0  0  0  0
    6.0967   -3.4930   -0.5165 C   0  0  2  0  0  0  0  0  0  0  0  0
    4.8351   -3.9565   -0.0595 O   0  0  0  0  0  0  0  0  0  0  0  0
    6.1865   -2.2476    0.3630 C   0  0  1  0  0  0  0  0  0  0  0  0
    7.3331   -1.4562    0.1166 O   0  0  0  0  0  0  0  0  0  0  0  0
    4.8427   -1.5859    0.0308 C   0  0  2  0  0  0  0  0  0  0  0  0
    4.4066   -0.5510    1.0833 C   0  0  0  0  0  0  0  0  0  0  0  0
    4.9013   -1.0010   -1.3982 C   0  0  0  0  0  0  0  0  0  0  0  0
    2.0558   -2.2487    0.7996 H   0  0  0  0  0  0  0  0  0  0  0  0
    3.1528   -3.1085    1.8809 H   0  0  0  0  0  0  0  0  0  0  0  0
    2.2615   -3.9887    0.6439 H   0  0  0  0  0  0  0  0  0  0  0  0
    3.2817   -3.8542   -1.9898 H   0  0  0  0  0  0  0  0  0  0  0  0
    2.6233   -2.2324   -1.7832 H   0  0  0  0  0  0  0  0  0  0  0  0
    4.5927   -2.0058   -3.3197 H   0  0  0  0  0  0  0  0  0  0  0  0
    5.8042   -4.1055   -2.5881 H   0  0  0  0  0  0  0  0  0  0  0  0
    6.8747   -2.7240   -2.4223 H   0  0  0  0  0  0  0  0  0  0  0  0
    6.8912   -4.2106   -0.3117 H   0  0  0  0  0  0  0  0  0  0  0  0
    6.2124   -2.5511    1.4130 H   0  0  0  0  0  0  0  0  0  0  0  0
    7.4118   -0.8230    0.8215 H   0  0  0  0  0  0  0  0  0  0  0  0
    5.0981    0.2895    1.1058 H   0  0  0  0  0  0  0  0  0  0  0  0
    4.3792   -0.9823    2.0840 H   0  0  0  0  0  0  0  0  0  0  0  0
    3.4158   -0.1529    0.8628 H   0  0  0  0  0  0  0  0  0  0  0  0
    5.8115   -0.4470   -1.6166 H   0  0  0  0  0  0  0  0  0  0  0  0
    4.0714   -0.3189   -1.5749 H   0  0  0  0  0  0  0  0  0  0  0  0
  2  1  1  1
  1 13  1  0
  1 14  1  0
  1 15  1  0
  2  7  1  0
  2 10  1  0
  2  3  1  0
  3  4  1  0
  3 16  1  0
  3 17  1  0
  4 12  1  0
  4  5  1  0
  4 18  1  6
  5  6  1  0
  5 19  1  0
  5 20  1  0
  6  7  1  0
  6  8  1  0
  6 21  1  6
  8  9  1  0
  8 10  1  0
  8 22  1  1
  9 23  1  0
 10 11  1  1
 10 12  1  0
 11 24  1  0
 11 25  1  0
 11 26  1  0
 12 27  1  0
 12 28  1  0
M  END
>  <i_m_ct_stereo_status>  (331) 
1

>  <s_m_source_file>  (331) 
/var/tmp/pbs.5076255.sched01/tmpj3mqheq3/1200r5s1sfv.sdf

>  <i_m_source_file_index>  (331) 
16

>  <i_lp_mmshare_version>  (331) 
48012

>  <i_f3d_flags>  (331) 
0

>  <s_epik_input>  (331) 
W0NIM11bQ0BdMTJbQ0BAXTMoW0NIM10pW0NASF0oW09IXSlbQ0BASF0oTzIpW0NIMl1bQ0BASF0oW0NIMl0xKVtDSDJdMw==

>  <s_epik_cmdline>  (331) 
J2VwaWtfcHl0aG9uJywgJy1waHQnLCAnMi4wJywgJy1waCcsICc3LjAnLCAnLXRuJywgJzgnLCAnLW1hJywgJzIwMCcsICctaW1hZScsICc8aW5maWxlLm1hZT4nLCAnLW9tYWUnLCAnPG91dGZpbGUubWFlPic=

>  <r_lp_tautomer_probability>  (331) 
1

>  <r_epik_Ionization_Penalty>  (331) 
8.61133e-08

>  <r_epik_Ionization_Penalty_Charging>  (331) 
0

>  <r_epik_Ionization_Penalty_Neutral>  (331) 
8.61133e-08

>  <r_epik_State_Penalty>  (331) 
-0

>  <r_epik_Charging_Adjusted_Penalty>  (331) 
0

>  <i_epik_Tot_Q>  (331) 
0

>  <i_epik_Tot_abs_Q>  (331) 
0

>  <s_lp_Force_Field>  (331) 
OPLS3e

>  <r_lp_Energy>  (331) 
27.0121

>  <b_lp_Chiralities_Consistent>  (331) 
1

>  <s_lp_Variant>  (331) 
99:0-1

>  <s_i_glide_gridfile>  (331) 
pfpi4k_grid

>  <i_i_glide_lignum>  (331) 
16

>  <i_i_glide_rotatable_bonds>  (331) 
1

>  <r_i_docking_score>  (331) 
-4.18906

>  <r_i_glide_ligand_efficiency>  (331) 
-0.349089

>  <r_i_glide_ligand_efficiency_sa>  (331) 
-0.799213

>  <r_i_glide_ligand_efficiency_ln>  (331) 
-1.20206

>  <r_i_glide_gscore>  (331) 
-4.18906

>  <r_i_glide_lipo>  (331) 
-0.476115

>  <r_i_glide_hbond>  (331) 
-0.154879

>  <r_i_glide_metal>  (331) 
-0

>  <r_i_glide_rewards>  (331) 
-2.25

>  <r_i_glide_evdw>  (331) 
-16.6418

>  <r_i_glide_ecoul>  (331) 
-3.1732

>  <r_i_glide_erotb>  (331) 
0

>  <r_i_glide_esite>  (331) 
0

>  <r_i_glide_emodel>  (331) 
-24.8566

>  <r_i_glide_energy>  (331) 
-19.815

>  <r_i_glide_einternal>  (331) 
0.424206

>  <r_i_glide_intrahb_reward>  (331) 
-0

>  <i_i_glide_confnum>  (331) 
2

>  <i_i_glide_posenum>  (331) 
7

>  <r_i_glide_eff_state_penalty>  (331) 
0

>  <ligand_id>  (331) 
99

>  <original_smiles>  (331) 
CC12CC3CC(O1)C(O)C2(C)C3

>  <smiles>  (331) 
[H]OC1([H])C2([H])OC3(C([H])([H])[H])C([H])([H])C([H])(C2([H])[H])C([H])([H])C13C([H])([H])[H]

$$$$
99:0:1
     RDKit          3D

 28 30  0  0  1  0  0  0  0  0999 V2000
    2.4310   -3.0415   -3.2922 C   0  0  0  0  0  0  0  0  0  0  0  0
    3.5872   -2.7115   -2.3367 C   0  0  2  0  0  0  0  0  0  0  0  0
    3.8189   -1.2088   -2.1303 C   0  0  0  0  0  0  0  0  0  0  0  0
    4.6915   -1.2340   -0.8778 C   0  0  2  0  0  0  0  0  0  0  0  0
    6.0209   -1.9808   -1.1903 C   0  0  0  0  0  0  0  0  0  0  0  0
    5.7188   -3.3643   -1.8223 C   0  0  2  0  0  0  0  0  0  0  0  0
    4.8242   -3.1548   -2.9038 O   0  0  0  0  0  0  0  0  0  0  0  0
    4.8226   -4.2267   -0.9479 C   0  0  1  0  0  0  0  0  0  0  0  0
    5.4023   -4.5401    0.3053 O   0  0  0  0  0  0  0  0  0  0  0  0
    3.5746   -3.3346   -0.8935 C   0  0  2  0  0  0  0  0  0  0  0  0
    2.3076   -4.0821   -0.4774 C   0  0  0  0  0  0  0  0  0  0  0  0
    3.8389   -2.1158    0.0251 C   0  0  0  0  0  0  0  0  0  0  0  0
    1.4822   -2.6868   -2.8883 H   0  0  0  0  0  0  0  0  0  0  0  0
    2.3347   -4.1106   -3.4666 H   0  0  0  0  0  0  0  0  0  0  0  0
    2.5757   -2.5657   -4.2600 H   0  0  0  0  0  0  0  0  0  0  0  0
    4.3070   -0.7362   -2.9806 H   0  0  0  0  0  0  0  0  0  0  0  0
    2.8735   -0.6863   -1.9538 H   0  0  0  0  0  0  0  0  0  0  0  0
    4.8528   -0.2477   -0.4480 H   0  0  0  0  0  0  0  0  0  0  0  0
    6.5963   -1.4396   -1.9262 H   0  0  0  0  0  0  0  0  0  0  0  0
    6.6334   -2.0750   -0.2944 H   0  0  0  0  0  0  0  0  0  0  0  0
    6.6269   -3.8549   -2.1535 H   0  0  0  0  0  0  0  0  0  0  0  0
    4.6188   -5.1593   -1.4806 H   0  0  0  0  0  0  0  0  0  0  0  0
    5.5761   -3.7350    0.7642 H   0  0  0  0  0  0  0  0  0  0  0  0
    2.3874   -4.4365    0.5482 H   0  0  0  0  0  0  0  0  0  0  0  0
    2.1015   -4.9402   -1.1108 H   0  0  0  0  0  0  0  0  0  0  0  0
    1.4563   -3.4128   -0.5528 H   0  0  0  0  0  0  0  0  0  0  0  0
    4.3231   -2.3575    0.9718 H   0  0  0  0  0  0  0  0  0  0  0  0
    2.9075   -1.6068    0.2811 H   0  0  0  0  0  0  0  0  0  0  0  0
  2  1  1  6
  1 13  1  0
  1 14  1  0
  1 15  1  0
  2  7  1  0
  2 10  1  0
  2  3  1  0
  3  4  1  0
  3 16  1  0
  3 17  1  0
  4 12  1  0
  4  5  1  0
  4 18  1  1
  5  6  1  0
  5 19  1  0
  5 20  1  0
  6  7  1  0
  6  8  1  0
  6 21  1  6
  8  9  1  0
  8 10  1  0
  8 22  1  6
  9 23  1  0
 10 11  1  1
 10 12  1  0
 11 24  1  0
 11 25  1  0
 11 26  1  0
 12 27  1  0
 12 28  1  0
M  END
>  <i_m_ct_stereo_status>  (332) 
1

>  <s_m_source_file>  (332) 
/var/tmp/pbs.5076255.sched01/tmpj3mqheq3/1200r5s1sfv.sdf

>  <i_m_source_file_index>  (332) 
16

>  <i_lp_mmshare_version>  (332) 
48012

>  <i_f3d_flags>  (332) 
0

>  <s_epik_input>  (332) 
W0NIM11bQ0BdMTJbQ0BAXTMoW0NIM10pW0NASF0oW09IXSlbQ0BASF0oTzIpW0NIMl1bQ0BASF0oW0NIMl0xKVtDSDJdMw==

>  <s_epik_cmdline>  (332) 
J2VwaWtfcHl0aG9uJywgJy1waHQnLCAnMi4wJywgJy1waCcsICc3LjAnLCAnLXRuJywgJzgnLCAnLW1hJywgJzIwMCcsICctaW1hZScsICc8aW5maWxlLm1hZT4nLCAnLW9tYWUnLCAnPG91dGZpbGUubWFlPic=

>  <r_lp_tautomer_probability>  (332) 
1

>  <r_epik_Ionization_Penalty>  (332) 
8.61133e-08

>  <r_epik_Ionization_Penalty_Charging>  (332) 
0

>  <r_epik_Ionization_Penalty_Neutral>  (332) 
8.61133e-08

>  <r_epik_State_Penalty>  (332) 
-0

>  <r_epik_Charging_Adjusted_Penalty>  (332) 
0

>  <i_epik_Tot_Q>  (332) 
0

>  <i_epik_Tot_abs_Q>  (332) 
0

>  <s_lp_Force_Field>  (332) 
OPLS3e

>  <r_lp_Energy>  (332) 
27.0121

>  <b_lp_Chiralities_Consistent>  (332) 
1

>  <s_lp_Variant>  (332) 
99:0-1

>  <s_i_glide_gridfile>  (332) 
pfpi4k_grid

>  <i_i_glide_lignum>  (332) 
16

>  <i_i_glide_rotatable_bonds>  (332) 
1

>  <r_i_docking_score>  (332) 
-3.6674

>  <r_i_glide_ligand_efficiency>  (332) 
-0.305617

>  <r_i_glide_ligand_efficiency_sa>  (332) 
-0.699687

>  <r_i_glide_ligand_efficiency_ln>  (332) 
-1.05237

>  <r_i_glide_gscore>  (332) 
-3.6674

>  <r_i_glide_lipo>  (332) 
-0.40984

>  <r_i_glide_hbond>  (332) 
0

>  <r_i_glide_metal>  (332) 
-0

>  <r_i_glide_rewards>  (332) 
-2.25

>  <r_i_glide_evdw>  (332) 
-16.2774

>  <r_i_glide_ecoul>  (332) 
-1.29126

>  <r_i_glide_erotb>  (332) 
0

>  <r_i_glide_esite>  (332) 
0

>  <r_i_glide_emodel>  (332) 
-22.0748

>  <r_i_glide_energy>  (332) 
-17.5687

>  <r_i_glide_einternal>  (332) 
0.0038697

>  <r_i_glide_intrahb_reward>  (332) 
-0

>  <i_i_glide_confnum>  (332) 
1

>  <i_i_glide_posenum>  (332) 
39

>  <r_i_glide_eff_state_penalty>  (332) 
0

>  <ligand_id>  (332) 
99

>  <original_smiles>  (332) 
CC12CC3CC(O1)C(O)C2(C)C3

>  <smiles>  (332) 
[H]OC1([H])C2([H])OC3(C([H])([H])[H])C([H])([H])C([H])(C2([H])[H])C([H])([H])C13C([H])([H])[H]

$$$$
99:0:2
     RDKit          3D

 28 30  0  0  1  0  0  0  0  0999 V2000
    3.8512   -5.1042    0.4823 C   0  0  0  0  0  0  0  0  0  0  0  0
    4.2728   -3.8258   -0.2580 C   0  0  2  0  0  0  0  0  0  0  0  0
    3.1477   -3.1531   -1.0589 C   0  0  0  0  0  0  0  0  0  0  0  0
    3.7690   -1.7798   -1.2991 C   0  0  2  0  0  0  0  0  0  0  0  0
    5.0326   -1.9451   -2.1785 C   0  0  0  0  0  0  0  0  0  0  0  0
    5.9917   -2.9861   -1.5229 C   0  0  2  0  0  0  0  0  0  0  0  0
    5.2332   -4.1579   -1.2668 O   0  0  0  0  0  0  0  0  0  0  0  0
    6.3501   -2.6614   -0.0722 C   0  0  1  0  0  0  0  0  0  0  0  0
    7.0714   -1.4550    0.0793 O   0  0  0  0  0  0  0  0  0  0  0  0
    4.9543   -2.6784    0.5668 C   0  0  2  0  0  0  0  0  0  0  0  0
    4.9970   -2.8486    2.0965 C   0  0  0  0  0  0  0  0  0  0  0  0
    4.1783   -1.4131    0.1267 C   0  0  0  0  0  0  0  0  0  0  0  0
    3.0897   -4.9034    1.2349 H   0  0  0  0  0  0  0  0  0  0  0  0
    4.7014   -5.5757    0.9759 H   0  0  0  0  0  0  0  0  0  0  0  0
    3.4388   -5.8322   -0.2173 H   0  0  0  0  0  0  0  0  0  0  0  0
    2.9033   -3.6848   -1.9798 H   0  0  0  0  0  0  0  0  0  0  0  0
    2.2340   -3.0643   -0.4704 H   0  0  0  0  0  0  0  0  0  0  0  0
    3.0574   -1.0723   -1.7276 H   0  0  0  0  0  0  0  0  0  0  0  0
    4.7495   -2.2864   -3.1751 H   0  0  0  0  0  0  0  0  0  0  0  0
    5.5301   -0.9842   -2.3031 H   0  0  0  0  0  0  0  0  0  0  0  0
    6.8660   -3.1945   -2.1394 H   0  0  0  0  0  0  0  0  0  0  0  0
    6.9622   -3.4682    0.3365 H   0  0  0  0  0  0  0  0  0  0  0  0
    7.1948   -1.2865    1.0006 H   0  0  0  0  0  0  0  0  0  0  0  0
    5.4729   -1.9912    2.5742 H   0  0  0  0  0  0  0  0  0  0  0  0
    5.5575   -3.7374    2.3857 H   0  0  0  0  0  0  0  0  0  0  0  0
    3.9922   -2.9382    2.5120 H   0  0  0  0  0  0  0  0  0  0  0  0
    4.7487   -0.4852    0.1789 H   0  0  0  0  0  0  0  0  0  0  0  0
    3.2856   -1.2703    0.7403 H   0  0  0  0  0  0  0  0  0  0  0  0
  2  1  1  1
  1 13  1  0
  1 14  1  0
  1 15  1  0
  2  7  1  0
  2 10  1  0
  2  3  1  0
  3  4  1  0
  3 16  1  0
  3 17  1  0
  4 12  1  0
  4  5  1  0
  4 18  1  6
  5  6  1  0
  5 19  1  0
  5 20  1  0
  6  7  1  0
  6  8  1  0
  6 21  1  6
  8  9  1  0
  8 10  1  0
  8 22  1  1
  9 23  1  0
 10 11  1  1
 10 12  1  0
 11 24  1  0
 11 25  1  0
 11 26  1  0
 12 27  1  0
 12 28  1  0
M  END
>  <i_m_ct_stereo_status>  (333) 
1

>  <s_m_source_file>  (333) 
/var/tmp/pbs.5076255.sched01/tmpj3mqheq3/1200r5s1sfv.sdf

>  <i_m_source_file_index>  (333) 
16

>  <i_lp_mmshare_version>  (333) 
48012

>  <i_f3d_flags>  (333) 
0

>  <s_epik_input>  (333) 
W0NIM11bQ0BdMTJbQ0BAXTMoW0NIM10pW0NASF0oW09IXSlbQ0BASF0oTzIpW0NIMl1bQ0BASF0oW0NIMl0xKVtDSDJdMw==

>  <s_epik_cmdline>  (333) 
J2VwaWtfcHl0aG9uJywgJy1waHQnLCAnMi4wJywgJy1waCcsICc3LjAnLCAnLXRuJywgJzgnLCAnLW1hJywgJzIwMCcsICctaW1hZScsICc8aW5maWxlLm1hZT4nLCAnLW9tYWUnLCAnPG91dGZpbGUubWFlPic=

>  <r_lp_tautomer_probability>  (333) 
1

>  <r_epik_Ionization_Penalty>  (333) 
8.61133e-08

>  <r_epik_Ionization_Penalty_Charging>  (333) 
0

>  <r_epik_Ionization_Penalty_Neutral>  (333) 
8.61133e-08

>  <r_epik_State_Penalty>  (333) 
-0

>  <r_epik_Charging_Adjusted_Penalty>  (333) 
0

>  <i_epik_Tot_Q>  (333) 
0

>  <i_epik_Tot_abs_Q>  (333) 
0

>  <s_lp_Force_Field>  (333) 
OPLS3e

>  <r_lp_Energy>  (333) 
27.0121

>  <b_lp_Chiralities_Consistent>  (333) 
1

>  <s_lp_Variant>  (333) 
99:0-1

>  <s_i_glide_gridfile>  (333) 
pfpi4k_grid

>  <i_i_glide_lignum>  (333) 
16

>  <i_i_glide_rotatable_bonds>  (333) 
1

>  <r_i_docking_score>  (333) 
-3.63484

>  <r_i_glide_ligand_efficiency>  (333) 
-0.302903

>  <r_i_glide_ligand_efficiency_sa>  (333) 
-0.693475

>  <r_i_glide_ligand_efficiency_ln>  (333) 
-1.04302

>  <r_i_glide_gscore>  (333) 
-3.63484

>  <r_i_glide_lipo>  (333) 
-0.18879

>  <r_i_glide_hbond>  (333) 
-0.0945829

>  <r_i_glide_metal>  (333) 
-0

>  <r_i_glide_rewards>  (333) 
-2.25

>  <r_i_glide_evdw>  (333) 
-16.5309

>  <r_i_glide_ecoul>  (333) 
-1.83281

>  <r_i_glide_erotb>  (333) 
0

>  <r_i_glide_esite>  (333) 
0

>  <r_i_glide_emodel>  (333) 
-22.8109

>  <r_i_glide_energy>  (333) 
-18.3637

>  <r_i_glide_einternal>  (333) 
0.334168

>  <r_i_glide_intrahb_reward>  (333) 
-0

>  <i_i_glide_confnum>  (333) 
1

>  <i_i_glide_posenum>  (333) 
9

>  <r_i_glide_eff_state_penalty>  (333) 
0

>  <ligand_id>  (333) 
99

>  <original_smiles>  (333) 
CC12CC3CC(O1)C(O)C2(C)C3

>  <smiles>  (333) 
[H]OC1([H])C2([H])OC3(C([H])([H])[H])C([H])([H])C([H])(C2([H])[H])C([H])([H])C13C([H])([H])[H]

$$$$
100:2:0
     RDKit          3D

 84 92  0  0  1  0  0  0  0  0999 V2000
    4.1184  -11.4630    9.3967 C   0  0  0  0  0  0  0  0  0  0  0  0
    3.8743  -10.1366    8.9358 O   0  0  0  0  0  0  0  0  0  0  0  0
    3.9416   -9.8963    7.5183 C   0  0  2  0  0  0  0  0  0  0  0  0
    5.0931   -8.9808    7.0009 C   0  0  2  0  0  0  0  0  0  0  0  0
    5.3531   -7.3739    7.5743 C   0  0  2  0  0  0  0  0  0  0  0  0
    4.5916   -7.3219    8.8383 C   0  0  0  0  0  0  0  0  0  0  0  0
    3.1988   -7.3988    8.1819 C   0  0  1  0  0  0  0  0  0  0  0  0
    2.0831   -6.5482    8.8125 C   0  0  2  0  0  0  0  0  0  0  0  0
    0.7525   -6.9409    8.2066 O   0  0  0  0  0  0  0  0  0  0  0  0
    0.7042   -8.3105    7.6272 C   0  0  1  0  0  0  0  0  0  0  0  0
    0.6000   -9.1458    8.9698 C   0  0  0  0  0  0  0  0  0  0  0  0
   -0.0053   -9.2577    6.4192 C   0  0  0  0  0  0  0  0  0  0  0  0
    0.9398   -9.9878    5.1870 C   0  0  2  0  0  0  0  0  0  0  0  0
    2.3573  -10.3879    5.6775 N   0  0  1  0  0  0  0  0  0  0  0  0
    3.7619  -10.5113    4.9813 C   0  0  0  0  0  0  0  0  0  0  0  0
    4.9918   -9.4575    5.4776 C   0  0  2  0  0  0  0  0  0  0  0  0
    6.3245  -10.2019    5.1815 C   0  0  0  0  0  0  0  0  0  0  0  0
    5.0289   -8.1314    4.7260 C   0  0  1  0  0  0  0  0  0  0  0  0
    5.2441   -8.3659    3.3241 O   0  0  0  0  0  0  0  0  0  0  0  0
    6.5249   -7.9962    2.8294 C   0  0  0  0  0  0  0  0  0  0  0  0
    3.6550   -7.4683    4.9077 C   0  0  1  0  0  0  0  0  0  0  0  0
    3.8051   -6.2871    4.1223 O   0  0  0  0  0  0  0  0  0  0  0  0
    2.8504   -8.3576    4.1570 O   0  0  0  0  0  0  0  0  0  0  0  0
    1.7784   -8.2426    3.3597 C   0  0  0  0  0  0  0  0  0  0  0  0
    1.5322   -7.3243    2.5566 O   0  0  0  0  0  0  0  0  0  0  0  0
    0.8320   -9.4425    3.6646 C   0  0  0  0  0  0  0  0  0  0  0  0
    1.1659  -10.6014    2.6954 C   0  0  0  0  0  0  0  0  0  0  0  0
   -0.6389   -9.0845    3.2539 C   0  0  0  0  0  0  0  0  0  0  0  0
    3.0323   -7.1184    6.5276 C   0  0  2  0  0  0  0  0  0  0  0  0
    3.4029   -5.6806    6.5668 C   0  0  2  0  0  0  0  0  0  0  0  0
    4.8553   -5.9147    6.9733 C   0  0  1  0  0  0  0  0  0  0  0  0
    3.8279   -4.9198    7.7242 C   0  0  2  0  0  0  0  0  0  0  0  0
    2.6280   -5.0843    8.7004 C   0  0  1  0  0  0  0  0  0  0  0  0
    1.5830   -4.1804    8.3192 O   0  0  0  0  0  0  0  0  0  0  0  0
    0.7228   -3.6131    9.2053 C   0  0  0  0  0  0  0  0  0  0  0  0
    0.9011   -4.0005   10.6727 C   0  0  0  0  0  0  0  0  0  0  0  0
   -0.1670   -2.8304    8.8689 O   0  0  0  0  0  0  0  0  0  0  0  0
    1.8193   -7.9940    6.6267 C   0  0  2  0  0  0  0  0  0  0  0  0
    0.9338   -6.9546    5.6918 C   0  0  0  0  0  0  0  0  0  0  0  0
    2.5566   -9.5390    6.7779 C   0  0  2  0  0  0  0  0  0  0  0  0
    3.9749  -11.5199   10.4762 H   0  0  0  0  0  0  0  0  0  0  0  0
    5.1481  -11.7596    9.1814 H   0  0  0  0  0  0  0  0  0  0  0  0
    3.4368  -12.1823    8.9351 H   0  0  0  0  0  0  0  0  0  0  0  0
    4.2456  -10.9047    7.2292 H   0  0  0  0  0  0  0  0  0  0  0  0
    5.9568   -9.4808    7.4398 H   0  0  0  0  0  0  0  0  0  0  0  0
    6.4166   -7.2675    7.7987 H   0  0  0  0  0  0  0  0  0  0  0  0
    4.8274   -8.1386    9.5180 H   0  0  0  0  0  0  0  0  0  0  0  0
    4.7954   -6.4267    9.4239 H   0  0  0  0  0  0  0  0  0  0  0  0
    2.8565   -8.2556    8.6859 H   0  0  0  0  0  0  0  0  0  0  0  0
    2.0191   -6.7755    9.8780 H   0  0  0  0  0  0  0  0  0  0  0  0
    0.6153  -10.2285    8.8592 H   0  0  0  0  0  0  0  0  0  0  0  0
   -0.3803   -8.9454    9.3969 H   0  0  0  0  0  0  0  0  0  0  0  0
    1.3010   -8.9123    9.7675 H   0  0  0  0  0  0  0  0  0  0  0  0
   -0.4386  -10.1082    6.9456 H   0  0  0  0  0  0  0  0  0  0  0  0
   -0.9268   -8.8213    6.0232 H   0  0  0  0  0  0  0  0  0  0  0  0
    0.4532  -10.9556    5.1029 H   0  0  0  0  0  0  0  0  0  0  0  0
    4.0847  -11.5216    5.2005 H   0  0  0  0  0  0  0  0  0  0  0  0
    3.7305  -10.5343    3.8987 H   0  0  0  0  0  0  0  0  0  0  0  0
    6.3837  -10.5260    4.1403 H   0  0  0  0  0  0  0  0  0  0  0  0
    6.4373  -11.1004    5.7916 H   0  0  0  0  0  0  0  0  0  0  0  0
    7.1981   -9.5698    5.3856 H   0  0  0  0  0  0  0  0  0  0  0  0
    5.8176   -7.4641    5.0895 H   0  0  0  0  0  0  0  0  0  0  0  0
    6.5753   -8.2308    1.7671 H   0  0  0  0  0  0  0  0  0  0  0  0
    7.3388   -8.5356    3.3120 H   0  0  0  0  0  0  0  0  0  0  0  0
    6.7097   -6.9292    2.9532 H   0  0  0  0  0  0  0  0  0  0  0  0
    4.1978   -6.5561    3.3108 H   0  0  0  0  0  0  0  0  0  0  0  0
    0.3700  -11.3438    2.6549 H   0  0  0  0  0  0  0  0  0  0  0  0
    2.0611  -11.1593    2.9383 H   0  0  0  0  0  0  0  0  0  0  0  0
    1.2917  -10.2243    1.6824 H   0  0  0  0  0  0  0  0  0  0  0  0
   -1.2921   -9.9558    3.2832 H   0  0  0  0  0  0  0  0  0  0  0  0
   -0.6819   -8.7186    2.2229 H   0  0  0  0  0  0  0  0  0  0  0  0
   -1.1271   -8.3303    3.8643 H   0  0  0  0  0  0  0  0  0  0  0  0
    3.0587   -4.9783    5.8164 H   0  0  0  0  0  0  0  0  0  0  0  0
    5.6024   -5.4241    6.3599 H   0  0  0  0  0  0  0  0  0  0  0  0
    4.1144   -3.8837    7.6040 H   0  0  0  0  0  0  0  0  0  0  0  0
    3.0715   -4.8001    9.6536 H   0  0  0  0  0  0  0  0  0  0  0  0
    0.8728   -5.0824   10.7737 H   0  0  0  0  0  0  0  0  0  0  0  0
    0.1074   -3.5955   11.3026 H   0  0  0  0  0  0  0  0  0  0  0  0
    1.8546   -3.6305   11.0496 H   0  0  0  0  0  0  0  0  0  0  0  0
    1.4605   -6.3443    4.9710 H   0  0  0  0  0  0  0  0  0  0  0  0
    0.4996   -6.1153    6.2306 H   0  0  0  0  0  0  0  0  0  0  0  0
    0.0767   -7.2888    5.1422 H   0  0  0  0  0  0  0  0  0  0  0  0
    1.9998  -10.2107    7.4096 H   0  0  0  0  0  0  0  0  0  0  0  0
    2.2088  -11.3006    6.0960 H   0  0  0  0  0  0  0  0  0  0  0  0
  1  2  1  0
  1 41  1  0
  1 42  1  0
  1 43  1  0
  2  3  1  0
  3 40  1  0
  3  4  1  0
  3 44  1  6
  4 16  1  0
  4  5  1  0
  4 45  1  1
  5 31  1  0
  5  6  1  0
  5 46  1  1
  6  7  1  0
  6 47  1  0
  6 48  1  0
  7 29  1  0
  7  8  1  0
  7 49  1  6
  8 33  1  0
  8  9  1  0
  8 50  1  1
  9 10  1  0
 10 38  1  0
 10 11  1  1
 10 12  1  0
 11 51  1  0
 11 52  1  0
 11 53  1  0
 12 13  1  0
 12 54  1  0
 12 55  1  0
 13 26  1  0
 13 14  1  0
 13 56  1  6
 14 40  1  0
 14 15  1  0
 14 84  1  1
 15 16  1  0
 15 57  1  0
 15 58  1  0
 16 17  1  6
 16 18  1  0
 17 59  1  0
 17 60  1  0
 17 61  1  0
 18 19  1  0
 18 21  1  0
 18 62  1  1
 19 20  1  0
 20 63  1  0
 20 64  1  0
 20 65  1  0
 21 22  1  6
 21 23  1  0
 29 21  1  6
 22 66  1  0
 23 24  1  0
 24 25  2  0
 24 26  1  0
 26 27  1  0
 26 28  1  0
 27 67  1  0
 27 68  1  0
 27 69  1  0
 28 70  1  0
 28 71  1  0
 28 72  1  0
 29 30  1  0
 29 38  1  0
 30 32  1  0
 30 31  1  0
 30 73  1  6
 31 32  1  0
 31 74  1  6
 32 33  1  0
 32 75  1  6
 33 34  1  0
 33 76  1  1
 34 35  1  0
 35 36  1  0
 35 37  2  0
 36 77  1  0
 36 78  1  0
 36 79  1  0
 38 39  1  6
 38 40  1  0
 39 80  1  0
 39 81  1  0
 39 82  1  0
 40 83  1  1
M  CHG  1  14   1
M  END
>  <i_m_ct_stereo_status>  (334) 
1

>  <s_m_source_file>  (334) 
/var/tmp/pbs.5076255.sched01/tmpj3mqheq3/1200r5s1sfv.sdf

>  <i_m_source_file_index>  (334) 
19

>  <i_lp_mmshare_version>  (334) 
48012

>  <i_f3d_flags>  (334) 
0

>  <s_epik_input>  (334) 
W0NIM11DKD1PKU9bQ0BASF0xW0NAQEhdMltDQEhdM1tDQEBIXTJbQ0BASF0oW0NIMl00KVtDQEBIXShbQ0BIXTVPW0NIM10pW0NAXShbQ0gyXTYpKFtDSDNdKVtDQEBIXShPW0NIM10pW0NAQF03KFtPSF0pT0MoPU8pQyhbQ0gzXSkoW0NIM10pW0NASF0oW0NIMl04KU42W0NIXTVbQ0BAXTkoW0NIM10pQzgoW0NIM10pT1tDQEhdMVtDQEhdNFtDQEBdMzc5

>  <s_epik_cmdline>  (334) 
J2VwaWtfcHl0aG9uJywgJy1waHQnLCAnMi4wJywgJy1waCcsICc3LjAnLCAnLXRuJywgJzgnLCAnLW1hJywgJzIwMCcsICctaW1hZScsICc8aW5maWxlLm1hZT4nLCAnLW9tYWUnLCAnPG91dGZpbGUubWFlPic=

>  <r_epik_Ionization_Penalty>  (334) 
0.508296

>  <r_epik_Ionization_Penalty_Charging>  (334) 
0.508125

>  <r_epik_Ionization_Penalty_Neutral>  (334) 
0.000170873

>  <r_epik_State_Penalty>  (334) 
0.515151

>  <r_epik_Charging_Adjusted_Penalty>  (334) 
1.02328

>  <i_epik_Tot_Q>  (334) 
1

>  <i_epik_Tot_abs_Q>  (334) 
1

>  <s_epik_Chemistry_Notes>  (334) 
This compound has an ester and may undergo hydrolysis at high or low pH.

>  <s_lp_Force_Field>  (334) 
OPLS3e

>  <r_lp_Energy>  (334) 
623.166

>  <b_lp_Chiralities_Consistent>  (334) 
1

>  <s_lp_Variant>  (334) 
100:0-3

>  <s_i_glide_gridfile>  (334) 
pfpi4k_grid

>  <i_i_glide_lignum>  (334) 
19

>  <i_i_glide_rotatable_bonds>  (334) 
5

>  <r_i_docking_score>  (334) 
-2.649

>  <r_i_glide_ligand_efficiency>  (334) 
-0.066225

>  <r_i_glide_ligand_efficiency_sa>  (334) 
-0.226486

>  <r_i_glide_ligand_efficiency_ln>  (334) 
-0.564954

>  <r_i_glide_gscore>  (334) 
-2.649

>  <r_i_glide_lipo>  (334) 
-0.184113

>  <r_i_glide_hbond>  (334) 
-0.328692

>  <r_i_glide_metal>  (334) 
-0

>  <r_i_glide_rewards>  (334) 
0

>  <r_i_glide_evdw>  (334) 
-18.7314

>  <r_i_glide_ecoul>  (334) 
-7.81684

>  <r_i_glide_erotb>  (334) 
0.066577

>  <r_i_glide_esite>  (334) 
-0.0936786

>  <r_i_glide_emodel>  (334) 
-28.5879

>  <r_i_glide_energy>  (334) 
-26.5482

>  <r_i_glide_einternal>  (334) 
9.41982

>  <r_i_glide_intrahb_reward>  (334) 
-0

>  <i_i_glide_confnum>  (334) 
3

>  <i_i_glide_posenum>  (334) 
30

>  <r_i_glide_eff_state_penalty>  (334) 
0

>  <ligand_id>  (334) 
100

>  <original_smiles>  (334) 
COC1C2C3CC4C5OC6(C)CC7N8CC2(C)C(OC)C(O)(OC(=O)C7(C)C)C4(C2C3C2C5OC(C)=O)C6(C)C18

>  <smiles>  (334) 
[H]OC12OC(=O)C(C([H])([H])[H])(C([H])([H])[H])C3([H])C([H])([H])C4(C([H])([H])[H])OC5([H])C([H])(OC(=O)C([H])([H])[H])C6([H])C7([H])C8([H])C([H])([H])C5([H])C1(C67[H])C4(C([H])([H])[H])C1([H])C([H])(OC([H])([H])[H])C8([H])C(C([H])([H])[H])(C2([H])OC([H])([H])[H])C([H])([H])[N+]31[H]

$$$$
100:2:1
     RDKit          3D

 84 92  0  0  1  0  0  0  0  0999 V2000
    8.1980   -6.3752    5.1369 C   0  0  0  0  0  0  0  0  0  0  0  0
    6.8984   -5.8090    4.9877 O   0  0  0  0  0  0  0  0  0  0  0  0
    5.7852   -6.7164    4.9090 C   0  0  2  0  0  0  0  0  0  0  0  0
    5.8129   -7.8815    3.8684 C   0  0  2  0  0  0  0  0  0  0  0  0
    6.0442   -7.6050    2.1812 C   0  0  2  0  0  0  0  0  0  0  0  0
    6.5821   -6.2220    2.0914 C   0  0  0  0  0  0  0  0  0  0  0  0
    5.2921   -5.5141    2.5481 C   0  0  1  0  0  0  0  0  0  0  0  0
    4.9494   -4.1710    1.8699 C   0  0  2  0  0  0  0  0  0  0  0  0
    3.7985   -3.5167    2.6072 O   0  0  0  0  0  0  0  0  0  0  0  0
    3.6383   -3.9393    4.0217 C   0  0  1  0  0  0  0  0  0  0  0  0
    4.8295   -3.1194    4.6730 C   0  0  0  0  0  0  0  0  0  0  0  0
    2.4962   -4.1688    5.2372 C   0  0  0  0  0  0  0  0  0  0  0  0
    2.2230   -5.7311    5.9187 C   0  0  2  0  0  0  0  0  0  0  0  0
    3.5166   -6.6138    5.9582 N   0  0  1  0  0  0  0  0  0  0  0  0
    3.8152   -8.1520    5.8873 C   0  0  0  0  0  0  0  0  0  0  0  0
    4.6630   -8.7550    4.5535 C   0  0  2  0  0  0  0  0  0  0  0  0
    5.3492  -10.0533    5.0608 C   0  0  0  0  0  0  0  0  0  0  0  0
    3.7799   -9.1173    3.3675 C   0  0  1  0  0  0  0  0  0  0  0  0
    2.8563  -10.1423    3.7591 O   0  0  0  0  0  0  0  0  0  0  0  0
    3.0767  -11.4155    3.1665 C   0  0  0  0  0  0  0  0  0  0  0  0
    2.9848   -7.8614    2.9730 C   0  0  1  0  0  0  0  0  0  0  0  0
    2.1868   -8.3586    1.9018 O   0  0  0  0  0  0  0  0  0  0  0  0
    2.1367   -7.7536    4.1038 O   0  0  0  0  0  0  0  0  0  0  0  0
    0.8623   -7.3623    4.3047 C   0  0  0  0  0  0  0  0  0  0  0  0
   -0.1092   -7.5376    3.5698 O   0  0  0  0  0  0  0  0  0  0  0  0
    0.8393   -6.5166    5.6270 C   0  0  0  0  0  0  0  0  0  0  0  0
    0.5320   -7.4660    6.8144 C   0  0  0  0  0  0  0  0  0  0  0  0
   -0.3935   -5.5571    5.6330 C   0  0  0  0  0  0  0  0  0  0  0  0
    3.8316   -6.3576    2.5406 C   0  0  2  0  0  0  0  0  0  0  0  0
    3.7464   -6.5206    1.0639 C   0  0  2  0  0  0  0  0  0  0  0  0
    4.9538   -7.4568    0.9433 C   0  0  1  0  0  0  0  0  0  0  0  0
    4.7366   -6.0963    0.0840 C   0  0  2  0  0  0  0  0  0  0  0  0
    4.8762   -4.5577    0.3562 C   0  0  1  0  0  0  0  0  0  0  0  0
    3.8168   -3.8355   -0.2685 O   0  0  0  0  0  0  0  0  0  0  0  0
    3.9127   -3.3147   -1.5241 C   0  0  0  0  0  0  0  0  0  0  0  0
    5.2593   -3.5004   -2.2224 C   0  0  0  0  0  0  0  0  0  0  0  0
    3.0024   -2.7355   -2.0960 O   0  0  0  0  0  0  0  0  0  0  0  0
    3.4159   -5.4054    3.6275 C   0  0  2  0  0  0  0  0  0  0  0  0
    1.9342   -5.1872    2.9156 C   0  0  0  0  0  0  0  0  0  0  0  0
    4.3120   -6.0341    4.9530 C   0  0  2  0  0  0  0  0  0  0  0  0
    8.9162   -5.5589    5.2145 H   0  0  0  0  0  0  0  0  0  0  0  0
    8.4943   -6.9760    4.2726 H   0  0  0  0  0  0  0  0  0  0  0  0
    8.2811   -6.9958    6.0297 H   0  0  0  0  0  0  0  0  0  0  0  0
    5.9791   -7.1581    5.8854 H   0  0  0  0  0  0  0  0  0  0  0  0
    6.7500   -8.3861    4.1056 H   0  0  0  0  0  0  0  0  0  0  0  0
    6.8056   -8.3072    1.8379 H   0  0  0  0  0  0  0  0  0  0  0  0
    7.4462   -6.0198    2.7129 H   0  0  0  0  0  0  0  0  0  0  0  0
    6.9408   -5.9797    1.0907 H   0  0  0  0  0  0  0  0  0  0  0  0
    5.6985   -5.0119    3.3817 H   0  0  0  0  0  0  0  0  0  0  0  0
    5.7890   -3.4887    1.9543 H   0  0  0  0  0  0  0  0  0  0  0  0
    4.9953   -3.2820    5.7379 H   0  0  0  0  0  0  0  0  0  0  0  0
    4.5619   -2.0650    4.6128 H   0  0  0  0  0  0  0  0  0  0  0  0
    5.8053   -3.1817    4.1979 H   0  0  0  0  0  0  0  0  0  0  0  0
    2.8563   -3.5796    6.0824 H   0  0  0  0  0  0  0  0  0  0  0  0
    1.5746   -3.6238    5.0268 H   0  0  0  0  0  0  0  0  0  0  0  0
    2.1096   -5.4784    6.9731 H   0  0  0  0  0  0  0  0  0  0  0  0
    4.4131   -8.3437    6.7812 H   0  0  0  0  0  0  0  0  0  0  0  0
    2.9422   -8.7754    6.0710 H   0  0  0  0  0  0  0  0  0  0  0  0
    4.6279  -10.7470    5.4996 H   0  0  0  0  0  0  0  0  0  0  0  0
    6.0954   -9.8440    5.8307 H   0  0  0  0  0  0  0  0  0  0  0  0
    5.8603  -10.5748    4.2477 H   0  0  0  0  0  0  0  0  0  0  0  0
    4.3673   -9.4756    2.5208 H   0  0  0  0  0  0  0  0  0  0  0  0
    2.3243  -12.1149    3.5276 H   0  0  0  0  0  0  0  0  0  0  0  0
    4.0539  -11.8253    3.4223 H   0  0  0  0  0  0  0  0  0  0  0  0
    2.9995  -11.3624    2.0811 H   0  0  0  0  0  0  0  0  0  0  0  0
    1.9280   -9.2372    2.1400 H   0  0  0  0  0  0  0  0  0  0  0  0
    0.2099   -6.9166    7.6970 H   0  0  0  0  0  0  0  0  0  0  0  0
    1.3696   -8.0657    7.1465 H   0  0  0  0  0  0  0  0  0  0  0  0
   -0.2644   -8.1663    6.5670 H   0  0  0  0  0  0  0  0  0  0  0  0
   -0.5287   -5.0775    6.6037 H   0  0  0  0  0  0  0  0  0  0  0  0
   -1.3167   -6.1059    5.4300 H   0  0  0  0  0  0  0  0  0  0  0  0
   -0.3541   -4.7514    4.9082 H   0  0  0  0  0  0  0  0  0  0  0  0
    2.7900   -6.6320    0.5526 H   0  0  0  0  0  0  0  0  0  0  0  0
    4.7792   -8.3930    0.4066 H   0  0  0  0  0  0  0  0  0  0  0  0
    4.5972   -6.3202   -0.9673 H   0  0  0  0  0  0  0  0  0  0  0  0
    5.8312   -4.2634   -0.0576 H   0  0  0  0  0  0  0  0  0  0  0  0
    6.0642   -3.1126   -1.5937 H   0  0  0  0  0  0  0  0  0  0  0  0
    5.2673   -2.9989   -3.1839 H   0  0  0  0  0  0  0  0  0  0  0  0
    5.4276   -4.5597   -2.4094 H   0  0  0  0  0  0  0  0  0  0  0  0
    1.5255   -5.9910    2.3121 H   0  0  0  0  0  0  0  0  0  0  0  0
    1.9203   -4.4487    2.1140 H   0  0  0  0  0  0  0  0  0  0  0  0
    1.0879   -4.8566    3.4856 H   0  0  0  0  0  0  0  0  0  0  0  0
    4.6443   -5.2642    5.6318 H   0  0  0  0  0  0  0  0  0  0  0  0
    3.9513   -6.3424    6.8310 H   0  0  0  0  0  0  0  0  0  0  0  0
  1  2  1  0
  1 41  1  0
  1 42  1  0
  1 43  1  0
  2  3  1  0
  3 40  1  0
  3  4  1  0
  3 44  1  1
  4 16  1  0
  4  5  1  0
  4 45  1  1
  5 31  1  0
  5  6  1  0
  5 46  1  6
  6  7  1  0
  6 47  1  0
  6 48  1  0
  7 29  1  0
  7  8  1  0
  7 49  1  1
  8 33  1  0
  8  9  1  0
  8 50  1  6
  9 10  1  0
 10 38  1  0
 10 11  1  1
 10 12  1  0
 11 51  1  0
 11 52  1  0
 11 53  1  0
 12 13  1  0
 12 54  1  0
 12 55  1  0
 13 26  1  0
 13 14  1  0
 13 56  1  1
 14 40  1  0
 14 15  1  0
 14 84  1  1
 15 16  1  0
 15 57  1  0
 15 58  1  0
 16 17  1  1
 16 18  1  0
 17 59  1  0
 17 60  1  0
 17 61  1  0
 18 19  1  0
 18 21  1  0
 18 62  1  6
 19 20  1  0
 20 63  1  0
 20 64  1  0
 20 65  1  0
 21 22  1  6
 21 23  1  0
 29 21  1  1
 22 66  1  0
 23 24  1  0
 24 25  2  0
 24 26  1  0
 26 27  1  0
 26 28  1  0
 27 67  1  0
 27 68  1  0
 27 69  1  0
 28 70  1  0
 28 71  1  0
 28 72  1  0
 29 30  1  0
 29 38  1  0
 30 32  1  0
 30 31  1  0
 30 73  1  6
 31 32  1  0
 31 74  1  6
 32 33  1  0
 32 75  1  6
 33 34  1  0
 33 76  1  6
 34 35  1  0
 35 36  1  0
 35 37  2  0
 36 77  1  0
 36 78  1  0
 36 79  1  0
 38 39  1  1
 38 40  1  0
 39 80  1  0
 39 81  1  0
 39 82  1  0
 40 83  1  1
M  CHG  1  14   1
M  END
>  <i_m_ct_stereo_status>  (335) 
1

>  <s_m_source_file>  (335) 
/var/tmp/pbs.5076255.sched01/tmpj3mqheq3/1200r5s1sfv.sdf

>  <i_m_source_file_index>  (335) 
19

>  <i_lp_mmshare_version>  (335) 
48012

>  <i_f3d_flags>  (335) 
0

>  <s_epik_input>  (335) 
W0NIM11DKD1PKU9bQ0BASF0xW0NAQEhdMltDQEhdM1tDQEBIXTJbQ0BASF0oW0NIMl00KVtDQEBIXShbQ0BIXTVPW0NIM10pW0NAXShbQ0gyXTYpKFtDSDNdKVtDQEBIXShPW0NIM10pW0NAQF03KFtPSF0pT0MoPU8pQyhbQ0gzXSkoW0NIM10pW0NASF0oW0NIMl04KU42W0NIXTVbQ0BAXTkoW0NIM10pQzgoW0NIM10pT1tDQEhdMVtDQEhdNFtDQEBdMzc5

>  <s_epik_cmdline>  (335) 
J2VwaWtfcHl0aG9uJywgJy1waHQnLCAnMi4wJywgJy1waCcsICc3LjAnLCAnLXRuJywgJzgnLCAnLW1hJywgJzIwMCcsICctaW1hZScsICc8aW5maWxlLm1hZT4nLCAnLW9tYWUnLCAnPG91dGZpbGUubWFlPic=

>  <r_epik_Ionization_Penalty>  (335) 
0.508296

>  <r_epik_Ionization_Penalty_Charging>  (335) 
0.508125

>  <r_epik_Ionization_Penalty_Neutral>  (335) 
0.000170873

>  <r_epik_State_Penalty>  (335) 
0.515151

>  <r_epik_Charging_Adjusted_Penalty>  (335) 
1.02328

>  <i_epik_Tot_Q>  (335) 
1

>  <i_epik_Tot_abs_Q>  (335) 
1

>  <s_epik_Chemistry_Notes>  (335) 
This compound has an ester and may undergo hydrolysis at high or low pH.

>  <s_lp_Force_Field>  (335) 
OPLS3e

>  <r_lp_Energy>  (335) 
623.166

>  <b_lp_Chiralities_Consistent>  (335) 
1

>  <s_lp_Variant>  (335) 
100:0-3

>  <s_i_glide_gridfile>  (335) 
pfpi4k_grid

>  <i_i_glide_lignum>  (335) 
19

>  <i_i_glide_rotatable_bonds>  (335) 
5

>  <r_i_docking_score>  (335) 
-1.94468

>  <r_i_glide_ligand_efficiency>  (335) 
-0.048617

>  <r_i_glide_ligand_efficiency_sa>  (335) 
-0.166268

>  <r_i_glide_ligand_efficiency_ln>  (335) 
-0.414743

>  <r_i_glide_gscore>  (335) 
-1.94468

>  <r_i_glide_lipo>  (335) 
-0.556933

>  <r_i_glide_hbond>  (335) 
0

>  <r_i_glide_metal>  (335) 
-0

>  <r_i_glide_rewards>  (335) 
0

>  <r_i_glide_evdw>  (335) 
-25.4402

>  <r_i_glide_ecoul>  (335) 
-1.04795

>  <r_i_glide_erotb>  (335) 
0.066577

>  <r_i_glide_esite>  (335) 
-0.0251198

>  <r_i_glide_emodel>  (335) 
-28.0835

>  <r_i_glide_energy>  (335) 
-26.4882

>  <r_i_glide_einternal>  (335) 
6.09808

>  <r_i_glide_intrahb_reward>  (335) 
-0

>  <i_i_glide_confnum>  (335) 
3

>  <i_i_glide_posenum>  (335) 
11

>  <r_i_glide_eff_state_penalty>  (335) 
0

>  <ligand_id>  (335) 
100

>  <original_smiles>  (335) 
COC1C2C3CC4C5OC6(C)CC7N8CC2(C)C(OC)C(O)(OC(=O)C7(C)C)C4(C2C3C2C5OC(C)=O)C6(C)C18

>  <smiles>  (335) 
[H]OC12OC(=O)C(C([H])([H])[H])(C([H])([H])[H])C3([H])C([H])([H])C4(C([H])([H])[H])OC5([H])C([H])(OC(=O)C([H])([H])[H])C6([H])C7([H])C8([H])C([H])([H])C5([H])C1(C67[H])C4(C([H])([H])[H])C1([H])C([H])(OC([H])([H])[H])C8([H])C(C([H])([H])[H])(C2([H])OC([H])([H])[H])C([H])([H])[N+]31[H]

$$$$
100:2:2
     RDKit          3D

 84 92  0  0  1  0  0  0  0  0999 V2000
    7.5424   -6.5978    6.9413 C   0  0  0  0  0  0  0  0  0  0  0  0
    6.2536   -6.4885    6.3444 O   0  0  0  0  0  0  0  0  0  0  0  0
    5.7324   -7.6602    5.6948 C   0  0  2  0  0  0  0  0  0  0  0  0
    6.5683   -8.3635    4.5796 C   0  0  2  0  0  0  0  0  0  0  0  0
    7.1345   -7.5295    3.1817 C   0  0  2  0  0  0  0  0  0  0  0  0
    7.0132   -6.0941    3.5305 C   0  0  0  0  0  0  0  0  0  0  0  0
    5.4709   -6.0610    3.5502 C   0  0  1  0  0  0  0  0  0  0  0  0
    4.7853   -4.7858    3.0154 C   0  0  2  0  0  0  0  0  0  0  0  0
    3.3107   -4.8270    3.3335 O   0  0  0  0  0  0  0  0  0  0  0  0
    2.9530   -5.6903    4.4868 C   0  0  1  0  0  0  0  0  0  0  0  0
    3.4166   -4.7397    5.6690 C   0  0  0  0  0  0  0  0  0  0  0  0
    1.7289   -6.6651    5.1123 C   0  0  0  0  0  0  0  0  0  0  0  0
    1.9859   -8.3486    5.3857 C   0  0  2  0  0  0  0  0  0  0  0  0
    3.4581   -8.6805    5.7845 N   0  0  1  0  0  0  0  0  0  0  0  0
    4.3990   -9.9141    5.5977 C   0  0  0  0  0  0  0  0  0  0  0  0
    5.7700   -9.7462    4.6200 C   0  0  2  0  0  0  0  0  0  0  0  0
    6.7788  -10.8085    5.1387 C   0  0  0  0  0  0  0  0  0  0  0  0
    5.5278  -10.0226    3.1420 C   0  0  1  0  0  0  0  0  0  0  0  0
    5.0878  -11.3784    2.9973 O   0  0  0  0  0  0  0  0  0  0  0  0
    5.9928  -12.2371    2.3169 C   0  0  0  0  0  0  0  0  0  0  0  0
    4.4138   -9.0787    2.6667 C   0  0  1  0  0  0  0  0  0  0  0  0
    4.2585   -9.4564    1.2992 O   0  0  0  0  0  0  0  0  0  0  0  0
    3.3221   -9.6218    3.3876 O   0  0  0  0  0  0  0  0  0  0  0  0
    2.0085   -9.7706    3.1416 C   0  0  0  0  0  0  0  0  0  0  0  0
    1.4744  -10.0195    2.0772 O   0  0  0  0  0  0  0  0  0  0  0  0
    1.2298   -9.4354    4.4586 C   0  0  0  0  0  0  0  0  0  0  0  0
    1.0285  -10.7435    5.2591 C   0  0  0  0  0  0  0  0  0  0  0  0
   -0.2390   -9.0204    4.1304 C   0  0  0  0  0  0  0  0  0  0  0  0
    4.6012   -7.3176    2.8410 C   0  0  2  0  0  0  0  0  0  0  0  0
    5.0264   -7.0426    1.4496 C   0  0  2  0  0  0  0  0  0  0  0  0
    6.4959   -7.4061    1.6644 C   0  0  1  0  0  0  0  0  0  0  0  0
    5.9619   -6.0243    1.0149 C   0  0  2  0  0  0  0  0  0  0  0  0
    5.3252   -4.7033    1.5521 C   0  0  1  0  0  0  0  0  0  0  0  0
    4.3004   -4.2424    0.6637 O   0  0  0  0  0  0  0  0  0  0  0  0
    4.5501   -3.4758   -0.4359 C   0  0  0  0  0  0  0  0  0  0  0  0
    5.9872   -2.9683   -0.6102 C   0  0  0  0  0  0  0  0  0  0  0  0
    3.6925   -3.1801   -1.2551 O   0  0  0  0  0  0  0  0  0  0  0  0
    3.5180   -6.9462    3.8153 C   0  0  2  0  0  0  0  0  0  0  0  0
    2.3669   -7.0515    2.6285 C   0  0  0  0  0  0  0  0  0  0  0  0
    4.1685   -7.5860    5.2689 C   0  0  2  0  0  0  0  0  0  0  0  0
    7.7799   -5.6438    7.4144 H   0  0  0  0  0  0  0  0  0  0  0  0
    8.3291   -6.7912    6.2087 H   0  0  0  0  0  0  0  0  0  0  0  0
    7.5846   -7.3784    7.7024 H   0  0  0  0  0  0  0  0  0  0  0  0
    5.8097   -8.2817    6.5867 H   0  0  0  0  0  0  0  0  0  0  0  0
    7.5173   -8.5528    5.0803 H   0  0  0  0  0  0  0  0  0  0  0  0
    8.1894   -7.7777    3.0511 H   0  0  0  0  0  0  0  0  0  0  0  0
    7.4830   -5.8115    4.4645 H   0  0  0  0  0  0  0  0  0  0  0  0
    7.5091   -5.4513    2.8056 H   0  0  0  0  0  0  0  0  0  0  0  0
    5.3561   -5.7181    4.5422 H   0  0  0  0  0  0  0  0  0  0  0  0
    5.1811   -3.9075    3.5176 H   0  0  0  0  0  0  0  0  0  0  0  0
    3.3220   -5.1477    6.6744 H   0  0  0  0  0  0  0  0  0  0  0  0
    2.7445   -3.8827    5.6769 H   0  0  0  0  0  0  0  0  0  0  0  0
    4.4130   -4.3062    5.6086 H   0  0  0  0  0  0  0  0  0  0  0  0
    1.5365   -6.2705    6.1097 H   0  0  0  0  0  0  0  0  0  0  0  0
    0.7667   -6.4474    4.6479 H   0  0  0  0  0  0  0  0  0  0  0  0
    1.4665   -8.4855    6.3314 H   0  0  0  0  0  0  0  0  0  0  0  0
    4.7363  -10.1524    6.6076 H   0  0  0  0  0  0  0  0  0  0  0  0
    3.8786  -10.8291    5.3279 H   0  0  0  0  0  0  0  0  0  0  0  0
    6.3428  -11.8105    5.1490 H   0  0  0  0  0  0  0  0  0  0  0  0
    7.1035  -10.5964    6.1606 H   0  0  0  0  0  0  0  0  0  0  0  0
    7.6779  -10.8447    4.5161 H   0  0  0  0  0  0  0  0  0  0  0  0
    6.4294   -9.8766    2.5434 H   0  0  0  0  0  0  0  0  0  0  0  0
    5.5433  -13.2258    2.2380 H   0  0  0  0  0  0  0  0  0  0  0  0
    6.9351  -12.3427    2.8508 H   0  0  0  0  0  0  0  0  0  0  0  0
    6.2100  -11.8849    1.3071 H   0  0  0  0  0  0  0  0  0  0  0  0
    4.2201  -10.4196    1.2612 H   0  0  0  0  0  0  0  0  0  0  0  0
    0.2662  -10.6410    6.0303 H   0  0  0  0  0  0  0  0  0  0  0  0
    1.9157  -11.0736    5.7779 H   0  0  0  0  0  0  0  0  0  0  0  0
    0.7008  -11.5653    4.6206 H   0  0  0  0  0  0  0  0  0  0  0  0
   -0.8491   -8.9449    5.0323 H   0  0  0  0  0  0  0  0  0  0  0  0
   -0.7257   -9.7763    3.5051 H   0  0  0  0  0  0  0  0  0  0  0  0
   -0.3605   -8.0781    3.6031 H   0  0  0  0  0  0  0  0  0  0  0  0
    4.4155   -7.3234    0.5929 H   0  0  0  0  0  0  0  0  0  0  0  0
    6.9155   -8.1242    0.9607 H   0  0  0  0  0  0  0  0  0  0  0  0
    6.2168   -5.9580   -0.0346 H   0  0  0  0  0  0  0  0  0  0  0  0
    6.1361   -3.9840    1.6279 H   0  0  0  0  0  0  0  0  0  0  0  0
    6.2965   -2.4129    0.2772 H   0  0  0  0  0  0  0  0  0  0  0  0
    6.0695   -2.3083   -1.4700 H   0  0  0  0  0  0  0  0  0  0  0  0
    6.6734   -3.8002   -0.7655 H   0  0  0  0  0  0  0  0  0  0  0  0
    2.5456   -7.7245    1.7967 H   0  0  0  0  0  0  0  0  0  0  0  0
    2.2630   -6.1631    2.0083 H   0  0  0  0  0  0  0  0  0  0  0  0
    1.3374   -7.2356    2.8662 H   0  0  0  0  0  0  0  0  0  0  0  0
    3.9214   -6.9887    6.1325 H   0  0  0  0  0  0  0  0  0  0  0  0
    3.4549   -8.5583    6.7880 H   0  0  0  0  0  0  0  0  0  0  0  0
  1  2  1  0
  1 41  1  0
  1 42  1  0
  1 43  1  0
  2  3  1  0
  3 40  1  0
  3  4  1  0
  3 44  1  1
  4 16  1  0
  4  5  1  0
  4 45  1  1
  5 31  1  0
  5  6  1  0
  5 46  1  6
  6  7  1  0
  6 47  1  0
  6 48  1  0
  7 29  1  0
  7  8  1  0
  7 49  1  1
  8 33  1  0
  8  9  1  0
  8 50  1  1
  9 10  1  0
 10 38  1  0
 10 11  1  1
 10 12  1  0
 11 51  1  0
 11 52  1  0
 11 53  1  0
 12 13  1  0
 12 54  1  0
 12 55  1  0
 13 26  1  0
 13 14  1  0
 13 56  1  1
 14 40  1  0
 14 15  1  0
 14 84  1  1
 15 16  1  0
 15 57  1  0
 15 58  1  0
 16 17  1  1
 16 18  1  0
 17 59  1  0
 17 60  1  0
 17 61  1  0
 18 19  1  0
 18 21  1  0
 18 62  1  6
 19 20  1  0
 20 63  1  0
 20 64  1  0
 20 65  1  0
 21 22  1  6
 21 23  1  0
 29 21  1  1
 22 66  1  0
 23 24  1  0
 24 25  2  0
 24 26  1  0
 26 27  1  0
 26 28  1  0
 27 67  1  0
 27 68  1  0
 27 69  1  0
 28 70  1  0
 28 71  1  0
 28 72  1  0
 29 30  1  0
 29 38  1  0
 30 32  1  0
 30 31  1  0
 30 73  1  6
 31 32  1  0
 31 74  1  6
 32 33  1  0
 32 75  1  6
 33 34  1  0
 33 76  1  1
 34 35  1  0
 35 36  1  0
 35 37  2  0
 36 77  1  0
 36 78  1  0
 36 79  1  0
 38 39  1  6
 38 40  1  0
 39 80  1  0
 39 81  1  0
 39 82  1  0
 40 83  1  1
M  CHG  1  14   1
M  END
>  <i_m_ct_stereo_status>  (336) 
1

>  <s_m_source_file>  (336) 
/var/tmp/pbs.5076255.sched01/tmpj3mqheq3/1200r5s1sfv.sdf

>  <i_m_source_file_index>  (336) 
19

>  <i_lp_mmshare_version>  (336) 
48012

>  <i_f3d_flags>  (336) 
0

>  <s_epik_input>  (336) 
W0NIM11DKD1PKU9bQ0BASF0xW0NAQEhdMltDQEhdM1tDQEBIXTJbQ0BASF0oW0NIMl00KVtDQEBIXShbQ0BIXTVPW0NIM10pW0NAXShbQ0gyXTYpKFtDSDNdKVtDQEBIXShPW0NIM10pW0NAQF03KFtPSF0pT0MoPU8pQyhbQ0gzXSkoW0NIM10pW0NASF0oW0NIMl04KU42W0NIXTVbQ0BAXTkoW0NIM10pQzgoW0NIM10pT1tDQEhdMVtDQEhdNFtDQEBdMzc5

>  <s_epik_cmdline>  (336) 
J2VwaWtfcHl0aG9uJywgJy1waHQnLCAnMi4wJywgJy1waCcsICc3LjAnLCAnLXRuJywgJzgnLCAnLW1hJywgJzIwMCcsICctaW1hZScsICc8aW5maWxlLm1hZT4nLCAnLW9tYWUnLCAnPG91dGZpbGUubWFlPic=

>  <r_epik_Ionization_Penalty>  (336) 
0.508296

>  <r_epik_Ionization_Penalty_Charging>  (336) 
0.508125

>  <r_epik_Ionization_Penalty_Neutral>  (336) 
0.000170873

>  <r_epik_State_Penalty>  (336) 
0.515151

>  <r_epik_Charging_Adjusted_Penalty>  (336) 
1.02328

>  <i_epik_Tot_Q>  (336) 
1

>  <i_epik_Tot_abs_Q>  (336) 
1

>  <s_epik_Chemistry_Notes>  (336) 
This compound has an ester and may undergo hydrolysis at high or low pH.

>  <s_lp_Force_Field>  (336) 
OPLS3e

>  <r_lp_Energy>  (336) 
623.166

>  <b_lp_Chiralities_Consistent>  (336) 
1

>  <s_lp_Variant>  (336) 
100:0-3

>  <s_i_glide_gridfile>  (336) 
pfpi4k_grid

>  <i_i_glide_lignum>  (336) 
19

>  <i_i_glide_rotatable_bonds>  (336) 
5

>  <r_i_docking_score>  (336) 
-1.72813

>  <r_i_glide_ligand_efficiency>  (336) 
-0.0432032

>  <r_i_glide_ligand_efficiency_sa>  (336) 
-0.147753

>  <r_i_glide_ligand_efficiency_ln>  (336) 
-0.368559

>  <r_i_glide_gscore>  (336) 
-1.72813

>  <r_i_glide_lipo>  (336) 
-0.331178

>  <r_i_glide_hbond>  (336) 
0

>  <r_i_glide_metal>  (336) 
-0

>  <r_i_glide_rewards>  (336) 
-0.0831128

>  <r_i_glide_evdw>  (336) 
-23.9554

>  <r_i_glide_ecoul>  (336) 
-1.06926

>  <r_i_glide_erotb>  (336) 
0.066577

>  <r_i_glide_esite>  (336) 
-0.0222573

>  <r_i_glide_emodel>  (336) 
-26.2732

>  <r_i_glide_energy>  (336) 
-25.0246

>  <r_i_glide_einternal>  (336) 
5.74409

>  <r_i_glide_intrahb_reward>  (336) 
-0

>  <i_i_glide_confnum>  (336) 
2

>  <i_i_glide_posenum>  (336) 
17

>  <r_i_glide_eff_state_penalty>  (336) 
0

>  <ligand_id>  (336) 
100

>  <original_smiles>  (336) 
COC1C2C3CC4C5OC6(C)CC7N8CC2(C)C(OC)C(O)(OC(=O)C7(C)C)C4(C2C3C2C5OC(C)=O)C6(C)C18

>  <smiles>  (336) 
[H]OC12OC(=O)C(C([H])([H])[H])(C([H])([H])[H])C3([H])C([H])([H])C4(C([H])([H])[H])OC5([H])C([H])(OC(=O)C([H])([H])[H])C6([H])C7([H])C8([H])C([H])([H])C5([H])C1(C67[H])C4(C([H])([H])[H])C1([H])C([H])(OC([H])([H])[H])C8([H])C(C([H])([H])[H])(C2([H])OC([H])([H])[H])C([H])([H])[N+]31[H]

$$$$
101:0:0
     RDKit          3D

 25 28  0  0  1  0  0  0  0  0999 V2000
    5.6603   -3.5160   -3.3515 O   0  0  0  0  0  0  0  0  0  0  0  0
    5.9367   -3.3707   -2.1553 C   0  0  0  0  0  0  0  0  0  0  0  0
    7.2696   -3.1582   -1.3382 C   0  0  0  0  0  0  0  0  0  0  0  0
    6.3462   -2.5627   -0.3109 C   0  0  0  0  0  0  0  0  0  0  0  0
    6.4293   -1.5159    0.3898 N   0  0  0  0  0  0  0  0  0  0  0  0
    5.2688   -1.0167    0.8913 C   0  0  0  0  0  0  0  0  0  0  0  0
    5.0664   -0.2539    1.9517 N   0  0  0  0  0  0  0  0  0  0  0  0
    3.6908   -0.1556    1.9247 C   0  0  0  0  0  0  0  0  0  0  0  0
    3.0669   -0.8092    0.9514 N   0  0  0  0  0  0  0  0  0  0  0  0
    4.1056   -1.3485    0.2800 N   0  0  0  0  0  0  0  0  0  0  0  0
    3.9287   -2.2153   -0.8793 C   0  0  1  0  0  0  0  0  0  0  0  0
    3.7264   -1.4456   -2.1658 C   0  0  0  0  0  0  0  0  0  0  0  0
    4.3845   -0.3880   -2.7253 C   0  0  0  0  0  0  0  0  0  0  0  0
    3.7115   -0.0711   -3.9360 C   0  0  0  0  0  0  0  0  0  0  0  0
    2.7102   -0.9875   -4.0372 C   0  0  0  0  0  0  0  0  0  0  0  0
    2.7113   -1.8529   -2.9807 O   0  0  0  0  0  0  0  0  0  0  0  0
    5.0900   -3.2238   -0.8507 C   0  0  1  0  0  0  0  0  0  0  0  0
    7.7271   -4.0751   -0.9728 H   0  0  0  0  0  0  0  0  0  0  0  0
    8.0429   -2.5313   -1.7928 H   0  0  0  0  0  0  0  0  0  0  0  0
    3.1015    0.4234    2.6239 H   0  0  0  0  0  0  0  0  0  0  0  0
    3.0095   -2.7647   -0.7132 H   0  0  0  0  0  0  0  0  0  0  0  0
    5.2199    0.1114   -2.2787 H   0  0  0  0  0  0  0  0  0  0  0  0
    3.8762    0.7519   -4.6251 H   0  0  0  0  0  0  0  0  0  0  0  0
    1.8833   -1.1046   -4.7290 H   0  0  0  0  0  0  0  0  0  0  0  0
    4.8398   -4.1758   -0.3743 H   0  0  0  0  0  0  0  0  0  0  0  0
  1  2  2  0
  2 17  1  0
  2  3  1  0
  3  4  1  0
  3 18  1  0
  3 19  1  0
  4 17  1  0
  4  5  2  0
  5  6  1  0
  6 10  1  0
  6  7  2  0
  7  8  1  0
  8  9  2  0
  8 20  1  0
  9 10  1  0
 10 11  1  0
 11 12  1  0
 11 17  1  0
 11 21  1  1
 12 16  1  0
 12 13  2  0
 13 14  1  0
 13 22  1  0
 14 15  2  0
 14 23  1  0
 15 16  1  0
 15 24  1  0
 17 25  1  1
M  END
>  <i_m_ct_stereo_status>  (337) 
1

>  <s_m_source_file>  (337) 
/var/tmp/pbs.5076255.sched01/tmpj3mqheq3/1200r5s1sfv.sdf

>  <i_m_source_file_index>  (337) 
20

>  <i_lp_mmshare_version>  (337) 
48012

>  <i_f3d_flags>  (337) 
0

>  <s_epik_input>  (337) 
bzFbY0hdW2NIXVtjSF1jMVtDQEBIXShbQ0BIXShDMj0zKUMoPU8pW0NIMl0yKW40YyhOMyluW2NIXW40

>  <s_epik_cmdline>  (337) 
J2VwaWtfcHl0aG9uJywgJy1waHQnLCAnMi4wJywgJy1waCcsICc3LjAnLCAnLXRuJywgJzgnLCAnLW1hJywgJzIwMCcsICctaW1hZScsICc8aW5maWxlLm1hZT4nLCAnLW9tYWUnLCAnPG91dGZpbGUubWFlPic=

>  <r_lp_tautomer_probability>  (337) 
1

>  <r_epik_Ionization_Penalty>  (337) 
3.94847e-07

>  <r_epik_Ionization_Penalty_Charging>  (337) 
0

>  <r_epik_Ionization_Penalty_Neutral>  (337) 
3.94847e-07

>  <r_epik_State_Penalty>  (337) 
-0

>  <r_epik_Charging_Adjusted_Penalty>  (337) 
0

>  <i_epik_Tot_Q>  (337) 
0

>  <i_epik_Tot_abs_Q>  (337) 
0

>  <s_epik_Chemistry_Notes>  (337) 
This compound has an imine and may undergo hydrolysis.

>  <s_lp_Force_Field>  (337) 
OPLS3e

>  <r_lp_Energy>  (337) 
14.1919

>  <b_lp_Chiralities_Consistent>  (337) 
1

>  <s_lp_Variant>  (337) 
101:0-1

>  <s_i_glide_gridfile>  (337) 
pfpi4k_grid

>  <i_i_glide_lignum>  (337) 
20

>  <i_i_glide_rotatable_bonds>  (337) 
1

>  <r_i_docking_score>  (337) 
-3.79605

>  <r_i_glide_ligand_efficiency>  (337) 
-0.223297

>  <r_i_glide_ligand_efficiency_sa>  (337) 
-0.57416

>  <r_i_glide_ligand_efficiency_ln>  (337) 
-0.990305

>  <r_i_glide_gscore>  (337) 
-3.79605

>  <r_i_glide_lipo>  (337) 
-0.448064

>  <r_i_glide_hbond>  (337) 
-0.115194

>  <r_i_glide_metal>  (337) 
-0

>  <r_i_glide_rewards>  (337) 
-2.37613

>  <r_i_glide_evdw>  (337) 
-20.4934

>  <r_i_glide_ecoul>  (337) 
-0.841777

>  <r_i_glide_erotb>  (337) 
0.327107

>  <r_i_glide_esite>  (337) 
-0.0328327

>  <r_i_glide_emodel>  (337) 
-25.4097

>  <r_i_glide_energy>  (337) 
-21.3352

>  <r_i_glide_einternal>  (337) 
1.15925

>  <r_i_glide_intrahb_reward>  (337) 
-0

>  <i_i_glide_confnum>  (337) 
4

>  <i_i_glide_posenum>  (337) 
5

>  <r_i_glide_eff_state_penalty>  (337) 
0

>  <ligand_id>  (337) 
101

>  <original_smiles>  (337) 
O=C1CC2=Nc3ncnn3C(c3ccco3)C12

>  <smiles>  (337) 
[H]c1nc2n(n1)C([H])(c1oc([H])c([H])c1[H])C1([H])C(=O)C([H])([H])C1=N2

$$$$
101:0:1
     RDKit          3D

 25 28  0  0  1  0  0  0  0  0999 V2000
   -2.2066    0.9480    7.2204 O   0  0  0  0  0  0  0  0  0  0  0  0
   -1.5885    1.6260    6.3893 C   0  0  0  0  0  0  0  0  0  0  0  0
   -0.7626    2.9344    6.5195 C   0  0  0  0  0  0  0  0  0  0  0  0
   -0.2644    2.5573    5.1409 C   0  0  0  0  0  0  0  0  0  0  0  0
    0.8820    2.5827    4.6423 N   0  0  0  0  0  0  0  0  0  0  0  0
    1.0983    1.8215    3.5276 C   0  0  0  0  0  0  0  0  0  0  0  0
    2.0278    1.9077    2.5818 N   0  0  0  0  0  0  0  0  0  0  0  0
    1.6325    0.8782    1.7533 C   0  0  0  0  0  0  0  0  0  0  0  0
    0.5980    0.1534    2.1714 N   0  0  0  0  0  0  0  0  0  0  0  0
    0.2652    0.7897    3.3099 N   0  0  0  0  0  0  0  0  0  0  0  0
   -0.8557    0.3619    4.1272 C   0  0  1  0  0  0  0  0  0  0  0  0
   -0.5014   -0.8293    4.9851 C   0  0  0  0  0  0  0  0  0  0  0  0
    0.6825   -1.3325    5.4528 C   0  0  0  0  0  0  0  0  0  0  0  0
    0.3649   -2.5000    6.2045 C   0  0  0  0  0  0  0  0  0  0  0  0
   -0.9858   -2.6412    6.1143 C   0  0  0  0  0  0  0  0  0  0  0  0
   -1.5308   -1.6236    5.3947 O   0  0  0  0  0  0  0  0  0  0  0  0
   -1.3995    1.6080    4.8390 C   0  0  1  0  0  0  0  0  0  0  0  0
   -1.4008    3.8170    6.5428 H   0  0  0  0  0  0  0  0  0  0  0  0
   -0.0597    2.9624    7.3695 H   0  0  0  0  0  0  0  0  0  0  0  0
    2.1494    0.6086    0.8291 H   0  0  0  0  0  0  0  0  0  0  0  0
   -1.6198    0.0182    3.4513 H   0  0  0  0  0  0  0  0  0  0  0  0
    1.6597   -0.8936    5.2668 H   0  0  0  0  0  0  0  0  0  0  0  0
    1.0337   -3.1575    6.7413 H   0  0  0  0  0  0  0  0  0  0  0  0
   -1.6794   -3.3684    6.5066 H   0  0  0  0  0  0  0  0  0  0  0  0
   -2.2125    2.0861    4.2980 H   0  0  0  0  0  0  0  0  0  0  0  0
  1  2  2  0
  2 17  1  0
  2  3  1  0
  3  4  1  0
  3 18  1  0
  3 19  1  0
  4 17  1  0
  4  5  2  0
  5  6  1  0
  6 10  1  0
  6  7  2  0
  7  8  1  0
  8  9  2  0
  8 20  1  0
  9 10  1  0
 10 11  1  0
 11 12  1  0
 11 17  1  0
 11 21  1  6
 12 16  1  0
 12 13  2  0
 13 14  1  0
 13 22  1  0
 14 15  2  0
 14 23  1  0
 15 16  1  0
 15 24  1  0
 17 25  1  6
M  END
>  <i_m_ct_stereo_status>  (338) 
1

>  <s_m_source_file>  (338) 
/var/tmp/pbs.5076255.sched01/tmpj3mqheq3/1200r5s1sfv.sdf

>  <i_m_source_file_index>  (338) 
20

>  <i_lp_mmshare_version>  (338) 
48012

>  <i_f3d_flags>  (338) 
0

>  <s_epik_input>  (338) 
bzFbY0hdW2NIXVtjSF1jMVtDQEBIXShbQ0BIXShDMj0zKUMoPU8pW0NIMl0yKW40YyhOMyluW2NIXW40

>  <s_epik_cmdline>  (338) 
J2VwaWtfcHl0aG9uJywgJy1waHQnLCAnMi4wJywgJy1waCcsICc3LjAnLCAnLXRuJywgJzgnLCAnLW1hJywgJzIwMCcsICctaW1hZScsICc8aW5maWxlLm1hZT4nLCAnLW9tYWUnLCAnPG91dGZpbGUubWFlPic=

>  <r_lp_tautomer_probability>  (338) 
1

>  <r_epik_Ionization_Penalty>  (338) 
3.94847e-07

>  <r_epik_Ionization_Penalty_Charging>  (338) 
0

>  <r_epik_Ionization_Penalty_Neutral>  (338) 
3.94847e-07

>  <r_epik_State_Penalty>  (338) 
-0

>  <r_epik_Charging_Adjusted_Penalty>  (338) 
0

>  <i_epik_Tot_Q>  (338) 
0

>  <i_epik_Tot_abs_Q>  (338) 
0

>  <s_epik_Chemistry_Notes>  (338) 
This compound has an imine and may undergo hydrolysis.

>  <s_lp_Force_Field>  (338) 
OPLS3e

>  <r_lp_Energy>  (338) 
14.1919

>  <b_lp_Chiralities_Consistent>  (338) 
1

>  <s_lp_Variant>  (338) 
101:0-1

>  <s_i_glide_gridfile>  (338) 
pfpi4k_grid

>  <i_i_glide_lignum>  (338) 
20

>  <i_i_glide_rotatable_bonds>  (338) 
1

>  <r_i_docking_score>  (338) 
-3.10914

>  <r_i_glide_ligand_efficiency>  (338) 
-0.182891

>  <r_i_glide_ligand_efficiency_sa>  (338) 
-0.470264

>  <r_i_glide_ligand_efficiency_ln>  (338) 
-0.811106

>  <r_i_glide_gscore>  (338) 
-3.10914

>  <r_i_glide_lipo>  (338) 
0

>  <r_i_glide_hbond>  (338) 
-0.16

>  <r_i_glide_metal>  (338) 
-0

>  <r_i_glide_rewards>  (338) 
-1.85314

>  <r_i_glide_evdw>  (338) 
-17.3696

>  <r_i_glide_ecoul>  (338) 
-2.81843

>  <r_i_glide_erotb>  (338) 
0.327107

>  <r_i_glide_esite>  (338) 
-0.131873

>  <r_i_glide_emodel>  (338) 
-23.7611

>  <r_i_glide_energy>  (338) 
-20.188

>  <r_i_glide_einternal>  (338) 
0.350572

>  <r_i_glide_intrahb_reward>  (338) 
-0

>  <i_i_glide_confnum>  (338) 
4

>  <i_i_glide_posenum>  (338) 
10

>  <r_i_glide_eff_state_penalty>  (338) 
0

>  <ligand_id>  (338) 
101

>  <original_smiles>  (338) 
O=C1CC2=Nc3ncnn3C(c3ccco3)C12

>  <smiles>  (338) 
[H]c1nc2n(n1)C([H])(c1oc([H])c([H])c1[H])C1([H])C(=O)C([H])([H])C1=N2

$$$$
101:0:2
     RDKit          3D

 25 28  0  0  1  0  0  0  0  0999 V2000
   -0.5744    5.4676    7.0986 O   0  0  0  0  0  0  0  0  0  0  0  0
   -0.7815    4.2826    7.3800 C   0  0  0  0  0  0  0  0  0  0  0  0
   -1.7371    3.5729    8.3931 C   0  0  0  0  0  0  0  0  0  0  0  0
   -1.4441    2.3505    7.5467 C   0  0  0  0  0  0  0  0  0  0  0  0
   -2.1688    1.4200    7.1127 N   0  0  0  0  0  0  0  0  0  0  0  0
   -1.6841    0.6668    6.0790 C   0  0  0  0  0  0  0  0  0  0  0  0
   -2.0064   -0.5633    5.6816 N   0  0  0  0  0  0  0  0  0  0  0  0
   -1.1244   -0.7304    4.6467 C   0  0  0  0  0  0  0  0  0  0  0  0
   -0.3299    0.2991    4.3805 N   0  0  0  0  0  0  0  0  0  0  0  0
   -0.7074    1.1944    5.3195 N   0  0  0  0  0  0  0  0  0  0  0  0
   -0.1035    2.5122    5.4426 C   0  0  1  0  0  0  0  0  0  0  0  0
   -0.6857    3.4865    4.4535 C   0  0  0  0  0  0  0  0  0  0  0  0
   -1.8104    3.4861    3.6736 C   0  0  0  0  0  0  0  0  0  0  0  0
   -1.7868    4.6951    2.9311 C   0  0  0  0  0  0  0  0  0  0  0  0
   -0.6342    5.3383    3.2915 C   0  0  0  0  0  0  0  0  0  0  0  0
    0.0446    4.6131    4.2241 O   0  0  0  0  0  0  0  0  0  0  0  0
   -0.1780    2.9053    6.9312 C   0  0  1  0  0  0  0  0  0  0  0  0
   -1.3206    3.5371    9.3975 H   0  0  0  0  0  0  0  0  0  0  0  0
   -2.7494    3.9899    8.4345 H   0  0  0  0  0  0  0  0  0  0  0  0
   -1.0626   -1.6480    4.0663 H   0  0  0  0  0  0  0  0  0  0  0  0
    0.9438    2.4036    5.1874 H   0  0  0  0  0  0  0  0  0  0  0  0
   -2.5480    2.6893    3.6356 H   0  0  0  0  0  0  0  0  0  0  0  0
   -2.4947    5.0494    2.1971 H   0  0  0  0  0  0  0  0  0  0  0  0
   -0.1621    6.2650    2.9881 H   0  0  0  0  0  0  0  0  0  0  0  0
    0.7100    2.6266    7.4950 H   0  0  0  0  0  0  0  0  0  0  0  0
  1  2  2  0
  2 17  1  0
  2  3  1  0
  3  4  1  0
  3 18  1  0
  3 19  1  0
  4 17  1  0
  4  5  2  0
  5  6  1  0
  6 10  1  0
  6  7  2  0
  7  8  1  0
  8  9  2  0
  8 20  1  0
  9 10  1  0
 10 11  1  0
 11 12  1  0
 11 17  1  0
 11 21  1  6
 12 16  1  0
 12 13  2  0
 13 14  1  0
 13 22  1  0
 14 15  2  0
 14 23  1  0
 15 16  1  0
 15 24  1  0
 17 25  1  1
M  END
>  <i_m_ct_stereo_status>  (339) 
1

>  <s_m_source_file>  (339) 
/var/tmp/pbs.5076255.sched01/tmpj3mqheq3/1200r5s1sfv.sdf

>  <i_m_source_file_index>  (339) 
20

>  <i_lp_mmshare_version>  (339) 
48012

>  <i_f3d_flags>  (339) 
0

>  <s_epik_input>  (339) 
bzFbY0hdW2NIXVtjSF1jMVtDQEBIXShbQ0BIXShDMj0zKUMoPU8pW0NIMl0yKW40YyhOMyluW2NIXW40

>  <s_epik_cmdline>  (339) 
J2VwaWtfcHl0aG9uJywgJy1waHQnLCAnMi4wJywgJy1waCcsICc3LjAnLCAnLXRuJywgJzgnLCAnLW1hJywgJzIwMCcsICctaW1hZScsICc8aW5maWxlLm1hZT4nLCAnLW9tYWUnLCAnPG91dGZpbGUubWFlPic=

>  <r_lp_tautomer_probability>  (339) 
1

>  <r_epik_Ionization_Penalty>  (339) 
3.94847e-07

>  <r_epik_Ionization_Penalty_Charging>  (339) 
0

>  <r_epik_Ionization_Penalty_Neutral>  (339) 
3.94847e-07

>  <r_epik_State_Penalty>  (339) 
-0

>  <r_epik_Charging_Adjusted_Penalty>  (339) 
0

>  <i_epik_Tot_Q>  (339) 
0

>  <i_epik_Tot_abs_Q>  (339) 
0

>  <s_epik_Chemistry_Notes>  (339) 
This compound has an imine and may undergo hydrolysis.

>  <s_lp_Force_Field>  (339) 
OPLS3e

>  <r_lp_Energy>  (339) 
14.1919

>  <b_lp_Chiralities_Consistent>  (339) 
1

>  <s_lp_Variant>  (339) 
101:0-1

>  <s_i_glide_gridfile>  (339) 
pfpi4k_grid

>  <i_i_glide_lignum>  (339) 
20

>  <i_i_glide_rotatable_bonds>  (339) 
1

>  <r_i_docking_score>  (339) 
-3.09186

>  <r_i_glide_ligand_efficiency>  (339) 
-0.181874

>  <r_i_glide_ligand_efficiency_sa>  (339) 
-0.46765

>  <r_i_glide_ligand_efficiency_ln>  (339) 
-0.806597

>  <r_i_glide_gscore>  (339) 
-3.09186

>  <r_i_glide_lipo>  (339) 
0

>  <r_i_glide_hbond>  (339) 
-0.164818

>  <r_i_glide_metal>  (339) 
-0

>  <r_i_glide_rewards>  (339) 
-1.85314

>  <r_i_glide_evdw>  (339) 
-14.7652

>  <r_i_glide_ecoul>  (339) 
-3.58364

>  <r_i_glide_erotb>  (339) 
0.327107

>  <r_i_glide_esite>  (339) 
-0.125205

>  <r_i_glide_emodel>  (339) 
-22.0473

>  <r_i_glide_energy>  (339) 
-18.3489

>  <r_i_glide_einternal>  (339) 
0.213568

>  <r_i_glide_intrahb_reward>  (339) 
-0

>  <i_i_glide_confnum>  (339) 
4

>  <i_i_glide_posenum>  (339) 
38

>  <r_i_glide_eff_state_penalty>  (339) 
0

>  <ligand_id>  (339) 
101

>  <original_smiles>  (339) 
O=C1CC2=Nc3ncnn3C(c3ccco3)C12

>  <smiles>  (339) 
[H]c1nc2n(n1)C([H])(c1oc([H])c([H])c1[H])C1([H])C(=O)C([H])([H])C1=N2

$$$$
102:0:0
     RDKit          3D

 70 75  0  0  1  0  0  0  0  0999 V2000
   -3.4034    3.6431    2.8797 C   0  0  0  0  0  0  0  0  0  0  0  0
   -2.8084    4.9369    2.7597 O   0  0  0  0  0  0  0  0  0  0  0  0
   -1.4425    4.9371    2.9900 C   0  0  0  0  0  0  0  0  0  0  0  0
   -1.1426    4.8685    4.3401 O   0  0  0  0  0  0  0  0  0  0  0  0
   -0.0991    4.0066    4.8506 C   0  0  1  0  0  0  0  0  0  0  0  0
    1.3272    4.0857    4.2127 C   0  0  0  0  0  0  0  0  0  0  0  0
    2.2332    3.4979    5.3247 C   0  0  1  0  0  0  0  0  0  0  0  0
    3.7344    3.6654    5.0682 C   0  0  0  0  0  0  0  0  0  0  0  0
    1.7532    4.2015    6.5770 C   0  0  2  0  0  0  0  0  0  0  0  0
    1.1378    3.6913    7.9114 C   0  0  1  0  0  0  0  0  0  0  0  0
   -0.1564    4.2069    7.4752 O   0  0  0  0  0  0  0  0  0  0  0  0
    0.3588    4.7086    6.2312 C   0  0  2  0  0  0  0  0  0  0  0  0
    0.0943    6.2668    6.3003 C   0  0  0  0  0  0  0  0  0  0  0  0
    0.7613    7.1139    5.1919 C   0  0  0  0  0  0  0  0  0  0  0  0
    0.4853    6.9225    7.6440 C   0  0  0  0  0  0  0  0  0  0  0  0
    0.4995    2.4532    8.5556 C   0  0  2  0  0  0  0  0  0  0  0  0
    1.1037    1.3201    9.1309 O   0  0  0  0  0  0  0  0  0  0  0  0
    0.1288    1.0624    8.0719 C   0  0  1  0  0  0  0  0  0  0  0  0
   -1.2630    1.3170    8.1696 O   0  0  0  0  0  0  0  0  0  0  0  0
   -1.7764    1.8090    6.9136 C   0  0  1  0  0  0  0  0  0  0  0  0
   -2.6039    3.0958    7.0438 C   0  0  0  0  0  0  0  0  0  0  0  0
   -0.8692    1.5542    5.6688 C   0  0  0  0  0  0  0  0  0  0  0  0
   -0.4653    2.4619    4.7053 C   0  0  0  0  0  0  0  0  0  0  0  0
   -0.0935    1.8486    3.3306 C   0  0  0  0  0  0  0  0  0  0  0  0
   -0.3947    0.0595    5.7718 C   0  0  1  0  0  0  0  0  0  0  0  0
   -1.5562   -0.7794    5.7649 O   0  0  0  0  0  0  0  0  0  0  0  0
    0.5723   -0.5995    4.7649 C   0  0  0  0  0  0  0  0  0  0  0  0
    0.2113   -1.0525    3.6877 O   0  0  0  0  0  0  0  0  0  0  0  0
    1.9926   -0.8054    5.2740 C   0  0  1  0  0  0  0  0  0  0  0  0
    3.0639   -0.2837    4.2896 C   0  0  0  0  0  0  0  0  0  0  0  0
    1.9968   -0.2526    6.7040 C   0  0  1  0  0  0  0  0  0  0  0  0
    2.8521    0.8615    6.8628 O   0  0  0  0  0  0  0  0  0  0  0  0
    0.4800   -0.0292    7.0705 C   0  0  1  0  0  0  0  0  0  0  0  0
    0.1220   -1.2230    7.7667 O   0  0  0  0  0  0  0  0  0  0  0  0
   -4.4825    3.7221    2.7398 H   0  0  0  0  0  0  0  0  0  0  0  0
   -3.2376    3.2200    3.8714 H   0  0  0  0  0  0  0  0  0  0  0  0
   -3.0373    2.9200    2.1471 H   0  0  0  0  0  0  0  0  0  0  0  0
   -1.0908    4.0708    2.4976 H   0  0  0  0  0  0  0  0  0  0  0  0
   -0.9535    5.7752    2.4964 H   0  0  0  0  0  0  0  0  0  0  0  0
    1.4796    3.6476    3.2320 H   0  0  0  0  0  0  0  0  0  0  0  0
    1.6577    5.0971    4.0322 H   0  0  0  0  0  0  0  0  0  0  0  0
    1.9963    2.4447    5.3627 H   0  0  0  0  0  0  0  0  0  0  0  0
    4.0130    4.7182    4.9756 H   0  0  0  0  0  0  0  0  0  0  0  0
    4.0099    3.1643    4.1432 H   0  0  0  0  0  0  0  0  0  0  0  0
    4.3265    3.2302    5.8763 H   0  0  0  0  0  0  0  0  0  0  0  0
    2.3863    5.0530    6.8334 H   0  0  0  0  0  0  0  0  0  0  0  0
    1.5557    4.3150    8.6992 H   0  0  0  0  0  0  0  0  0  0  0  0
   -0.9791    6.4290    6.2211 H   0  0  0  0  0  0  0  0  0  0  0  0
    1.8368    6.9524    5.1633 H   0  0  0  0  0  0  0  0  0  0  0  0
    0.6252    8.1871    5.3403 H   0  0  0  0  0  0  0  0  0  0  0  0
    0.3497    6.9025    4.2045 H   0  0  0  0  0  0  0  0  0  0  0  0
    1.5573    6.8583    7.8193 H   0  0  0  0  0  0  0  0  0  0  0  0
   -0.0312    6.4677    8.4878 H   0  0  0  0  0  0  0  0  0  0  0  0
    0.2281    7.9847    7.6496 H   0  0  0  0  0  0  0  0  0  0  0  0
   -0.1395    2.8456    9.3509 H   0  0  0  0  0  0  0  0  0  0  0  0
   -2.5938    1.1054    6.7604 H   0  0  0  0  0  0  0  0  0  0  0  0
   -2.3114    3.8487    6.3236 H   0  0  0  0  0  0  0  0  0  0  0  0
   -2.5037    3.5130    8.0452 H   0  0  0  0  0  0  0  0  0  0  0  0
   -3.6603    2.9031    6.8789 H   0  0  0  0  0  0  0  0  0  0  0  0
   -0.1107    2.4354    2.4247 H   0  0  0  0  0  0  0  0  0  0  0  0
   -0.8161    1.0672    3.1031 H   0  0  0  0  0  0  0  0  0  0  0  0
    0.9255    1.4667    3.3092 H   0  0  0  0  0  0  0  0  0  0  0  0
   -1.9238   -0.7327    4.8936 H   0  0  0  0  0  0  0  0  0  0  0  0
    2.1155   -1.8881    5.3375 H   0  0  0  0  0  0  0  0  0  0  0  0
    3.0127   -0.8258    3.3431 H   0  0  0  0  0  0  0  0  0  0  0  0
    4.0671   -0.4181    4.6989 H   0  0  0  0  0  0  0  0  0  0  0  0
    2.9315    0.7751    4.0628 H   0  0  0  0  0  0  0  0  0  0  0  0
    2.4351   -0.9999    7.3622 H   0  0  0  0  0  0  0  0  0  0  0  0
    2.5727    1.5690    6.3079 H   0  0  0  0  0  0  0  0  0  0  0  0
    0.6191   -1.9544    7.4403 H   0  0  0  0  0  0  0  0  0  0  0  0
  1  2  1  0
  1 35  1  0
  1 36  1  0
  1 37  1  0
  2  3  1  0
  3  4  1  0
  3 38  1  0
  3 39  1  0
  5  4  1  6
  5 12  1  0
  5 23  1  0
  5  6  1  0
  6  7  1  0
  6 40  1  0
  6 41  1  0
  7  8  1  0
  7  9  1  0
  7 42  1  1
  8 43  1  0
  8 44  1  0
  8 45  1  0
  9 12  1  0
  9 10  1  0
  9 46  1  1
 10 11  1  0
 10 16  1  0
 10 47  1  1
 11 12  1  0
 12 13  1  6
 13 14  1  0
 13 15  1  0
 13 48  1  0
 14 49  1  0
 14 50  1  0
 14 51  1  0
 15 52  1  0
 15 53  1  0
 15 54  1  0
 16 18  1  0
 16 17  1  0
 16 55  1  1
 18 17  1  1
 18 33  1  0
 18 19  1  0
 19 20  1  0
 20 21  1  0
 20 22  1  0
 20 56  1  6
 21 57  1  0
 21 58  1  0
 21 59  1  0
 22 23  2  3
 22 25  1  0
 23 24  1  0
 24 60  1  0
 24 61  1  0
 24 62  1  0
 25 33  1  0
 25 26  1  1
 25 27  1  0
 26 63  1  0
 27 28  2  0
 27 29  1  0
 29 30  1  0
 29 31  1  0
 29 64  1  1
 30 65  1  0
 30 66  1  0
 30 67  1  0
 31 32  1  0
 31 33  1  0
 31 68  1  1
 32 69  1  0
 33 34  1  1
 34 70  1  0
M  END
>  <i_m_ct_stereo_status>  (340) 
1

>  <s_m_source_file>  (340) 
/var/tmp/pbs.5076255.sched01/tmpj3mqheq3/1200r5s1sfv.sdf

>  <i_m_source_file_index>  (340) 
21

>  <i_lp_mmshare_version>  (340) 
48012

>  <i_f3d_flags>  (340) 
0

>  <s_epik_input>  (340) 
TzFbQ0BIXShbQ0BAXTEyMylbQ0BIXTRbQ0BASF01W0NAQF0oTzQpKFtDSF0oW0NIM10pW0NIM10pW0NAXShbQ0gyXVtDQEhdNVtDSDNdKShPW0NIMl1PW0NIM10pL0MoW0NIM10pPUMoXFtDQEBIXShPMilbQ0gzXSlbQ0BdNihbT0hdKVtDQEBdMyhbT0hdKVtDQEhdKFtPSF0pW0NAQEhdKEM2PU8pW0NIM10=

>  <s_epik_cmdline>  (340) 
J2VwaWtfcHl0aG9uJywgJy1waHQnLCAnMi4wJywgJy1waCcsICc3LjAnLCAnLXRuJywgJzgnLCAnLW1hJywgJzIwMCcsICctaW1hZScsICc8aW5maWxlLm1hZT4nLCAnLW9tYWUnLCAnPG91dGZpbGUubWFlPic=

>  <r_lp_tautomer_probability>  (340) 
1

>  <r_epik_Ionization_Penalty>  (340) 
5.27143e-05

>  <r_epik_Ionization_Penalty_Charging>  (340) 
0

>  <r_epik_Ionization_Penalty_Neutral>  (340) 
5.27143e-05

>  <r_epik_State_Penalty>  (340) 
-0

>  <r_epik_Charging_Adjusted_Penalty>  (340) 
0

>  <i_epik_Tot_Q>  (340) 
0

>  <i_epik_Tot_abs_Q>  (340) 
0

>  <s_epik_Chemistry_Notes>  (340) 
This compound contains an acetal/aminal-like group ( X-CH(R)-Y where X, Y are N, S, or O) that may be acid/base labile, releasing an aldehyde.

>  <s_lp_Force_Field>  (340) 
OPLS3e

>  <r_lp_Energy>  (340) 
162.639

>  <b_lp_Chiralities_Consistent>  (340) 
1

>  <s_lp_Variant>  (340) 
102:0-1

>  <s_i_glide_gridfile>  (340) 
pfpi4k_grid

>  <i_i_glide_lignum>  (340) 
21

>  <i_i_glide_rotatable_bonds>  (340) 
7

>  <r_i_docking_score>  (340) 
-2.77135

>  <r_i_glide_ligand_efficiency>  (340) 
-0.0815103

>  <r_i_glide_ligand_efficiency_sa>  (340) 
-0.264062

>  <r_i_glide_ligand_efficiency_ln>  (340) 
-0.612269

>  <r_i_glide_gscore>  (340) 
-2.77135

>  <r_i_glide_lipo>  (340) 
-0.139219

>  <r_i_glide_hbond>  (340) 
-0.278116

>  <r_i_glide_metal>  (340) 
-0

>  <r_i_glide_rewards>  (340) 
-0.132628

>  <r_i_glide_evdw>  (340) 
-19.7099

>  <r_i_glide_ecoul>  (340) 
-8.60619

>  <r_i_glide_erotb>  (340) 
0.175639

>  <r_i_glide_esite>  (340) 
-0.1206

>  <r_i_glide_emodel>  (340) 
-28.4087

>  <r_i_glide_energy>  (340) 
-28.3161

>  <r_i_glide_einternal>  (340) 
8.49218

>  <r_i_glide_intrahb_reward>  (340) 
-0

>  <i_i_glide_confnum>  (340) 
5

>  <i_i_glide_posenum>  (340) 
1

>  <r_i_glide_eff_state_penalty>  (340) 
0

>  <ligand_id>  (340) 
102

>  <original_smiles>  (340) 
COCOC12CC(C)C3C(OC31C(C)C)C1OC13OC(C)C(=C2C)C1(O)C(=O)C(C)C(O)C13O

>  <smiles>  (340) 
[H]OC12C(=O)C([H])(C([H])([H])[H])C([H])(O[H])C1(O[H])C13OC([H])(C([H])([H])[H])C2=C(C([H])([H])[H])C2(OC([H])([H])OC([H])([H])[H])C([H])([H])C([H])(C([H])([H])[H])C4([H])C([H])(OC24C([H])(C([H])([H])[H])C([H])([H])[H])C1([H])O3

$$$$
102:0:1
     RDKit          3D

 70 75  0  0  1  0  0  0  0  0999 V2000
   -3.3836    3.6547    2.8948 C   0  0  0  0  0  0  0  0  0  0  0  0
   -2.7926    4.9434    2.7726 O   0  0  0  0  0  0  0  0  0  0  0  0
   -1.4293    4.9707    2.9774 C   0  0  0  0  0  0  0  0  0  0  0  0
   -1.1182    4.9196    4.3182 O   0  0  0  0  0  0  0  0  0  0  0  0
   -0.0566    4.0840    4.8270 C   0  0  1  0  0  0  0  0  0  0  0  0
    1.3630    4.1465    4.1677 C   0  0  0  0  0  0  0  0  0  0  0  0
    2.2796    3.5766    5.2811 C   0  0  1  0  0  0  0  0  0  0  0  0
    3.7806    3.7333    5.0072 C   0  0  0  0  0  0  0  0  0  0  0  0
    1.8218    4.3147    6.5281 C   0  0  2  0  0  0  0  0  0  0  0  0
    1.2218    3.8267    7.8770 C   0  0  1  0  0  0  0  0  0  0  0  0
   -0.0757    4.3447    7.4517 O   0  0  0  0  0  0  0  0  0  0  0  0
    0.4253    4.8161    6.1887 C   0  0  2  0  0  0  0  0  0  0  0  0
    0.1724    6.3819    6.2316 C   0  0  0  0  0  0  0  0  0  0  0  0
    0.8193    7.2032    5.0941 C   0  0  0  0  0  0  0  0  0  0  0  0
    0.5953    7.0628    7.5540 C   0  0  0  0  0  0  0  0  0  0  0  0
    0.5817    2.6116    8.5619 C   0  0  2  0  0  0  0  0  0  0  0  0
    1.1879    1.4801    9.1571 O   0  0  0  0  0  0  0  0  0  0  0  0
    0.1830    1.2077    8.1159 C   0  0  1  0  0  0  0  0  0  0  0  0
   -1.2031    1.4702    8.2196 O   0  0  0  0  0  0  0  0  0  0  0  0
   -1.7181    1.9530    6.9589 C   0  0  1  0  0  0  0  0  0  0  0  0
   -2.5378    3.2450    7.0781 C   0  0  0  0  0  0  0  0  0  0  0  0
   -0.8248    1.6675    5.7048 C   0  0  0  0  0  0  0  0  0  0  0  0
   -0.4261    2.5333    4.7260 C   0  0  0  0  0  0  0  0  0  0  0  0
   -0.0753    1.9010    3.3538 C   0  0  0  0  0  0  0  0  0  0  0  0
   -0.3629    0.1636    5.8409 C   0  0  1  0  0  0  0  0  0  0  0  0
   -1.5359   -0.6551    5.8693 O   0  0  0  0  0  0  0  0  0  0  0  0
    0.5788   -0.5246    4.8325 C   0  0  0  0  0  0  0  0  0  0  0  0
    0.2121   -0.9832    3.7544 O   0  0  0  0  0  0  0  0  0  0  0  0
    2.0074   -0.7214    5.3261 C   0  0  1  0  0  0  0  0  0  0  0  0
    3.0739   -0.2267    4.3146 C   0  0  0  0  0  0  0  0  0  0  0  0
    2.0344   -0.1383    6.7414 C   0  0  1  0  0  0  0  0  0  0  0  0
    2.9005    0.9737    6.8742 O   0  0  0  0  0  0  0  0  0  0  0  0
    0.5300    0.1032    7.1257 C   0  0  1  0  0  0  0  0  0  0  0  0
    0.2323   -1.0945    7.8330 O   0  0  0  0  0  0  0  0  0  0  0  0
   -4.4665    3.7309    2.7778 H   0  0  0  0  0  0  0  0  0  0  0  0
   -3.1868    3.2357    3.8759 H   0  0  0  0  0  0  0  0  0  0  0  0
   -3.0200    2.9595    2.1455 H   0  0  0  0  0  0  0  0  0  0  0  0
   -1.0754    4.1091    2.4801 H   0  0  0  0  0  0  0  0  0  0  0  0
   -0.9671    5.8105    2.4770 H   0  0  0  0  0  0  0  0  0  0  0  0
    1.4960    3.6787    3.1952 H   0  0  0  0  0  0  0  0  0  0  0  0
    1.6990    5.1562    3.9624 H   0  0  0  0  0  0  0  0  0  0  0  0
    2.0383    2.5262    5.3501 H   0  0  0  0  0  0  0  0  0  0  0  0
    4.0607    4.7831    4.8898 H   0  0  0  0  0  0  0  0  0  0  0  0
    4.0370    3.2112    4.0882 H   0  0  0  0  0  0  0  0  0  0  0  0
    4.3785    3.3104    5.8167 H   0  0  0  0  0  0  0  0  0  0  0  0
    2.4583    5.1661    6.7625 H   0  0  0  0  0  0  0  0  0  0  0  0
    1.6536    4.4684    8.6415 H   0  0  0  0  0  0  0  0  0  0  0  0
   -0.9016    6.5438    6.1801 H   0  0  0  0  0  0  0  0  0  0  0  0
    1.8931    7.0417    5.0505 H   0  0  0  0  0  0  0  0  0  0  0  0
    0.6827    8.2818    5.2223 H   0  0  0  0  0  0  0  0  0  0  0  0
    0.3876    6.9657    4.1216 H   0  0  0  0  0  0  0  0  0  0  0  0
    1.6706    7.0003    7.7090 H   0  0  0  0  0  0  0  0  0  0  0  0
    0.0942    6.6301    8.4186 H   0  0  0  0  0  0  0  0  0  0  0  0
    0.3450    8.1276    7.5423 H   0  0  0  0  0  0  0  0  0  0  0  0
   -0.0519    3.0313    9.3479 H   0  0  0  0  0  0  0  0  0  0  0  0
   -2.5426    1.2525    6.8411 H   0  0  0  0  0  0  0  0  0  0  0  0
   -2.2506    3.9785    6.3384 H   0  0  0  0  0  0  0  0  0  0  0  0
   -2.4213    3.6821    8.0683 H   0  0  0  0  0  0  0  0  0  0  0  0
   -3.5921    3.0397    6.9308 H   0  0  0  0  0  0  0  0  0  0  0  0
   -0.0978    2.4710    2.4369 H   0  0  0  0  0  0  0  0  0  0  0  0
   -0.8060    1.1236    3.1597 H   0  0  0  0  0  0  0  0  0  0  0  0
    0.9333    1.5050    3.3445 H   0  0  0  0  0  0  0  0  0  0  0  0
   -1.8934   -0.6518    4.9912 H   0  0  0  0  0  0  0  0  0  0  0  0
    2.1269   -1.8061    5.4066 H   0  0  0  0  0  0  0  0  0  0  0  0
    3.0074   -0.7858    3.3811 H   0  0  0  0  0  0  0  0  0  0  0  0
    4.0828   -0.3588    4.7167 H   0  0  0  0  0  0  0  0  0  0  0  0
    2.9464    0.8301    4.0711 H   0  0  0  0  0  0  0  0  0  0  0  0
    2.4880   -0.8806    7.3993 H   0  0  0  0  0  0  0  0  0  0  0  0
    2.6152    1.6685    6.3068 H   0  0  0  0  0  0  0  0  0  0  0  0
    0.7723   -1.0681    8.6091 H   0  0  0  0  0  0  0  0  0  0  0  0
  1  2  1  0
  1 35  1  0
  1 36  1  0
  1 37  1  0
  2  3  1  0
  3  4  1  0
  3 38  1  0
  3 39  1  0
  5  4  1  6
  5 12  1  0
  5 23  1  0
  5  6  1  0
  6  7  1  0
  6 40  1  0
  6 41  1  0
  7  8  1  0
  7  9  1  0
  7 42  1  1
  8 43  1  0
  8 44  1  0
  8 45  1  0
  9 12  1  0
  9 10  1  0
  9 46  1  1
 10 11  1  0
 10 16  1  0
 10 47  1  1
 11 12  1  0
 12 13  1  6
 13 14  1  0
 13 15  1  0
 13 48  1  0
 14 49  1  0
 14 50  1  0
 14 51  1  0
 15 52  1  0
 15 53  1  0
 15 54  1  0
 16 18  1  0
 16 17  1  0
 16 55  1  1
 18 17  1  1
 18 33  1  0
 18 19  1  0
 19 20  1  0
 20 21  1  0
 20 22  1  0
 20 56  1  6
 21 57  1  0
 21 58  1  0
 21 59  1  0
 22 23  2  3
 22 25  1  0
 23 24  1  0
 24 60  1  0
 24 61  1  0
 24 62  1  0
 25 33  1  0
 25 26  1  1
 25 27  1  0
 26 63  1  0
 27 28  2  0
 27 29  1  0
 29 30  1  0
 29 31  1  0
 29 64  1  1
 30 65  1  0
 30 66  1  0
 30 67  1  0
 31 32  1  0
 31 33  1  0
 31 68  1  1
 32 69  1  0
 33 34  1  1
 34 70  1  0
M  END
>  <i_m_ct_stereo_status>  (341) 
1

>  <s_m_source_file>  (341) 
/var/tmp/pbs.5076255.sched01/tmpj3mqheq3/1200r5s1sfv.sdf

>  <i_m_source_file_index>  (341) 
21

>  <i_lp_mmshare_version>  (341) 
48012

>  <i_f3d_flags>  (341) 
0

>  <s_epik_input>  (341) 
TzFbQ0BIXShbQ0BAXTEyMylbQ0BIXTRbQ0BASF01W0NAQF0oTzQpKFtDSF0oW0NIM10pW0NIM10pW0NAXShbQ0gyXVtDQEhdNVtDSDNdKShPW0NIMl1PW0NIM10pL0MoW0NIM10pPUMoXFtDQEBIXShPMilbQ0gzXSlbQ0BdNihbT0hdKVtDQEBdMyhbT0hdKVtDQEhdKFtPSF0pW0NAQEhdKEM2PU8pW0NIM10=

>  <s_epik_cmdline>  (341) 
J2VwaWtfcHl0aG9uJywgJy1waHQnLCAnMi4wJywgJy1waCcsICc3LjAnLCAnLXRuJywgJzgnLCAnLW1hJywgJzIwMCcsICctaW1hZScsICc8aW5maWxlLm1hZT4nLCAnLW9tYWUnLCAnPG91dGZpbGUubWFlPic=

>  <r_lp_tautomer_probability>  (341) 
1

>  <r_epik_Ionization_Penalty>  (341) 
5.27143e-05

>  <r_epik_Ionization_Penalty_Charging>  (341) 
0

>  <r_epik_Ionization_Penalty_Neutral>  (341) 
5.27143e-05

>  <r_epik_State_Penalty>  (341) 
-0

>  <r_epik_Charging_Adjusted_Penalty>  (341) 
0

>  <i_epik_Tot_Q>  (341) 
0

>  <i_epik_Tot_abs_Q>  (341) 
0

>  <s_epik_Chemistry_Notes>  (341) 
This compound contains an acetal/aminal-like group ( X-CH(R)-Y where X, Y are N, S, or O) that may be acid/base labile, releasing an aldehyde.

>  <s_lp_Force_Field>  (341) 
OPLS3e

>  <r_lp_Energy>  (341) 
162.639

>  <b_lp_Chiralities_Consistent>  (341) 
1

>  <s_lp_Variant>  (341) 
102:0-1

>  <s_i_glide_gridfile>  (341) 
pfpi4k_grid

>  <i_i_glide_lignum>  (341) 
21

>  <i_i_glide_rotatable_bonds>  (341) 
7

>  <r_i_docking_score>  (341) 
-2.69302

>  <r_i_glide_ligand_efficiency>  (341) 
-0.0792065

>  <r_i_glide_ligand_efficiency_sa>  (341) 
-0.256598

>  <r_i_glide_ligand_efficiency_ln>  (341) 
-0.594964

>  <r_i_glide_gscore>  (341) 
-2.69302

>  <r_i_glide_lipo>  (341) 
-0.123995

>  <r_i_glide_hbond>  (341) 
-0.258645

>  <r_i_glide_metal>  (341) 
-0

>  <r_i_glide_rewards>  (341) 
-0.132628

>  <r_i_glide_evdw>  (341) 
-19.5288

>  <r_i_glide_ecoul>  (341) 
-8.3997

>  <r_i_glide_erotb>  (341) 
0.175639

>  <r_i_glide_esite>  (341) 
-0.116999

>  <r_i_glide_emodel>  (341) 
-27.7294

>  <r_i_glide_energy>  (341) 
-27.9285

>  <r_i_glide_einternal>  (341) 
8.27813

>  <r_i_glide_intrahb_reward>  (341) 
-0

>  <i_i_glide_confnum>  (341) 
5

>  <i_i_glide_posenum>  (341) 
34

>  <r_i_glide_eff_state_penalty>  (341) 
0

>  <ligand_id>  (341) 
102

>  <original_smiles>  (341) 
COCOC12CC(C)C3C(OC31C(C)C)C1OC13OC(C)C(=C2C)C1(O)C(=O)C(C)C(O)C13O

>  <smiles>  (341) 
[H]OC12C(=O)C([H])(C([H])([H])[H])C([H])(O[H])C1(O[H])C13OC([H])(C([H])([H])[H])C2=C(C([H])([H])[H])C2(OC([H])([H])OC([H])([H])[H])C([H])([H])C([H])(C([H])([H])[H])C4([H])C([H])(OC24C([H])(C([H])([H])[H])C([H])([H])[H])C1([H])O3

$$$$
102:0:2
     RDKit          3D

 70 75  0  0  1  0  0  0  0  0999 V2000
    1.9325   -3.6752    7.9562 C   0  0  0  0  0  0  0  0  0  0  0  0
    0.7716   -2.8528    8.1206 O   0  0  0  0  0  0  0  0  0  0  0  0
    0.9691   -1.5798    7.5962 C   0  0  0  0  0  0  0  0  0  0  0  0
   -0.1343   -0.7123    7.7798 O   0  0  0  0  0  0  0  0  0  0  0  0
   -0.0545    0.6406    7.2565 C   0  0  1  0  0  0  0  0  0  0  0  0
   -1.4211    1.3663    7.5583 C   0  0  0  0  0  0  0  0  0  0  0  0
   -1.1216    2.8467    7.2662 C   0  0  1  0  0  0  0  0  0  0  0  0
   -2.2130    3.8001    7.7544 C   0  0  0  0  0  0  0  0  0  0  0  0
    0.2067    3.0305    7.9630 C   0  0  2  0  0  0  0  0  0  0  0  0
    1.5901    3.4739    7.4413 C   0  0  1  0  0  0  0  0  0  0  0  0
    2.0692    2.1207    7.6345 O   0  0  0  0  0  0  0  0  0  0  0  0
    0.8101    1.6457    8.1394 C   0  0  2  0  0  0  0  0  0  0  0  0
    1.1104    1.1656    9.6101 C   0  0  0  0  0  0  0  0  0  0  0  0
   -0.1147    1.0692   10.5493 C   0  0  0  0  0  0  0  0  0  0  0  0
    2.1810    1.9916   10.3492 C   0  0  0  0  0  0  0  0  0  0  0  0
    2.4019    3.6617    6.1698 C   0  0  2  0  0  0  0  0  0  0  0  0
    2.4116    4.7544    5.2734 O   0  0  0  0  0  0  0  0  0  0  0  0
    2.1790    3.4168    4.6770 C   0  0  1  0  0  0  0  0  0  0  0  0
    3.1345    2.3667    4.5665 O   0  0  0  0  0  0  0  0  0  0  0  0
    2.4898    1.0961    4.8296 C   0  0  1  0  0  0  0  0  0  0  0  0
    3.1966    0.3221    5.9401 C   0  0  0  0  0  0  0  0  0  0  0  0
    0.9301    1.0814    4.7460 C   0  0  0  0  0  0  0  0  0  0  0  0
   -0.0260    0.6277    5.6565 C   0  0  0  0  0  0  0  0  0  0  0  0
   -1.3617    0.1226    5.1006 C   0  0  0  0  0  0  0  0  0  0  0  0
    0.5911    1.8432    3.4069 C   0  0  1  0  0  0  0  0  0  0  0  0
    1.2108    1.1602    2.3226 O   0  0  0  0  0  0  0  0  0  0  0  0
   -0.8320    2.1127    2.9285 C   0  0  0  0  0  0  0  0  0  0  0  0
   -1.4979    1.2966    2.2682 O   0  0  0  0  0  0  0  0  0  0  0  0
   -1.3062    3.5428    3.0896 C   0  0  1  0  0  0  0  0  0  0  0  0
   -2.6945    3.6777    3.7061 C   0  0  0  0  0  0  0  0  0  0  0  0
   -0.1081    4.3098    3.6926 C   0  0  1  0  0  0  0  0  0  0  0  0
   -0.4076    4.8147    4.9722 O   0  0  0  0  0  0  0  0  0  0  0  0
    1.0960    3.3211    3.6262 C   0  0  1  0  0  0  0  0  0  0  0  0
    1.8210    3.7115    2.4710 O   0  0  0  0  0  0  0  0  0  0  0  0
    1.7547   -4.6596    8.3823 H   0  0  0  0  0  0  0  0  0  0  0  0
    2.8231   -3.2776    8.4440 H   0  0  0  0  0  0  0  0  0  0  0  0
    2.1833   -3.8091    6.9049 H   0  0  0  0  0  0  0  0  0  0  0  0
    1.8572   -1.1855    8.0922 H   0  0  0  0  0  0  0  0  0  0  0  0
    1.1996   -1.6744    6.5342 H   0  0  0  0  0  0  0  0  0  0  0  0
   -2.3192    1.0025    7.0637 H   0  0  0  0  0  0  0  0  0  0  0  0
   -1.6821    1.2992    8.6067 H   0  0  0  0  0  0  0  0  0  0  0  0
   -1.0100    2.9385    6.1956 H   0  0  0  0  0  0  0  0  0  0  0  0
   -2.3878    3.7152    8.8282 H   0  0  0  0  0  0  0  0  0  0  0  0
   -3.1521    3.5887    7.2408 H   0  0  0  0  0  0  0  0  0  0  0  0
   -1.9272    4.8309    7.5499 H   0  0  0  0  0  0  0  0  0  0  0  0
    0.1066    3.4979    8.9410 H   0  0  0  0  0  0  0  0  0  0  0  0
    1.9982    4.1464    8.1964 H   0  0  0  0  0  0  0  0  0  0  0  0
    1.5519    0.1767    9.5897 H   0  0  0  0  0  0  0  0  0  0  0  0
   -0.6899    2.0022   10.5925 H   0  0  0  0  0  0  0  0  0  0  0  0
    0.1885    0.8366   11.5771 H   0  0  0  0  0  0  0  0  0  0  0  0
   -0.7708    0.2586   10.2366 H   0  0  0  0  0  0  0  0  0  0  0  0
    1.8741    3.0268   10.5207 H   0  0  0  0  0  0  0  0  0  0  0  0
    3.1315    1.9908    9.8107 H   0  0  0  0  0  0  0  0  0  0  0  0
    2.3952    1.5500   11.3272 H   0  0  0  0  0  0  0  0  0  0  0  0
    3.4416    3.5016    6.4646 H   0  0  0  0  0  0  0  0  0  0  0  0
    2.7889    0.5473    3.9397 H   0  0  0  0  0  0  0  0  0  0  0  0
    2.4913    0.1016    6.7221 H   0  0  0  0  0  0  0  0  0  0  0  0
    4.0613    0.8978    6.3256 H   0  0  0  0  0  0  0  0  0  0  0  0
    3.5887   -0.6260    5.5408 H   0  0  0  0  0  0  0  0  0  0  0  0
   -1.8060   -0.6369    5.7455 H   0  0  0  0  0  0  0  0  0  0  0  0
   -1.2448   -0.3630    4.1339 H   0  0  0  0  0  0  0  0  0  0  0  0
   -2.1012    0.9200    4.9841 H   0  0  0  0  0  0  0  0  0  0  0  0
    1.0878    1.6751    1.5296 H   0  0  0  0  0  0  0  0  0  0  0  0
   -1.4378    3.9422    2.0911 H   0  0  0  0  0  0  0  0  0  0  0  0
   -3.4490    3.1837    3.0804 H   0  0  0  0  0  0  0  0  0  0  0  0
   -2.9437    4.7349    3.6948 H   0  0  0  0  0  0  0  0  0  0  0  0
   -2.7662    3.2582    4.7122 H   0  0  0  0  0  0  0  0  0  0  0  0
    0.0771    5.2016    3.0894 H   0  0  0  0  0  0  0  0  0  0  0  0
    0.3927    5.1903    5.3072 H   0  0  0  0  0  0  0  0  0  0  0  0
    1.2029    3.9824    1.8054 H   0  0  0  0  0  0  0  0  0  0  0  0
  1  2  1  0
  1 35  1  0
  1 36  1  0
  1 37  1  0
  2  3  1  0
  3  4  1  0
  3 38  1  0
  3 39  1  0
  5  4  1  1
  5 12  1  0
  5 23  1  0
  5  6  1  0
  6  7  1  0
  6 40  1  0
  6 41  1  0
  7  8  1  0
  7  9  1  0
  7 42  1  6
  8 43  1  0
  8 44  1  0
  8 45  1  0
  9 12  1  0
  9 10  1  0
  9 46  1  1
 10 11  1  0
 10 16  1  0
 10 47  1  1
 11 12  1  0
 12 13  1  1
 13 14  1  0
 13 15  1  0
 13 48  1  0
 14 49  1  0
 14 50  1  0
 14 51  1  0
 15 52  1  0
 15 53  1  0
 15 54  1  0
 16 18  1  0
 16 17  1  0
 16 55  1  1
 18 17  1  6
 18 33  1  0
 18 19  1  0
 19 20  1  0
 20 21  1  0
 20 22  1  0
 20 56  1  6
 21 57  1  0
 21 58  1  0
 21 59  1  0
 22 23  2  3
 22 25  1  0
 23 24  1  0
 24 60  1  0
 24 61  1  0
 24 62  1  0
 25 33  1  0
 25 26  1  6
 25 27  1  0
 26 63  1  0
 27 28  2  0
 27 29  1  0
 29 30  1  0
 29 31  1  0
 29 64  1  6
 30 65  1  0
 30 66  1  0
 30 67  1  0
 31 32  1  0
 31 33  1  0
 31 68  1  6
 32 69  1  0
 33 34  1  6
 34 70  1  0
M  END
>  <i_m_ct_stereo_status>  (342) 
1

>  <s_m_source_file>  (342) 
/var/tmp/pbs.5076255.sched01/tmpj3mqheq3/1200r5s1sfv.sdf

>  <i_m_source_file_index>  (342) 
21

>  <i_lp_mmshare_version>  (342) 
48012

>  <i_f3d_flags>  (342) 
0

>  <s_epik_input>  (342) 
TzFbQ0BIXShbQ0BAXTEyMylbQ0BIXTRbQ0BASF01W0NAQF0oTzQpKFtDSF0oW0NIM10pW0NIM10pW0NAXShbQ0gyXVtDQEhdNVtDSDNdKShPW0NIMl1PW0NIM10pL0MoW0NIM10pPUMoXFtDQEBIXShPMilbQ0gzXSlbQ0BdNihbT0hdKVtDQEBdMyhbT0hdKVtDQEhdKFtPSF0pW0NAQEhdKEM2PU8pW0NIM10=

>  <s_epik_cmdline>  (342) 
J2VwaWtfcHl0aG9uJywgJy1waHQnLCAnMi4wJywgJy1waCcsICc3LjAnLCAnLXRuJywgJzgnLCAnLW1hJywgJzIwMCcsICctaW1hZScsICc8aW5maWxlLm1hZT4nLCAnLW9tYWUnLCAnPG91dGZpbGUubWFlPic=

>  <r_lp_tautomer_probability>  (342) 
1

>  <r_epik_Ionization_Penalty>  (342) 
5.27143e-05

>  <r_epik_Ionization_Penalty_Charging>  (342) 
0

>  <r_epik_Ionization_Penalty_Neutral>  (342) 
5.27143e-05

>  <r_epik_State_Penalty>  (342) 
-0

>  <r_epik_Charging_Adjusted_Penalty>  (342) 
0

>  <i_epik_Tot_Q>  (342) 
0

>  <i_epik_Tot_abs_Q>  (342) 
0

>  <s_epik_Chemistry_Notes>  (342) 
This compound contains an acetal/aminal-like group ( X-CH(R)-Y where X, Y are N, S, or O) that may be acid/base labile, releasing an aldehyde.

>  <s_lp_Force_Field>  (342) 
OPLS3e

>  <r_lp_Energy>  (342) 
162.639

>  <b_lp_Chiralities_Consistent>  (342) 
1

>  <s_lp_Variant>  (342) 
102:0-1

>  <s_i_glide_gridfile>  (342) 
pfpi4k_grid

>  <i_i_glide_lignum>  (342) 
21

>  <i_i_glide_rotatable_bonds>  (342) 
7

>  <r_i_docking_score>  (342) 
-2.49072

>  <r_i_glide_ligand_efficiency>  (342) 
-0.0732564

>  <r_i_glide_ligand_efficiency_sa>  (342) 
-0.237322

>  <r_i_glide_ligand_efficiency_ln>  (342) 
-0.55027

>  <r_i_glide_gscore>  (342) 
-2.49072

>  <r_i_glide_lipo>  (342) 
-0.0627929

>  <r_i_glide_hbond>  (342) 
-0.0089326

>  <r_i_glide_metal>  (342) 
-0

>  <r_i_glide_rewards>  (342) 
-0.632628

>  <r_i_glide_evdw>  (342) 
-17.0761

>  <r_i_glide_ecoul>  (342) 
-6.80117

>  <r_i_glide_erotb>  (342) 
0.175639

>  <r_i_glide_esite>  (342) 
-0.0880238

>  <r_i_glide_emodel>  (342) 
-27.1544

>  <r_i_glide_energy>  (342) 
-23.8773

>  <r_i_glide_einternal>  (342) 
9.18946

>  <r_i_glide_intrahb_reward>  (342) 
-0.5

>  <i_i_glide_confnum>  (342) 
5

>  <i_i_glide_posenum>  (342) 
9

>  <r_i_glide_eff_state_penalty>  (342) 
0

>  <ligand_id>  (342) 
102

>  <original_smiles>  (342) 
COCOC12CC(C)C3C(OC31C(C)C)C1OC13OC(C)C(=C2C)C1(O)C(=O)C(C)C(O)C13O

>  <smiles>  (342) 
[H]OC12C(=O)C([H])(C([H])([H])[H])C([H])(O[H])C1(O[H])C13OC([H])(C([H])([H])[H])C2=C(C([H])([H])[H])C2(OC([H])([H])OC([H])([H])[H])C([H])([H])C([H])(C([H])([H])[H])C4([H])C([H])(OC24C([H])(C([H])([H])[H])C([H])([H])[H])C1([H])O3

$$$$
103:0:0
     RDKit          3D

 49 53  0  0  1  0  0  0  0  0999 V2000
    1.6292   -2.9206    3.2939 C   0  0  0  0  0  0  0  0  0  0  0  0
    2.9867   -2.9647    2.5968 C   0  0  0  0  0  0  0  0  0  0  0  0
    3.6909   -1.9095    2.1080 C   0  0  0  0  0  0  0  0  0  0  0  0
    5.1876   -2.2110    1.8870 C   0  0  1  0  0  0  0  0  0  0  0  0
    5.1164   -3.5337    2.5247 C   0  0  0  0  0  0  0  0  0  0  0  0
    3.7323   -4.2078    2.1750 C   0  0  2  0  0  0  0  0  0  0  0  0
    2.8734   -4.5696    0.8922 C   0  0  0  0  0  0  0  0  0  0  0  0
    1.8488   -5.2443    1.0564 O   0  0  0  0  0  0  0  0  0  0  0  0
    3.1178   -4.0234   -0.4366 C   0  0  0  0  0  0  0  0  0  0  0  0
    2.0622   -3.7926   -1.3449 C   0  0  0  0  0  0  0  0  0  0  0  0
    2.2457   -3.0512   -2.5260 C   0  0  0  0  0  0  0  0  0  0  0  0
    3.4898   -2.4450   -2.7915 C   0  0  0  0  0  0  0  0  0  0  0  0
    3.6053   -1.4346   -3.9072 C   0  0  0  0  0  0  0  0  0  0  0  0
    4.5841   -2.7002   -1.9373 C   0  0  0  0  0  0  0  0  0  0  0  0
    4.3715   -3.6298   -0.9009 C   0  0  0  0  0  0  0  0  0  0  0  0
    5.6011   -3.9180   -0.0833 C   0  0  2  0  0  0  0  0  0  0  0  0
    5.9658   -5.3963    0.5392 C   0  0  0  0  0  0  0  0  0  0  0  0
    4.9963   -6.2965    1.3351 N   0  0  0  0  0  0  0  0  0  0  0  0
    5.3124   -7.7258    1.1953 C   0  0  0  0  0  0  0  0  0  0  0  0
    4.1246   -5.8500    2.8339 S   0  0  0  0  0  0  0  0  0  0  0  0
    5.1247   -5.8049    3.9213 O   0  0  0  0  0  0  0  0  0  0  0  0
    2.9627   -6.7325    2.9584 O   0  0  0  0  0  0  0  0  0  0  0  0
    5.9644   -2.5118    0.5513 C   0  0  2  0  0  0  0  0  0  0  0  0
    7.4850   -2.5092    0.8367 C   0  0  0  0  0  0  0  0  0  0  0  0
    5.7654   -1.3699   -0.4917 C   0  0  0  0  0  0  0  0  0  0  0  0
    5.6750   -1.8642   -1.8530 O   0  0  0  0  0  0  0  0  0  0  0  0
    0.9135   -3.6207    2.8706 H   0  0  0  0  0  0  0  0  0  0  0  0
    1.1857   -1.9194    3.2295 H   0  0  0  0  0  0  0  0  0  0  0  0
    1.7185   -3.1626    4.3512 H   0  0  0  0  0  0  0  0  0  0  0  0
    3.3506   -0.8840    2.1667 H   0  0  0  0  0  0  0  0  0  0  0  0
    5.7497   -1.5067    2.5023 H   0  0  0  0  0  0  0  0  0  0  0  0
    6.0430   -4.0982    2.5144 H   0  0  0  0  0  0  0  0  0  0  0  0
    5.0918   -3.3258    3.6007 H   0  0  0  0  0  0  0  0  0  0  0  0
    1.0648   -4.1594   -1.1256 H   0  0  0  0  0  0  0  0  0  0  0  0
    1.3976   -2.8801   -3.1655 H   0  0  0  0  0  0  0  0  0  0  0  0
    4.4545   -1.7018   -4.5303 H   0  0  0  0  0  0  0  0  0  0  0  0
    3.7642   -0.4414   -3.4937 H   0  0  0  0  0  0  0  0  0  0  0  0
    2.7032   -1.4125   -4.5160 H   0  0  0  0  0  0  0  0  0  0  0  0
    6.3336   -3.9601   -0.8780 H   0  0  0  0  0  0  0  0  0  0  0  0
    6.2800   -5.9837   -0.2974 H   0  0  0  0  0  0  0  0  0  0  0  0
    6.9061   -5.3496    1.0952 H   0  0  0  0  0  0  0  0  0  0  0  0
    6.2751   -7.9607    1.6547 H   0  0  0  0  0  0  0  0  0  0  0  0
    5.3434   -8.0222    0.1494 H   0  0  0  0  0  0  0  0  0  0  0  0
    4.5427   -8.3492    1.6386 H   0  0  0  0  0  0  0  0  0  0  0  0
    8.0844   -2.6506   -0.0605 H   0  0  0  0  0  0  0  0  0  0  0  0
    7.7822   -3.3067    1.5201 H   0  0  0  0  0  0  0  0  0  0  0  0
    7.7807   -1.5484    1.2601 H   0  0  0  0  0  0  0  0  0  0  0  0
    4.8817   -0.7770   -0.2608 H   0  0  0  0  0  0  0  0  0  0  0  0
    6.5886   -0.6755   -0.4358 H   0  0  0  0  0  0  0  0  0  0  0  0
  1  2  1  0
  1 27  1  0
  1 28  1  0
  1 29  1  0
  6  2  1  1
  2  3  2  0
  3  4  1  0
  3 30  1  0
  4 23  1  0
  4  5  1  0
  4 31  1  1
  5  6  1  0
  5 32  1  0
  5 33  1  0
  6 20  1  0
  6  7  1  0
  7  8  2  0
  7  9  1  0
  9 15  2  0
  9 10  1  0
 10 11  2  0
 10 34  1  0
 11 12  1  0
 11 35  1  0
 12 13  1  0
 12 14  2  0
 13 36  1  0
 13 37  1  0
 13 38  1  0
 14 26  1  0
 14 15  1  0
 15 16  1  0
 16 17  1  0
 16 23  1  0
 16 39  1  6
 17 18  1  0
 17 40  1  0
 17 41  1  0
 18 19  1  0
 18 20  1  0
 19 42  1  0
 19 43  1  0
 19 44  1  0
 20 21  2  0
 20 22  2  0
 23 24  1  1
 23 25  1  0
 24 45  1  0
 24 46  1  0
 24 47  1  0
 25 26  1  0
 25 48  1  0
 25 49  1  0
M  END
>  <i_m_ct_stereo_status>  (343) 
1

>  <s_m_source_file>  (343) 
/var/tmp/pbs.5076255.sched01/tmpj3mqheq3/1200r5s1sfv.sdf

>  <i_m_source_file_index>  (343) 
23

>  <i_lp_mmshare_version>  (343) 
48012

>  <i_f3d_flags>  (343) 
2

>  <s_epik_input>  (343) 
W0NIM11DKEMxMjMpPVtDSF1bQ0BIXShbQ0gyXTEpW0NAQF00KFtDSDNdKVtDQEBIXShbQ0gyXU4oW0NIM10pUzMoPU8pPU8pYzVjKEMyPU8pW2NIXVtjSF1jKFtDSDNdKWM1T1tDSDJdNA==

>  <s_epik_cmdline>  (343) 
J2VwaWtfcHl0aG9uJywgJy1waHQnLCAnMi4wJywgJy1waCcsICc3LjAnLCAnLXRuJywgJzgnLCAnLW1hJywgJzIwMCcsICctaW1hZScsICc8aW5maWxlLm1hZT4nLCAnLW9tYWUnLCAnPG91dGZpbGUubWFlPic=

>  <r_lp_tautomer_probability>  (343) 
1

>  <r_epik_Ionization_Penalty>  (343) 
7.62063e-11

>  <r_epik_Ionization_Penalty_Charging>  (343) 
0

>  <r_epik_Ionization_Penalty_Neutral>  (343) 
7.62063e-11

>  <r_epik_State_Penalty>  (343) 
-0

>  <r_epik_Charging_Adjusted_Penalty>  (343) 
0

>  <i_epik_Tot_Q>  (343) 
0

>  <i_epik_Tot_abs_Q>  (343) 
0

>  <s_lp_Force_Field>  (343) 
OPLS3e

>  <r_lp_Energy>  (343) 
173.727

>  <b_lp_Chiralities_Consistent>  (343) 
0

>  <s_lp_Variant>  (343) 
103:0-1

>  <s_i_glide_gridfile>  (343) 
pfpi4k_grid

>  <i_i_glide_lignum>  (343) 
23

>  <i_i_glide_rotatable_bonds>  (343) 
0

>  <r_i_docking_score>  (343) 
-2.93372

>  <r_i_glide_ligand_efficiency>  (343) 
-0.112836

>  <r_i_glide_ligand_efficiency_sa>  (343) 
-0.334275

>  <r_i_glide_ligand_efficiency_ln>  (343) 
-0.688975

>  <r_i_glide_gscore>  (343) 
-2.93372

>  <r_i_glide_lipo>  (343) 
-0.748707

>  <r_i_glide_hbond>  (343) 
-0.0872885

>  <r_i_glide_metal>  (343) 
-0

>  <r_i_glide_rewards>  (343) 
-0.973607

>  <r_i_glide_evdw>  (343) 
-21.3378

>  <r_i_glide_ecoul>  (343) 
-0.259645

>  <r_i_glide_erotb>  (343) 
0

>  <r_i_glide_esite>  (343) 
-0.0182837

>  <r_i_glide_emodel>  (343) 
-24.7692

>  <r_i_glide_energy>  (343) 
-21.5975

>  <r_i_glide_einternal>  (343) 
0

>  <r_i_glide_intrahb_reward>  (343) 
-0

>  <i_i_glide_confnum>  (343) 
2

>  <i_i_glide_posenum>  (343) 
25

>  <r_i_glide_eff_state_penalty>  (343) 
0

>  <ligand_id>  (343) 
103

>  <original_smiles>  (343) 
CC1=CC2CC13C(=O)c1ccc(C)c4c1C(CN(C)S3(=O)=O)C2(C)CO4

>  <smiles>  (343) 
[H]C1=C(C([H])([H])[H])C23C(=O)c4c([H])c([H])c(C([H])([H])[H])c5c4C([H])(C([H])([H])N(C([H])([H])[H])S2(=O)=O)C(C([H])([H])[H])(C([H])([H])O5)C1([H])C3([H])[H]

$$$$
103:0:1
     RDKit          3D

 49 53  0  0  1  0  0  0  0  0999 V2000
    0.9187   -3.7387    3.5506 C   0  0  0  0  0  0  0  0  0  0  0  0
    2.2384   -3.1852    3.0427 C   0  0  0  0  0  0  0  0  0  0  0  0
    2.4879   -1.9141    2.6158 C   0  0  0  0  0  0  0  0  0  0  0  0
    3.9896   -1.5721    2.5772 C   0  0  1  0  0  0  0  0  0  0  0  0
    4.3964   -2.8347    3.2186 C   0  0  0  0  0  0  0  0  0  0  0  0
    3.4656   -3.9996    2.7004 C   0  0  2  0  0  0  0  0  0  0  0  0
    2.9745   -4.6120    1.3316 C   0  0  0  0  0  0  0  0  0  0  0  0
    2.2644   -5.6169    1.3778 O   0  0  0  0  0  0  0  0  0  0  0  0
    3.1512   -3.9658    0.0362 C   0  0  0  0  0  0  0  0  0  0  0  0
    2.1872   -4.1210   -0.9785 C   0  0  0  0  0  0  0  0  0  0  0  0
    2.2093   -3.3458   -2.1496 C   0  0  0  0  0  0  0  0  0  0  0  0
    3.1230   -2.2865   -2.2701 C   0  0  0  0  0  0  0  0  0  0  0  0
    2.9601   -1.2750   -3.3792 C   0  0  0  0  0  0  0  0  0  0  0  0
    4.1069   -2.1133   -1.2784 C   0  0  0  0  0  0  0  0  0  0  0  0
    4.1811   -3.0836   -0.2712 C   0  0  0  0  0  0  0  0  0  0  0  0
    5.3142   -2.8650    0.6943 C   0  0  2  0  0  0  0  0  0  0  0  0
    6.1774   -4.1006    1.3507 C   0  0  0  0  0  0  0  0  0  0  0  0
    5.5795   -5.3514    2.0303 N   0  0  0  0  0  0  0  0  0  0  0  0
    6.4759   -6.5154    1.9342 C   0  0  0  0  0  0  0  0  0  0  0  0
    4.4370   -5.3627    3.4135 S   0  0  0  0  0  0  0  0  0  0  0  0
    5.1789   -4.9713    4.6176 O   0  0  0  0  0  0  0  0  0  0  0  0
    3.7235   -6.6443    3.4029 O   0  0  0  0  0  0  0  0  0  0  0  0
    4.9725   -1.4618    1.3511 C   0  0  2  0  0  0  0  0  0  0  0  0
    6.2938   -0.8349    1.8235 C   0  0  0  0  0  0  0  0  0  0  0  0
    4.4479   -0.4572    0.2734 C   0  0  0  0  0  0  0  0  0  0  0  0
    4.7287   -0.9074   -1.0696 O   0  0  0  0  0  0  0  0  0  0  0  0
    0.6171   -4.6361    3.0125 H   0  0  0  0  0  0  0  0  0  0  0  0
    0.1337   -2.9890    3.4311 H   0  0  0  0  0  0  0  0  0  0  0  0
    0.9713   -3.9819    4.6120 H   0  0  0  0  0  0  0  0  0  0  0  0
    1.7535   -1.1223    2.6079 H   0  0  0  0  0  0  0  0  0  0  0  0
    4.1396   -0.7283    3.2500 H   0  0  0  0  0  0  0  0  0  0  0  0
    5.4668   -2.9666    3.3203 H   0  0  0  0  0  0  0  0  0  0  0  0
    4.1745   -2.7006    4.2822 H   0  0  0  0  0  0  0  0  0  0  0  0
    1.4139   -4.8650   -0.8564 H   0  0  0  0  0  0  0  0  0  0  0  0
    1.4404   -3.5009   -2.8907 H   0  0  0  0  0  0  0  0  0  0  0  0
    3.9097   -1.1293   -3.8866 H   0  0  0  0  0  0  0  0  0  0  0  0
    2.6178   -0.3266   -2.9617 H   0  0  0  0  0  0  0  0  0  0  0  0
    2.2286   -1.6081   -4.1171 H   0  0  0  0  0  0  0  0  0  0  0  0
    6.0918   -2.5750   -0.0127 H   0  0  0  0  0  0  0  0  0  0  0  0
    6.8045   -4.4686    0.5369 H   0  0  0  0  0  0  0  0  0  0  0  0
    6.9319   -3.6944    2.0180 H   0  0  0  0  0  0  0  0  0  0  0  0
    7.3726   -6.3549    2.5385 H   0  0  0  0  0  0  0  0  0  0  0  0
    6.7792   -6.6830    0.8973 H   0  0  0  0  0  0  0  0  0  0  0  0
    5.9693   -7.4182    2.2822 H   0  0  0  0  0  0  0  0  0  0  0  0
    6.9991   -0.6960    1.0004 H   0  0  0  0  0  0  0  0  0  0  0  0
    6.7772   -1.4659    2.5428 H   0  0  0  0  0  0  0  0  0  0  0  0
    6.1373    0.1265    2.3070 H   0  0  0  0  0  0  0  0  0  0  0  0
    3.3734   -0.2988    0.3930 H   0  0  0  0  0  0  0  0  0  0  0  0
    4.8926    0.5194    0.4374 H   0  0  0  0  0  0  0  0  0  0  0  0
  1  2  1  0
  1 27  1  0
  1 28  1  0
  1 29  1  0
  6  2  1  1
  2  3  2  0
  3  4  1  0
  3 30  1  0
  4 23  1  0
  4  5  1  0
  4 31  1  1
  5  6  1  0
  5 32  1  0
  5 33  1  0
  6 20  1  0
  6  7  1  0
  7  8  2  0
  7  9  1  0
  9 15  2  0
  9 10  1  0
 10 11  2  0
 10 34  1  0
 11 12  1  0
 11 35  1  0
 12 13  1  0
 12 14  2  0
 13 36  1  0
 13 37  1  0
 13 38  1  0
 14 26  1  0
 14 15  1  0
 15 16  1  0
 16 17  1  0
 16 23  1  0
 16 39  1  6
 17 18  1  0
 17 40  1  0
 17 41  1  0
 18 19  1  0
 18 20  1  0
 19 42  1  0
 19 43  1  0
 19 44  1  0
 20 21  2  0
 20 22  2  0
 23 24  1  1
 23 25  1  0
 24 45  1  0
 24 46  1  0
 24 47  1  0
 25 26  1  0
 25 48  1  0
 25 49  1  0
M  END
>  <i_m_ct_stereo_status>  (344) 
1

>  <s_m_source_file>  (344) 
/var/tmp/pbs.5076255.sched01/tmpj3mqheq3/1200r5s1sfv.sdf

>  <i_m_source_file_index>  (344) 
23

>  <i_lp_mmshare_version>  (344) 
48012

>  <i_f3d_flags>  (344) 
2

>  <s_epik_input>  (344) 
W0NIM11DKEMxMjMpPVtDSF1bQ0BIXShbQ0gyXTEpW0NAQF00KFtDSDNdKVtDQEBIXShbQ0gyXU4oW0NIM10pUzMoPU8pPU8pYzVjKEMyPU8pW2NIXVtjSF1jKFtDSDNdKWM1T1tDSDJdNA==

>  <s_epik_cmdline>  (344) 
J2VwaWtfcHl0aG9uJywgJy1waHQnLCAnMi4wJywgJy1waCcsICc3LjAnLCAnLXRuJywgJzgnLCAnLW1hJywgJzIwMCcsICctaW1hZScsICc8aW5maWxlLm1hZT4nLCAnLW9tYWUnLCAnPG91dGZpbGUubWFlPic=

>  <r_lp_tautomer_probability>  (344) 
1

>  <r_epik_Ionization_Penalty>  (344) 
7.62063e-11

>  <r_epik_Ionization_Penalty_Charging>  (344) 
0

>  <r_epik_Ionization_Penalty_Neutral>  (344) 
7.62063e-11

>  <r_epik_State_Penalty>  (344) 
-0

>  <r_epik_Charging_Adjusted_Penalty>  (344) 
0

>  <i_epik_Tot_Q>  (344) 
0

>  <i_epik_Tot_abs_Q>  (344) 
0

>  <s_lp_Force_Field>  (344) 
OPLS3e

>  <r_lp_Energy>  (344) 
173.727

>  <b_lp_Chiralities_Consistent>  (344) 
0

>  <s_lp_Variant>  (344) 
103:0-1

>  <s_i_glide_gridfile>  (344) 
pfpi4k_grid

>  <i_i_glide_lignum>  (344) 
23

>  <i_i_glide_rotatable_bonds>  (344) 
0

>  <r_i_docking_score>  (344) 
-2.6438

>  <r_i_glide_ligand_efficiency>  (344) 
-0.101685

>  <r_i_glide_ligand_efficiency_sa>  (344) 
-0.301241

>  <r_i_glide_ligand_efficiency_ln>  (344) 
-0.620889

>  <r_i_glide_gscore>  (344) 
-2.6438

>  <r_i_glide_lipo>  (344) 
-0.777932

>  <r_i_glide_hbond>  (344) 
0

>  <r_i_glide_metal>  (344) 
-0

>  <r_i_glide_rewards>  (344) 
-0.906261

>  <r_i_glide_evdw>  (344) 
-18.561

>  <r_i_glide_ecoul>  (344) 
-0.172693

>  <r_i_glide_erotb>  (344) 
0

>  <r_i_glide_esite>  (344) 
-0.00565716

>  <r_i_glide_emodel>  (344) 
-21.5205

>  <r_i_glide_energy>  (344) 
-18.7337

>  <r_i_glide_einternal>  (344) 
0

>  <r_i_glide_intrahb_reward>  (344) 
-0

>  <i_i_glide_confnum>  (344) 
1

>  <i_i_glide_posenum>  (344) 
5

>  <r_i_glide_eff_state_penalty>  (344) 
0

>  <ligand_id>  (344) 
103

>  <original_smiles>  (344) 
CC1=CC2CC13C(=O)c1ccc(C)c4c1C(CN(C)S3(=O)=O)C2(C)CO4

>  <smiles>  (344) 
[H]C1=C(C([H])([H])[H])C23C(=O)c4c([H])c([H])c(C([H])([H])[H])c5c4C([H])(C([H])([H])N(C([H])([H])[H])S2(=O)=O)C(C([H])([H])[H])(C([H])([H])O5)C1([H])C3([H])[H]

$$$$
103:0:2
     RDKit          3D

 49 53  0  0  1  0  0  0  0  0999 V2000
    2.9766   -0.2479    2.5533 C   0  0  0  0  0  0  0  0  0  0  0  0
    4.1428   -1.0522    1.9908 C   0  0  0  0  0  0  0  0  0  0  0  0
    5.0291   -0.6731    1.0248 C   0  0  0  0  0  0  0  0  0  0  0  0
    6.3140   -1.5354    0.9962 C   0  0  1  0  0  0  0  0  0  0  0  0
    5.9525   -2.2707    2.2169 C   0  0  0  0  0  0  0  0  0  0  0  0
    4.4097   -2.5189    2.2457 C   0  0  2  0  0  0  0  0  0  0  0  0
    3.3100   -3.1467    1.3102 C   0  0  0  0  0  0  0  0  0  0  0  0
    2.1947   -3.2441    1.8010 O   0  0  0  0  0  0  0  0  0  0  0  0
    3.4701   -3.4749   -0.0992 C   0  0  0  0  0  0  0  0  0  0  0  0
    2.3912   -3.3674   -1.0005 C   0  0  0  0  0  0  0  0  0  0  0  0
    2.5601   -3.3367   -2.3884 C   0  0  0  0  0  0  0  0  0  0  0  0
    3.8652   -3.3618   -2.9005 C   0  0  0  0  0  0  0  0  0  0  0  0
    4.0874   -3.1305   -4.3594 C   0  0  0  0  0  0  0  0  0  0  0  0
    4.9619   -3.5418   -2.0384 C   0  0  0  0  0  0  0  0  0  0  0  0
    4.6888   -3.7690   -0.6845 C   0  0  0  0  0  0  0  0  0  0  0  0
    5.9059   -4.0113    0.1674 C   0  0  2  0  0  0  0  0  0  0  0  0
    5.9073   -5.0524    1.4375 C   0  0  0  0  0  0  0  0  0  0  0  0
    4.8609   -5.0814    2.5770 N   0  0  0  0  0  0  0  0  0  0  0  0
    4.7187   -6.4231    3.1654 C   0  0  0  0  0  0  0  0  0  0  0  0
    4.4007   -3.7066    3.6446 S   0  0  0  0  0  0  0  0  0  0  0  0
    5.4939   -3.4762    4.5958 O   0  0  0  0  0  0  0  0  0  0  0  0
    3.0576   -3.9805    4.1819 O   0  0  0  0  0  0  0  0  0  0  0  0
    6.7622   -2.6879    0.0086 C   0  0  2  0  0  0  0  0  0  0  0  0
    8.2511   -3.0514    0.2729 C   0  0  0  0  0  0  0  0  0  0  0  0
    6.7256   -2.2086   -1.4843 C   0  0  0  0  0  0  0  0  0  0  0  0
    6.2296   -3.1981   -2.4038 O   0  0  0  0  0  0  0  0  0  0  0  0
    2.0320   -0.7867    2.5029 H   0  0  0  0  0  0  0  0  0  0  0  0
    2.8477    0.6863    1.9973 H   0  0  0  0  0  0  0  0  0  0  0  0
    3.1568    0.0215    3.5955 H   0  0  0  0  0  0  0  0  0  0  0  0
    5.0112    0.2944    0.5427 H   0  0  0  0  0  0  0  0  0  0  0  0
    7.1554   -0.8701    1.1827 H   0  0  0  0  0  0  0  0  0  0  0  0
    6.6107   -3.0742    2.4805 H   0  0  0  0  0  0  0  0  0  0  0  0
    6.1861   -1.5911    3.0440 H   0  0  0  0  0  0  0  0  0  0  0  0
    1.4150   -3.1560   -0.6218 H   0  0  0  0  0  0  0  0  0  0  0  0
    1.7045   -3.1893   -3.0247 H   0  0  0  0  0  0  0  0  0  0  0  0
    4.7001   -3.9463   -4.7412 H   0  0  0  0  0  0  0  0  0  0  0  0
    4.5977   -2.1781   -4.5065 H   0  0  0  0  0  0  0  0  0  0  0  0
    3.1382   -3.1084   -4.8920 H   0  0  0  0  0  0  0  0  0  0  0  0
    6.4491   -4.6672   -0.5017 H   0  0  0  0  0  0  0  0  0  0  0  0
    5.8940   -6.0446    0.9871 H   0  0  0  0  0  0  0  0  0  0  0  0
    6.8934   -5.0544    1.9007 H   0  0  0  0  0  0  0  0  0  0  0  0
    5.6262   -6.6966    3.7059 H   0  0  0  0  0  0  0  0  0  0  0  0
    4.5361   -7.1697    2.3912 H   0  0  0  0  0  0  0  0  0  0  0  0
    3.8753   -6.4508    3.8562 H   0  0  0  0  0  0  0  0  0  0  0  0
    8.6065   -3.7978   -0.4377 H   0  0  0  0  0  0  0  0  0  0  0  0
    8.4290   -3.4563    1.2674 H   0  0  0  0  0  0  0  0  0  0  0  0
    8.8983   -2.1825    0.1590 H   0  0  0  0  0  0  0  0  0  0  0  0
    6.1052   -1.3154   -1.5736 H   0  0  0  0  0  0  0  0  0  0  0  0
    7.7138   -1.9306   -1.8301 H   0  0  0  0  0  0  0  0  0  0  0  0
  1  2  1  0
  1 27  1  0
  1 28  1  0
  1 29  1  0
  6  2  1  1
  2  3  2  0
  3  4  1  0
  3 30  1  0
  4 23  1  0
  4  5  1  0
  4 31  1  1
  5  6  1  0
  5 32  1  0
  5 33  1  0
  6 20  1  0
  6  7  1  0
  7  8  2  0
  7  9  1  0
  9 15  2  0
  9 10  1  0
 10 11  2  0
 10 34  1  0
 11 12  1  0
 11 35  1  0
 12 13  1  0
 12 14  2  0
 13 36  1  0
 13 37  1  0
 13 38  1  0
 14 26  1  0
 14 15  1  0
 15 16  1  0
 16 17  1  0
 16 23  1  0
 16 39  1  6
 17 18  1  0
 17 40  1  0
 17 41  1  0
 18 19  1  0
 18 20  1  0
 19 42  1  0
 19 43  1  0
 19 44  1  0
 20 21  2  0
 20 22  2  0
 23 24  1  1
 23 25  1  0
 24 45  1  0
 24 46  1  0
 24 47  1  0
 25 26  1  0
 25 48  1  0
 25 49  1  0
M  END
>  <i_m_ct_stereo_status>  (345) 
1

>  <s_m_source_file>  (345) 
/var/tmp/pbs.5076255.sched01/tmpj3mqheq3/1200r5s1sfv.sdf

>  <i_m_source_file_index>  (345) 
23

>  <i_lp_mmshare_version>  (345) 
48012

>  <i_f3d_flags>  (345) 
2

>  <s_epik_input>  (345) 
W0NIM11DKEMxMjMpPVtDSF1bQ0BIXShbQ0gyXTEpW0NAQF00KFtDSDNdKVtDQEBIXShbQ0gyXU4oW0NIM10pUzMoPU8pPU8pYzVjKEMyPU8pW2NIXVtjSF1jKFtDSDNdKWM1T1tDSDJdNA==

>  <s_epik_cmdline>  (345) 
J2VwaWtfcHl0aG9uJywgJy1waHQnLCAnMi4wJywgJy1waCcsICc3LjAnLCAnLXRuJywgJzgnLCAnLW1hJywgJzIwMCcsICctaW1hZScsICc8aW5maWxlLm1hZT4nLCAnLW9tYWUnLCAnPG91dGZpbGUubWFlPic=

>  <r_lp_tautomer_probability>  (345) 
1

>  <r_epik_Ionization_Penalty>  (345) 
7.62063e-11

>  <r_epik_Ionization_Penalty_Charging>  (345) 
0

>  <r_epik_Ionization_Penalty_Neutral>  (345) 
7.62063e-11

>  <r_epik_State_Penalty>  (345) 
-0

>  <r_epik_Charging_Adjusted_Penalty>  (345) 
0

>  <i_epik_Tot_Q>  (345) 
0

>  <i_epik_Tot_abs_Q>  (345) 
0

>  <s_lp_Force_Field>  (345) 
OPLS3e

>  <r_lp_Energy>  (345) 
173.727

>  <b_lp_Chiralities_Consistent>  (345) 
0

>  <s_lp_Variant>  (345) 
103:0-1

>  <s_i_glide_gridfile>  (345) 
pfpi4k_grid

>  <i_i_glide_lignum>  (345) 
23

>  <i_i_glide_rotatable_bonds>  (345) 
0

>  <r_i_docking_score>  (345) 
-2.29853

>  <r_i_glide_ligand_efficiency>  (345) 
-0.0884049

>  <r_i_glide_ligand_efficiency_sa>  (345) 
-0.261899

>  <r_i_glide_ligand_efficiency_ln>  (345) 
-0.539802

>  <r_i_glide_gscore>  (345) 
-2.29853

>  <r_i_glide_lipo>  (345) 
-0.948313

>  <r_i_glide_hbond>  (345) 
0

>  <r_i_glide_metal>  (345) 
-0

>  <r_i_glide_rewards>  (345) 
-0.882487

>  <r_i_glide_evdw>  (345) 
-21.4012

>  <r_i_glide_ecoul>  (345) 
4.03382

>  <r_i_glide_erotb>  (345) 
0

>  <r_i_glide_esite>  (345) 
-0.0027399

>  <r_i_glide_emodel>  (345) 
-19.6629

>  <r_i_glide_energy>  (345) 
-17.3674

>  <r_i_glide_einternal>  (345) 
0

>  <r_i_glide_intrahb_reward>  (345) 
-0

>  <i_i_glide_confnum>  (345) 
1

>  <i_i_glide_posenum>  (345) 
38

>  <r_i_glide_eff_state_penalty>  (345) 
0

>  <ligand_id>  (345) 
103

>  <original_smiles>  (345) 
CC1=CC2CC13C(=O)c1ccc(C)c4c1C(CN(C)S3(=O)=O)C2(C)CO4

>  <smiles>  (345) 
[H]C1=C(C([H])([H])[H])C23C(=O)c4c([H])c([H])c(C([H])([H])[H])c5c4C([H])(C([H])([H])N(C([H])([H])[H])S2(=O)=O)C(C([H])([H])[H])(C([H])([H])O5)C1([H])C3([H])[H]

$$$$
104:0:0
     RDKit          3D

 24 25  0  0  1  0  0  0  0  0999 V2000
    2.2397   -3.0092   -3.6154 C   0  0  0  0  0  0  0  0  0  0  0  0
    3.5296   -3.0259   -2.8482 C   0  0  0  0  0  0  0  0  0  0  0  0
    4.6527   -2.8849   -3.5273 N   0  0  0  0  0  0  0  0  0  0  0  0
    5.6853   -2.9417   -2.5907 O   0  0  0  0  0  0  0  0  0  0  0  0
    5.1420   -3.1064   -1.3603 C   0  0  0  0  0  0  0  0  0  0  0  0
    6.1279   -3.1425   -0.2290 C   0  0  0  0  0  0  0  0  0  0  0  0
    3.7728   -3.2247   -1.4539 C   0  0  0  0  0  0  0  0  0  0  0  0
    2.7377   -3.4999   -0.3772 C   0  0  0  0  0  0  0  0  0  0  0  0
    2.9315   -4.8061    0.2799 N   0  0  0  0  0  0  0  0  0  0  0  0
    4.1073   -5.4962    0.5575 C   0  0  0  0  0  0  0  0  0  0  0  0
    3.7364   -6.5997    1.2708 C   0  0  0  0  0  0  0  0  0  0  0  0
    2.3015   -6.5707    1.3297 C   0  0  0  0  0  0  0  0  0  0  0  0
    1.8266   -5.4731    0.7525 N   0  0  0  0  0  0  0  0  0  0  0  0
    1.3696   -3.0377   -2.9622 H   0  0  0  0  0  0  0  0  0  0  0  0
    2.1679   -3.8519   -4.3074 H   0  0  0  0  0  0  0  0  0  0  0  0
    2.1512   -2.0998   -4.2085 H   0  0  0  0  0  0  0  0  0  0  0  0
    5.5901   -3.3555    0.7193 H   0  0  0  0  0  0  0  0  0  0  0  0
    6.7430   -2.2618   -0.1927 H   0  0  0  0  0  0  0  0  0  0  0  0
    6.8076   -3.9969   -0.3524 H   0  0  0  0  0  0  0  0  0  0  0  0
    2.7554   -2.6973    0.3659 H   0  0  0  0  0  0  0  0  0  0  0  0
    1.7388   -3.4489   -0.8099 H   0  0  0  0  0  0  0  0  0  0  0  0
    5.0859   -5.1502    0.2918 H   0  0  0  0  0  0  0  0  0  0  0  0
    4.4300   -7.3352    1.6685 H   0  0  0  0  0  0  0  0  0  0  0  0
    1.6172   -7.3137    1.7424 H   0  0  0  0  0  0  0  0  0  0  0  0
  1  2  1  0
  1 14  1  0
  1 15  1  0
  1 16  1  0
  2  7  1  0
  2  3  2  0
  3  4  1  0
  4  5  1  0
  5  6  1  0
  5  7  2  0
  6 17  1  0
  6 18  1  0
  6 19  1  0
  7  8  1  0
  8  9  1  0
  8 20  1  0
  8 21  1  0
  9 13  1  0
  9 10  1  0
 10 11  2  0
 10 22  1  0
 11 12  1  0
 11 23  1  0
 12 13  2  0
 12 24  1  0
M  END
>  <i_m_ct_stereo_status>  (346) 
1

>  <s_m_source_file>  (346) 
/var/tmp/pbs.5076255.sched01/tmpj3mqheq3/1200r5s1sfv.sdf

>  <i_m_source_file_index>  (346) 
24

>  <i_lp_mmshare_version>  (346) 
48012

>  <i_f3d_flags>  (346) 
0

>  <s_epik_input>  (346) 
W0NIM11jMW5vYyhbQ0gzXSljMVtDSDJdbjJbY0hdW2NIXVtjSF1uMg==

>  <s_epik_cmdline>  (346) 
J2VwaWtfcHl0aG9uJywgJy1waHQnLCAnMi4wJywgJy1waCcsICc3LjAnLCAnLXRuJywgJzgnLCAnLW1hJywgJzIwMCcsICctaW1hZScsICc8aW5maWxlLm1hZT4nLCAnLW9tYWUnLCAnPG91dGZpbGUubWFlPic=

>  <r_lp_tautomer_probability>  (346) 
1

>  <r_epik_Ionization_Penalty>  (346) 
0.000136659

>  <r_epik_Ionization_Penalty_Charging>  (346) 
0

>  <r_epik_Ionization_Penalty_Neutral>  (346) 
0.000136659

>  <r_epik_State_Penalty>  (346) 
-0

>  <r_epik_Charging_Adjusted_Penalty>  (346) 
0

>  <i_epik_Tot_Q>  (346) 
0

>  <i_epik_Tot_abs_Q>  (346) 
0

>  <s_lp_Force_Field>  (346) 
OPLS3e

>  <r_lp_Energy>  (346) 
0.035759

>  <b_lp_Chiralities_Consistent>  (346) 
1

>  <s_lp_Variant>  (346) 
104:0-1

>  <s_i_glide_gridfile>  (346) 
pfpi4k_grid

>  <i_i_glide_lignum>  (346) 
24

>  <i_i_glide_rotatable_bonds>  (346) 
2

>  <r_i_docking_score>  (346) 
-3.36736

>  <r_i_glide_ligand_efficiency>  (346) 
-0.259028

>  <r_i_glide_ligand_efficiency_sa>  (346) 
-0.609061

>  <r_i_glide_ligand_efficiency_ln>  (346) 
-0.944575

>  <r_i_glide_gscore>  (346) 
-3.36736

>  <r_i_glide_lipo>  (346) 
-0.484608

>  <r_i_glide_hbond>  (346) 
-0.0996945

>  <r_i_glide_metal>  (346) 
-0

>  <r_i_glide_rewards>  (346) 
-2.20089

>  <r_i_glide_evdw>  (346) 
-19.5844

>  <r_i_glide_ecoul>  (346) 
-3.79523

>  <r_i_glide_erotb>  (346) 
0.997531

>  <r_i_glide_esite>  (346) 
-0.0312003

>  <r_i_glide_emodel>  (346) 
-27.3604

>  <r_i_glide_energy>  (346) 
-23.3796

>  <r_i_glide_einternal>  (346) 
0.794818

>  <r_i_glide_intrahb_reward>  (346) 
-0

>  <i_i_glide_confnum>  (346) 
2

>  <i_i_glide_posenum>  (346) 
1

>  <r_i_glide_eff_state_penalty>  (346) 
0

>  <ligand_id>  (346) 
104

>  <original_smiles>  (346) 
Cc1noc(C)c1Cn1cccn1

>  <smiles>  (346) 
[H]c1nn(C([H])([H])c2c(C([H])([H])[H])noc2C([H])([H])[H])c([H])c1[H]

$$$$
104:0:1
     RDKit          3D

 24 25  0  0  1  0  0  0  0  0999 V2000
    5.9468   -3.0410    0.0653 C   0  0  0  0  0  0  0  0  0  0  0  0
    5.1137   -2.9335   -1.1964 C   0  0  0  0  0  0  0  0  0  0  0  0
    5.7368   -2.6791   -2.3311 N   0  0  0  0  0  0  0  0  0  0  0  0
    4.7549   -2.6182   -3.3247 O   0  0  0  0  0  0  0  0  0  0  0  0
    3.5491   -2.8466   -2.7379 C   0  0  0  0  0  0  0  0  0  0  0  0
    2.3729   -2.7746   -3.6523 C   0  0  0  0  0  0  0  0  0  0  0  0
    3.7083   -3.0983   -1.3869 C   0  0  0  0  0  0  0  0  0  0  0  0
    2.6403   -3.4676   -0.3838 C   0  0  0  0  0  0  0  0  0  0  0  0
    2.8636   -4.8040    0.2562 N   0  0  0  0  0  0  0  0  0  0  0  0
    4.0506   -5.4705    0.4785 C   0  0  0  0  0  0  0  0  0  0  0  0
    3.7289   -6.5775    1.2140 C   0  0  0  0  0  0  0  0  0  0  0  0
    2.3029   -6.5658    1.3059 C   0  0  0  0  0  0  0  0  0  0  0  0
    1.7831   -5.5129    0.7295 N   0  0  0  0  0  0  0  0  0  0  0  0
    5.3235   -3.3057    0.9305 H   0  0  0  0  0  0  0  0  0  0  0  0
    6.4940   -2.1263    0.2802 H   0  0  0  0  0  0  0  0  0  0  0  0
    6.6817   -3.8253   -0.0299 H   0  0  0  0  0  0  0  0  0  0  0  0
    1.4219   -2.9261   -3.1321 H   0  0  0  0  0  0  0  0  0  0  0  0
    2.4304   -3.5262   -4.4471 H   0  0  0  0  0  0  0  0  0  0  0  0
    2.3166   -1.7939   -4.1472 H   0  0  0  0  0  0  0  0  0  0  0  0
    2.5686   -2.6823    0.3726 H   0  0  0  0  0  0  0  0  0  0  0  0
    1.6462   -3.4537   -0.8690 H   0  0  0  0  0  0  0  0  0  0  0  0
    5.0068   -5.1670    0.1565 H   0  0  0  0  0  0  0  0  0  0  0  0
    4.4174   -7.2962    1.5951 H   0  0  0  0  0  0  0  0  0  0  0  0
    1.6134   -7.3386    1.6990 H   0  0  0  0  0  0  0  0  0  0  0  0
  1  2  1  0
  1 14  1  0
  1 15  1  0
  1 16  1  0
  2  7  1  0
  2  3  2  0
  3  4  1  0
  4  5  1  0
  5  6  1  0
  5  7  2  0
  6 17  1  0
  6 18  1  0
  6 19  1  0
  7  8  1  0
  8  9  1  0
  8 20  1  0
  8 21  1  0
  9 13  1  0
  9 10  1  0
 10 11  2  0
 10 22  1  0
 11 12  1  0
 11 23  1  0
 12 13  2  0
 12 24  1  0
M  END
>  <i_m_ct_stereo_status>  (347) 
1

>  <s_m_source_file>  (347) 
/var/tmp/pbs.5076255.sched01/tmpj3mqheq3/1200r5s1sfv.sdf

>  <i_m_source_file_index>  (347) 
24

>  <i_lp_mmshare_version>  (347) 
48012

>  <i_f3d_flags>  (347) 
0

>  <s_epik_input>  (347) 
W0NIM11jMW5vYyhbQ0gzXSljMVtDSDJdbjJbY0hdW2NIXVtjSF1uMg==

>  <s_epik_cmdline>  (347) 
J2VwaWtfcHl0aG9uJywgJy1waHQnLCAnMi4wJywgJy1waCcsICc3LjAnLCAnLXRuJywgJzgnLCAnLW1hJywgJzIwMCcsICctaW1hZScsICc8aW5maWxlLm1hZT4nLCAnLW9tYWUnLCAnPG91dGZpbGUubWFlPic=

>  <r_lp_tautomer_probability>  (347) 
1

>  <r_epik_Ionization_Penalty>  (347) 
0.000136659

>  <r_epik_Ionization_Penalty_Charging>  (347) 
0

>  <r_epik_Ionization_Penalty_Neutral>  (347) 
0.000136659

>  <r_epik_State_Penalty>  (347) 
-0

>  <r_epik_Charging_Adjusted_Penalty>  (347) 
0

>  <i_epik_Tot_Q>  (347) 
0

>  <i_epik_Tot_abs_Q>  (347) 
0

>  <s_lp_Force_Field>  (347) 
OPLS3e

>  <r_lp_Energy>  (347) 
0.035759

>  <b_lp_Chiralities_Consistent>  (347) 
1

>  <s_lp_Variant>  (347) 
104:0-1

>  <s_i_glide_gridfile>  (347) 
pfpi4k_grid

>  <i_i_glide_lignum>  (347) 
24

>  <i_i_glide_rotatable_bonds>  (347) 
2

>  <r_i_docking_score>  (347) 
-3.24449

>  <r_i_glide_ligand_efficiency>  (347) 
-0.249576

>  <r_i_glide_ligand_efficiency_sa>  (347) 
-0.586837

>  <r_i_glide_ligand_efficiency_ln>  (347) 
-0.910109

>  <r_i_glide_gscore>  (347) 
-3.24449

>  <r_i_glide_lipo>  (347) 
-0.446541

>  <r_i_glide_hbond>  (347) 
-0.110574

>  <r_i_glide_metal>  (347) 
-0

>  <r_i_glide_rewards>  (347) 
-2.20089

>  <r_i_glide_evdw>  (347) 
-18.826

>  <r_i_glide_ecoul>  (347) 
-3.38593

>  <r_i_glide_erotb>  (347) 
0.997531

>  <r_i_glide_esite>  (347) 
-0.0348289

>  <r_i_glide_emodel>  (347) 
-25.5867

>  <r_i_glide_energy>  (347) 
-22.212

>  <r_i_glide_einternal>  (347) 
0.9828

>  <r_i_glide_intrahb_reward>  (347) 
-0

>  <i_i_glide_confnum>  (347) 
5

>  <i_i_glide_posenum>  (347) 
7

>  <r_i_glide_eff_state_penalty>  (347) 
0

>  <ligand_id>  (347) 
104

>  <original_smiles>  (347) 
Cc1noc(C)c1Cn1cccn1

>  <smiles>  (347) 
[H]c1nn(C([H])([H])c2c(C([H])([H])[H])noc2C([H])([H])[H])c([H])c1[H]

$$$$
104:0:2
     RDKit          3D

 24 25  0  0  1  0  0  0  0  0999 V2000
   -0.6019   -5.2628    7.1030 C   0  0  0  0  0  0  0  0  0  0  0  0
   -0.1838   -4.2263    6.0991 C   0  0  0  0  0  0  0  0  0  0  0  0
   -0.5864   -2.9767    6.2727 N   0  0  0  0  0  0  0  0  0  0  0  0
   -0.0428   -2.2459    5.2119 O   0  0  0  0  0  0  0  0  0  0  0  0
    0.6709   -3.0928    4.4296 C   0  0  0  0  0  0  0  0  0  0  0  0
    1.3382   -2.4681    3.2471 C   0  0  0  0  0  0  0  0  0  0  0  0
    0.6051   -4.3741    4.9177 C   0  0  0  0  0  0  0  0  0  0  0  0
    1.2409   -5.6310    4.3552 C   0  0  0  0  0  0  0  0  0  0  0  0
    0.2577   -6.6215    3.9260 N   0  0  0  0  0  0  0  0  0  0  0  0
   -0.3519   -7.6086    4.6678 C   0  0  0  0  0  0  0  0  0  0  0  0
   -1.2258   -8.2526    3.8407 C   0  0  0  0  0  0  0  0  0  0  0  0
   -1.0186   -7.6472    2.5697 C   0  0  0  0  0  0  0  0  0  0  0  0
   -0.1549   -6.6521    2.6331 N   0  0  0  0  0  0  0  0  0  0  0  0
   -0.0910   -6.2058    6.9518 H   0  0  0  0  0  0  0  0  0  0  0  0
   -1.6771   -5.4420    7.0434 H   0  0  0  0  0  0  0  0  0  0  0  0
   -0.3917   -4.9282    8.1238 H   0  0  0  0  0  0  0  0  0  0  0  0
    1.8422   -3.2083    2.6272 H   0  0  0  0  0  0  0  0  0  0  0  0
    2.0777   -1.7320    3.5631 H   0  0  0  0  0  0  0  0  0  0  0  0
    0.6157   -1.9491    2.6188 H   0  0  0  0  0  0  0  0  0  0  0  0
    1.8950   -5.4028    3.5109 H   0  0  0  0  0  0  0  0  0  0  0  0
    1.8914   -6.0997    5.0919 H   0  0  0  0  0  0  0  0  0  0  0  0
   -0.1410   -7.7765    5.7125 H   0  0  0  0  0  0  0  0  0  0  0  0
   -1.8916   -9.0567    4.1071 H   0  0  0  0  0  0  0  0  0  0  0  0
   -1.4742   -7.8982    1.6245 H   0  0  0  0  0  0  0  0  0  0  0  0
  1  2  1  0
  1 14  1  0
  1 15  1  0
  1 16  1  0
  2  7  1  0
  2  3  2  0
  3  4  1  0
  4  5  1  0
  5  6  1  0
  5  7  2  0
  6 17  1  0
  6 18  1  0
  6 19  1  0
  7  8  1  0
  8  9  1  0
  8 20  1  0
  8 21  1  0
  9 13  1  0
  9 10  1  0
 10 11  2  0
 10 22  1  0
 11 12  1  0
 11 23  1  0
 12 13  2  0
 12 24  1  0
M  END
>  <i_m_ct_stereo_status>  (348) 
1

>  <s_m_source_file>  (348) 
/var/tmp/pbs.5076255.sched01/tmpj3mqheq3/1200r5s1sfv.sdf

>  <i_m_source_file_index>  (348) 
24

>  <i_lp_mmshare_version>  (348) 
48012

>  <i_f3d_flags>  (348) 
0

>  <s_epik_input>  (348) 
W0NIM11jMW5vYyhbQ0gzXSljMVtDSDJdbjJbY0hdW2NIXVtjSF1uMg==

>  <s_epik_cmdline>  (348) 
J2VwaWtfcHl0aG9uJywgJy1waHQnLCAnMi4wJywgJy1waCcsICc3LjAnLCAnLXRuJywgJzgnLCAnLW1hJywgJzIwMCcsICctaW1hZScsICc8aW5maWxlLm1hZT4nLCAnLW9tYWUnLCAnPG91dGZpbGUubWFlPic=

>  <r_lp_tautomer_probability>  (348) 
1

>  <r_epik_Ionization_Penalty>  (348) 
0.000136659

>  <r_epik_Ionization_Penalty_Charging>  (348) 
0

>  <r_epik_Ionization_Penalty_Neutral>  (348) 
0.000136659

>  <r_epik_State_Penalty>  (348) 
-0

>  <r_epik_Charging_Adjusted_Penalty>  (348) 
0

>  <i_epik_Tot_Q>  (348) 
0

>  <i_epik_Tot_abs_Q>  (348) 
0

>  <s_lp_Force_Field>  (348) 
OPLS3e

>  <r_lp_Energy>  (348) 
0.035759

>  <b_lp_Chiralities_Consistent>  (348) 
1

>  <s_lp_Variant>  (348) 
104:0-1

>  <s_i_glide_gridfile>  (348) 
pfpi4k_grid

>  <i_i_glide_lignum>  (348) 
24

>  <i_i_glide_rotatable_bonds>  (348) 
2

>  <r_i_docking_score>  (348) 
-2.92786

>  <r_i_glide_ligand_efficiency>  (348) 
-0.22522

>  <r_i_glide_ligand_efficiency_sa>  (348) 
-0.529568

>  <r_i_glide_ligand_efficiency_ln>  (348) 
-0.821291

>  <r_i_glide_gscore>  (348) 
-2.92786

>  <r_i_glide_lipo>  (348) 
-0.144392

>  <r_i_glide_hbond>  (348) 
-0.16

>  <r_i_glide_metal>  (348) 
-0

>  <r_i_glide_rewards>  (348) 
-2.20089

>  <r_i_glide_evdw>  (348) 
-14.4088

>  <r_i_glide_ecoul>  (348) 
-4.15056

>  <r_i_glide_erotb>  (348) 
0.997531

>  <r_i_glide_esite>  (348) 
-0.077088

>  <r_i_glide_emodel>  (348) 
-22.6425

>  <r_i_glide_energy>  (348) 
-18.5593

>  <r_i_glide_einternal>  (348) 
0.384225

>  <r_i_glide_intrahb_reward>  (348) 
-0

>  <i_i_glide_confnum>  (348) 
3

>  <i_i_glide_posenum>  (348) 
3

>  <r_i_glide_eff_state_penalty>  (348) 
0

>  <ligand_id>  (348) 
104

>  <original_smiles>  (348) 
Cc1noc(C)c1Cn1cccn1

>  <smiles>  (348) 
[H]c1nn(C([H])([H])c2c(C([H])([H])[H])noc2C([H])([H])[H])c([H])c1[H]

$$$$
105:0:0
     RDKit          3D

 85 89  0  0  1  0  0  0  0  0999 V2000
    3.9732   -0.8495   -4.5777 C   0  0  0  0  0  0  0  0  0  0  0  0
    4.1011   -0.2707   -3.1592 C   0  0  0  0  0  0  0  0  0  0  0  0
    4.8999   -1.0697   -2.2828 O   0  0  0  0  0  0  0  0  0  0  0  0
    4.4473   -2.3960   -2.0126 C   0  0  2  0  0  0  0  0  0  0  0  0
    3.0961   -2.4052   -1.2841 C   0  0  0  0  0  0  0  0  0  0  0  0
    3.2433   -1.7295    0.0828 C   0  0  0  0  0  0  0  0  0  0  0  0
    4.3271   -2.3299    1.0359 C   0  0  1  0  0  0  0  0  0  0  0  0
    4.5284   -1.1739    2.0581 C   0  0  0  0  0  0  0  0  0  0  0  0
    3.8877   -3.6313    1.8056 C   0  0  0  0  0  0  0  0  0  0  0  0
    2.5804   -3.9290    1.9571 C   0  0  0  0  0  0  0  0  0  0  0  0
    2.1007   -5.0662    2.7106 C   0  0  0  0  0  0  0  0  0  0  0  0
    2.8804   -6.1239    3.0108 C   0  0  0  0  0  0  0  0  0  0  0  0
    2.3083   -7.4378    3.6267 C   0  0  2  0  0  0  0  0  0  0  0  0
    0.7488   -7.5871    3.7284 C   0  0  1  0  0  0  0  0  0  0  0  0
    0.0149   -7.5044    2.3639 C   0  0  0  0  0  0  0  0  0  0  0  0
    0.3196   -8.9162    4.4302 C   0  0  1  0  0  0  0  0  0  0  0  0
    0.4486  -10.1891    3.5625 C   0  0  0  0  0  0  0  0  0  0  0  0
    1.0393   -9.1062    5.7667 C   0  0  0  0  0  0  0  0  0  0  0  0
    2.5561   -9.1010    5.5649 C   0  0  0  0  0  0  0  0  0  0  0  0
    3.0728   -7.7902    4.9329 C   0  0  2  0  0  0  0  0  0  0  0  0
    2.9581   -6.6629    5.9888 C   0  0  0  0  0  0  0  0  0  0  0  0
    4.5441   -8.0184    4.5153 C   0  0  0  0  0  0  0  0  0  0  0  0
    5.1944   -6.7720    3.8891 C   0  0  0  0  0  0  0  0  0  0  0  0
    4.3988   -6.0757    2.7240 C   0  0  1  0  0  0  0  0  0  0  0  0
    4.6004   -6.9809    1.4759 C   0  0  0  0  0  0  0  0  0  0  0  0
    4.9328   -4.5468    2.4922 C   0  0  2  0  0  0  0  0  0  0  0  0
    5.1980   -3.8769    3.8719 C   0  0  0  0  0  0  0  0  0  0  0  0
    6.3003   -4.5357    1.7365 C   0  0  0  0  0  0  0  0  0  0  0  0
    6.7221   -3.1934    1.1214 C   0  0  0  0  0  0  0  0  0  0  0  0
    5.6496   -2.5423    0.2285 C   0  0  1  0  0  0  0  0  0  0  0  0
    5.4989   -3.1723   -1.2078 C   0  0  0  0  0  0  0  0  0  0  0  0
    5.0203   -4.6423   -1.2413 C   0  0  0  0  0  0  0  0  0  0  0  0
    6.8287   -3.0856   -1.9886 C   0  0  0  0  0  0  0  0  0  0  0  0
    3.4990   -0.1385   -5.2545 H   0  0  0  0  0  0  0  0  0  0  0  0
    3.4045   -1.7753   -4.6055 H   0  0  0  0  0  0  0  0  0  0  0  0
    4.9643   -1.0566   -4.9671 H   0  0  0  0  0  0  0  0  0  0  0  0
    4.6032    0.7023   -3.2060 H   0  0  0  0  0  0  0  0  0  0  0  0
    3.1259   -0.0546   -2.7425 H   0  0  0  0  0  0  0  0  0  0  0  0
    4.3369   -2.9053   -2.9644 H   0  0  0  0  0  0  0  0  0  0  0  0
    2.3772   -1.8996   -1.9192 H   0  0  0  0  0  0  0  0  0  0  0  0
    2.6934   -3.4087   -1.1712 H   0  0  0  0  0  0  0  0  0  0  0  0
    3.5011   -0.6964   -0.1610 H   0  0  0  0  0  0  0  0  0  0  0  0
    2.2759   -1.6119    0.5750 H   0  0  0  0  0  0  0  0  0  0  0  0
    4.5137   -0.1904    1.5874 H   0  0  0  0  0  0  0  0  0  0  0  0
    5.4792   -1.1864    2.5806 H   0  0  0  0  0  0  0  0  0  0  0  0
    3.7299   -1.1749    2.8053 H   0  0  0  0  0  0  0  0  0  0  0  0
    1.8191   -3.3124    1.5349 H   0  0  0  0  0  0  0  0  0  0  0  0
    1.0653   -5.0654    2.9781 H   0  0  0  0  0  0  0  0  0  0  0  0
    2.5685   -8.2171    2.9129 H   0  0  0  0  0  0  0  0  0  0  0  0
    0.3787   -6.7768    4.3575 H   0  0  0  0  0  0  0  0  0  0  0  0
    0.4114   -8.2400    1.6590 H   0  0  0  0  0  0  0  0  0  0  0  0
    0.0857   -6.5449    1.8686 H   0  0  0  0  0  0  0  0  0  0  0  0
   -1.0487   -7.7168    2.4853 H   0  0  0  0  0  0  0  0  0  0  0  0
   -0.7464   -8.8342    4.6658 H   0  0  0  0  0  0  0  0  0  0  0  0
    1.4479  -10.3092    3.1491 H   0  0  0  0  0  0  0  0  0  0  0  0
   -0.2620  -10.1890    2.7306 H   0  0  0  0  0  0  0  0  0  0  0  0
    0.2226  -11.0769    4.1565 H   0  0  0  0  0  0  0  0  0  0  0  0
    0.7380   -8.3277    6.4653 H   0  0  0  0  0  0  0  0  0  0  0  0
    0.7304  -10.0437    6.2342 H   0  0  0  0  0  0  0  0  0  0  0  0
    3.0428   -9.2699    6.5274 H   0  0  0  0  0  0  0  0  0  0  0  0
    2.8381   -9.9556    4.9485 H   0  0  0  0  0  0  0  0  0  0  0  0
    3.5185   -6.9160    6.8911 H   0  0  0  0  0  0  0  0  0  0  0  0
    1.9239   -6.4778    6.2788 H   0  0  0  0  0  0  0  0  0  0  0  0
    3.3411   -5.7081    5.6287 H   0  0  0  0  0  0  0  0  0  0  0  0
    5.1312   -8.3449    5.3756 H   0  0  0  0  0  0  0  0  0  0  0  0
    4.5986   -8.8378    3.7966 H   0  0  0  0  0  0  0  0  0  0  0  0
    5.3294   -6.1353    4.7519 H   0  0  0  0  0  0  0  0  0  0  0  0
    6.2030   -7.0155    3.5538 H   0  0  0  0  0  0  0  0  0  0  0  0
    5.6448   -7.1443    1.2168 H   0  0  0  0  0  0  0  0  0  0  0  0
    4.0746   -6.5934    0.6042 H   0  0  0  0  0  0  0  0  0  0  0  0
    4.2200   -7.9874    1.6302 H   0  0  0  0  0  0  0  0  0  0  0  0
    6.0756   -4.2748    4.3827 H   0  0  0  0  0  0  0  0  0  0  0  0
    4.3382   -3.9727    4.5311 H   0  0  0  0  0  0  0  0  0  0  0  0
    5.4118   -2.8210    3.8104 H   0  0  0  0  0  0  0  0  0  0  0  0
    7.0893   -4.8922    2.3933 H   0  0  0  0  0  0  0  0  0  0  0  0
    6.3245   -5.2393    0.9253 H   0  0  0  0  0  0  0  0  0  0  0  0
    6.9811   -2.5068    1.9124 H   0  0  0  0  0  0  0  0  0  0  0  0
    7.6507   -3.3293    0.5600 H   0  0  0  0  0  0  0  0  0  0  0  0
    6.0294   -1.5394    0.0379 H   0  0  0  0  0  0  0  0  0  0  0  0
    5.7800   -5.3683   -0.9971 H   0  0  0  0  0  0  0  0  0  0  0  0
    4.6933   -4.8817   -2.2437 H   0  0  0  0  0  0  0  0  0  0  0  0
    4.1652   -4.7992   -0.5868 H   0  0  0  0  0  0  0  0  0  0  0  0
    7.5859   -3.7686   -1.6017 H   0  0  0  0  0  0  0  0  0  0  0  0
    7.2521   -2.0845   -1.9653 H   0  0  0  0  0  0  0  0  0  0  0  0
    6.6611   -3.3435   -3.0337 H   0  0  0  0  0  0  0  0  0  0  0  0
  1  2  1  0
  1 34  1  0
  1 35  1  0
  1 36  1  0
  2  3  1  0
  2 37  1  0
  2 38  1  0
  3  4  1  0
  4 31  1  0
  4  5  1  0
  4 39  1  6
  5  6  1  0
  5 40  1  0
  5 41  1  0
  6  7  1  0
  6 42  1  0
  6 43  1  0
  7 30  1  0
  7  8  1  1
  7  9  1  0
  8 44  1  0
  8 45  1  0
  8 46  1  0
  9 26  1  0
  9 10  2  0
 10 11  1  0
 10 47  1  0
 11 12  2  0
 11 48  1  0
 12 24  1  0
 12 13  1  0
 13 20  1  0
 13 14  1  0
 13 49  1  6
 14 15  1  0
 14 16  1  0
 14 50  1  1
 15 51  1  0
 15 52  1  0
 15 53  1  0
 16 17  1  0
 16 18  1  0
 16 54  1  1
 17 55  1  0
 17 56  1  0
 17 57  1  0
 18 19  1  0
 18 58  1  0
 18 59  1  0
 19 20  1  0
 19 60  1  0
 19 61  1  0
 20 21  1  1
 20 22  1  0
 21 62  1  0
 21 63  1  0
 21 64  1  0
 22 23  1  0
 22 65  1  0
 22 66  1  0
 23 24  1  0
 23 67  1  0
 23 68  1  0
 24 25  1  6
 24 26  1  0
 25 69  1  0
 25 70  1  0
 25 71  1  0
 26 27  1  1
 26 28  1  0
 27 72  1  0
 27 73  1  0
 27 74  1  0
 28 29  1  0
 28 75  1  0
 28 76  1  0
 29 30  1  0
 29 77  1  0
 29 78  1  0
 30 31  1  0
 30 79  1  6
 31 32  1  0
 31 33  1  0
 32 80  1  0
 32 81  1  0
 32 82  1  0
 33 83  1  0
 33 84  1  0
 33 85  1  0
M  END
>  <i_m_ct_stereo_status>  (349) 
1

>  <s_m_source_file>  (349) 
/var/tmp/pbs.5076255.sched01/tmpj3mqheq3/1200r5s1sfv.sdf

>  <i_m_source_file_index>  (349) 
25

>  <i_lp_mmshare_version>  (349) 
48012

>  <i_f3d_flags>  (349) 
0

>  <s_epik_input>  (349) 
W0NIM11bQ0gyXU9bQ0BIXShbQ0gyXVtDSDJdMSlDKFtDSDNdKShbQ0gzXSlbQ0BASF0yW0NIMl1bQ0gyXVtDQEBdKFtDSDNdKShDPTNbQ0BdMTJbQ0gzXSlbQ0BdNChbQ0gzXSlDKD1bQ0hdW0NIXTMpW0NASF01W0NAXShbQ0gzXSkoW0NIMl1bQ0gyXTQpW0NIMl1bQ0gyXVtDQEhdKFtDSDNdKVtDQEBIXTVbQ0gzXQ==

>  <s_epik_cmdline>  (349) 
J2VwaWtfcHl0aG9uJywgJy1waHQnLCAnMi4wJywgJy1waCcsICc3LjAnLCAnLXRuJywgJzgnLCAnLW1hJywgJzIwMCcsICctaW1hZScsICc8aW5maWxlLm1hZT4nLCAnLW9tYWUnLCAnPG91dGZpbGUubWFlPic=

>  <r_lp_tautomer_probability>  (349) 
1

>  <r_epik_Ionization_Penalty>  (349) 
5.71748e-11

>  <r_epik_Ionization_Penalty_Charging>  (349) 
0

>  <r_epik_Ionization_Penalty_Neutral>  (349) 
5.71748e-11

>  <r_epik_State_Penalty>  (349) 
-0

>  <r_epik_Charging_Adjusted_Penalty>  (349) 
0

>  <i_epik_Tot_Q>  (349) 
0

>  <i_epik_Tot_abs_Q>  (349) 
0

>  <s_lp_Force_Field>  (349) 
OPLS3e

>  <r_lp_Energy>  (349) 
95.6936

>  <b_lp_Chiralities_Consistent>  (349) 
1

>  <s_lp_Variant>  (349) 
105:0-1

>  <s_i_glide_gridfile>  (349) 
pfpi4k_grid

>  <i_i_glide_lignum>  (349) 
25

>  <i_i_glide_rotatable_bonds>  (349) 
2

>  <r_i_docking_score>  (349) 
-2.30122

>  <r_i_glide_ligand_efficiency>  (349) 
-0.0697338

>  <r_i_glide_ligand_efficiency_sa>  (349) 
-0.223674

>  <r_i_glide_ligand_efficiency_ln>  (349) 
-0.511778

>  <r_i_glide_gscore>  (349) 
-2.30122

>  <r_i_glide_lipo>  (349) 
-0.667136

>  <r_i_glide_hbond>  (349) 
0

>  <r_i_glide_metal>  (349) 
-0

>  <r_i_glide_rewards>  (349) 
-0.322127

>  <r_i_glide_evdw>  (349) 
-24.9796

>  <r_i_glide_ecoul>  (349) 
-1.07247

>  <r_i_glide_erotb>  (349) 
0.0978973

>  <r_i_glide_esite>  (349) 
0

>  <r_i_glide_emodel>  (349) 
-28.8236

>  <r_i_glide_energy>  (349) 
-26.0521

>  <r_i_glide_einternal>  (349) 
0.959942

>  <r_i_glide_intrahb_reward>  (349) 
-0

>  <i_i_glide_confnum>  (349) 
2

>  <i_i_glide_posenum>  (349) 
22

>  <r_i_glide_eff_state_penalty>  (349) 
0

>  <ligand_id>  (349) 
105

>  <original_smiles>  (349) 
CCOC1CCC2(C)C3=CC=C4C5C(C)C(C)CCC5(C)CCC4(C)C3(C)CCC2C1(C)C

>  <smiles>  (349) 
[H]C1=C2C3(C([H])([H])[H])C([H])([H])C([H])([H])C([H])(OC([H])([H])C([H])([H])[H])C(C([H])([H])[H])(C([H])([H])[H])C3([H])C([H])([H])C([H])([H])C2(C([H])([H])[H])C2(C([H])([H])[H])C(=C1[H])C1([H])C([H])(C([H])([H])[H])C([H])(C([H])([H])[H])C([H])([H])C([H])([H])C1(C([H])([H])[H])C([H])([H])C2([H])[H]

$$$$
105:0:1
     RDKit          3D

 85 89  0  0  1  0  0  0  0  0999 V2000
    0.5702    2.4166    2.7238 C   0  0  0  0  0  0  0  0  0  0  0  0
    1.0666    1.7805    4.0285 C   0  0  0  0  0  0  0  0  0  0  0  0
    2.0668    0.7875    3.8220 O   0  0  0  0  0  0  0  0  0  0  0  0
    1.6487   -0.4303    3.2010 C   0  0  2  0  0  0  0  0  0  0  0  0
    0.8589   -1.3182    4.1789 C   0  0  0  0  0  0  0  0  0  0  0  0
    1.7288   -1.6867    5.3761 C   0  0  0  0  0  0  0  0  0  0  0  0
    3.0770   -2.4156    5.0329 C   0  0  1  0  0  0  0  0  0  0  0  0
    3.8821   -2.2208    6.3540 C   0  0  0  0  0  0  0  0  0  0  0  0
    2.9447   -3.9547    4.7305 C   0  0  0  0  0  0  0  0  0  0  0  0
    1.8582   -4.6425    5.1327 C   0  0  0  0  0  0  0  0  0  0  0  0
    1.7139   -6.0725    4.9571 C   0  0  0  0  0  0  0  0  0  0  0  0
    2.4335   -6.7708    4.0588 C   0  0  0  0  0  0  0  0  0  0  0  0
    2.1206   -8.2561    3.7145 C   0  0  2  0  0  0  0  0  0  0  0  0
    0.8087   -8.8858    4.3059 C   0  0  1  0  0  0  0  0  0  0  0  0
   -0.4940   -8.1531    3.8840 C   0  0  0  0  0  0  0  0  0  0  0  0
    0.6555  -10.3932    3.9425 C   0  0  1  0  0  0  0  0  0  0  0  0
    0.2210  -10.6642    2.4885 C   0  0  0  0  0  0  0  0  0  0  0  0
    1.9157  -11.1917    4.2753 C   0  0  0  0  0  0  0  0  0  0  0  0
    3.1249  -10.6137    3.5381 C   0  0  0  0  0  0  0  0  0  0  0  0
    3.3867   -9.1348    3.8922 C   0  0  2  0  0  0  0  0  0  0  0  0
    3.9270   -9.0738    5.3464 C   0  0  0  0  0  0  0  0  0  0  0  0
    4.4284   -8.5877    2.8886 C   0  0  0  0  0  0  0  0  0  0  0  0
    4.8019   -7.1171    3.1507 C   0  0  0  0  0  0  0  0  0  0  0  0
    3.6062   -6.1066    3.3090 C   0  0  1  0  0  0  0  0  0  0  0  0
    3.0757   -5.8617    1.8662 C   0  0  0  0  0  0  0  0  0  0  0  0
    4.1045   -4.7295    4.0436 C   0  0  2  0  0  0  0  0  0  0  0  0
    5.0896   -5.0858    5.1966 C   0  0  0  0  0  0  0  0  0  0  0  0
    4.9119   -3.8254    3.0554 C   0  0  0  0  0  0  0  0  0  0  0  0
    5.1111   -2.3663    3.4824 C   0  0  0  0  0  0  0  0  0  0  0  0
    3.7971   -1.6485    3.8735 C   0  0  1  0  0  0  0  0  0  0  0  0
    2.8902   -1.1769    2.6662 C   0  0  0  0  0  0  0  0  0  0  0  0
    2.3394   -2.3097    1.7645 C   0  0  0  0  0  0  0  0  0  0  0  0
    3.6680   -0.2154    1.7324 C   0  0  0  0  0  0  0  0  0  0  0  0
   -0.1292    3.2247    2.9257 H   0  0  0  0  0  0  0  0  0  0  0  0
    0.0591    1.7210    2.0581 H   0  0  0  0  0  0  0  0  0  0  0  0
    1.3988    2.8536    2.1627 H   0  0  0  0  0  0  0  0  0  0  0  0
    1.5329    2.5630    4.6344 H   0  0  0  0  0  0  0  0  0  0  0  0
    0.2462    1.4078    4.6336 H   0  0  0  0  0  0  0  0  0  0  0  0
    1.0188   -0.2041    2.3575 H   0  0  0  0  0  0  0  0  0  0  0  0
   -0.0206   -0.7826    4.5293 H   0  0  0  0  0  0  0  0  0  0  0  0
    0.4783   -2.2075    3.6845 H   0  0  0  0  0  0  0  0  0  0  0  0
    1.9479   -0.7304    5.8509 H   0  0  0  0  0  0  0  0  0  0  0  0
    1.1431   -2.2003    6.1361 H   0  0  0  0  0  0  0  0  0  0  0  0
    3.7453   -1.2340    6.7917 H   0  0  0  0  0  0  0  0  0  0  0  0
    4.9575   -2.2907    6.2440 H   0  0  0  0  0  0  0  0  0  0  0  0
    3.5707   -2.9453    7.1094 H   0  0  0  0  0  0  0  0  0  0  0  0
    1.0455   -4.1660    5.6424 H   0  0  0  0  0  0  0  0  0  0  0  0
    0.9503   -6.5519    5.5352 H   0  0  0  0  0  0  0  0  0  0  0  0
    1.9070   -8.2585    2.6427 H   0  0  0  0  0  0  0  0  0  0  0  0
    0.8776   -8.8430    5.3939 H   0  0  0  0  0  0  0  0  0  0  0  0
   -0.5774   -8.0814    2.7992 H   0  0  0  0  0  0  0  0  0  0  0  0
   -0.5887   -7.1418    4.2666 H   0  0  0  0  0  0  0  0  0  0  0  0
   -1.3696   -8.6957    4.2439 H   0  0  0  0  0  0  0  0  0  0  0  0
   -0.1369  -10.8011    4.5708 H   0  0  0  0  0  0  0  0  0  0  0  0
    0.8820  -10.1936    1.7622 H   0  0  0  0  0  0  0  0  0  0  0  0
   -0.7959  -10.3089    2.2951 H   0  0  0  0  0  0  0  0  0  0  0  0
    0.2126  -11.7377    2.2850 H   0  0  0  0  0  0  0  0  0  0  0  0
    2.0803  -11.1955    5.3543 H   0  0  0  0  0  0  0  0  0  0  0  0
    1.7817  -12.2377    4.0075 H   0  0  0  0  0  0  0  0  0  0  0  0
    4.0054  -11.2184    3.7675 H   0  0  0  0  0  0  0  0  0  0  0  0
    2.9788  -10.7242    2.4635 H   0  0  0  0  0  0  0  0  0  0  0  0
    4.8288   -9.6792    5.4551 H   0  0  0  0  0  0  0  0  0  0  0  0
    3.1957   -9.4414    6.0671 H   0  0  0  0  0  0  0  0  0  0  0  0
    4.1753   -8.0639    5.6673 H   0  0  0  0  0  0  0  0  0  0  0  0
    5.3240   -9.2043    2.9074 H   0  0  0  0  0  0  0  0  0  0  0  0
    4.0362   -8.6778    1.8702 H   0  0  0  0  0  0  0  0  0  0  0  0
    5.4135   -7.1993    4.0437 H   0  0  0  0  0  0  0  0  0  0  0  0
    5.4866   -6.7742    2.3754 H   0  0  0  0  0  0  0  0  0  0  0  0
    3.8314   -5.4985    1.1757 H   0  0  0  0  0  0  0  0  0  0  0  0
    2.2303   -5.1816    1.8592 H   0  0  0  0  0  0  0  0  0  0  0  0
    2.7264   -6.7760    1.3955 H   0  0  0  0  0  0  0  0  0  0  0  0
    6.0590   -5.4253    4.8419 H   0  0  0  0  0  0  0  0  0  0  0  0
    4.6705   -5.8435    5.8553 H   0  0  0  0  0  0  0  0  0  0  0  0
    5.3436   -4.2500    5.8283 H   0  0  0  0  0  0  0  0  0  0  0  0
    5.8862   -4.2675    2.8602 H   0  0  0  0  0  0  0  0  0  0  0  0
    4.4556   -3.7722    2.0815 H   0  0  0  0  0  0  0  0  0  0  0  0
    5.8116   -2.3415    4.3143 H   0  0  0  0  0  0  0  0  0  0  0  0
    5.6212   -1.8220    2.6901 H   0  0  0  0  0  0  0  0  0  0  0  0
    4.1320   -0.7098    4.3147 H   0  0  0  0  0  0  0  0  0  0  0  0
    3.0530   -2.6653    1.0288 H   0  0  0  0  0  0  0  0  0  0  0  0
    1.4880   -1.9536    1.1905 H   0  0  0  0  0  0  0  0  0  0  0  0
    1.9757   -3.1434    2.3635 H   0  0  0  0  0  0  0  0  0  0  0  0
    4.4351   -0.7297    1.1565 H   0  0  0  0  0  0  0  0  0  0  0  0
    4.1570    0.5789    2.3019 H   0  0  0  0  0  0  0  0  0  0  0  0
    2.9994    0.2599    1.0148 H   0  0  0  0  0  0  0  0  0  0  0  0
  1  2  1  0
  1 34  1  0
  1 35  1  0
  1 36  1  0
  2  3  1  0
  2 37  1  0
  2 38  1  0
  3  4  1  0
  4 31  1  0
  4  5  1  0
  4 39  1  6
  5  6  1  0
  5 40  1  0
  5 41  1  0
  6  7  1  0
  6 42  1  0
  6 43  1  0
  7 30  1  0
  7  8  1  1
  7  9  1  0
  8 44  1  0
  8 45  1  0
  8 46  1  0
  9 26  1  0
  9 10  2  0
 10 11  1  0
 10 47  1  0
 11 12  2  0
 11 48  1  0
 12 24  1  0
 12 13  1  0
 13 20  1  0
 13 14  1  0
 13 49  1  6
 14 15  1  0
 14 16  1  0
 14 50  1  1
 15 51  1  0
 15 52  1  0
 15 53  1  0
 16 17  1  0
 16 18  1  0
 16 54  1  1
 17 55  1  0
 17 56  1  0
 17 57  1  0
 18 19  1  0
 18 58  1  0
 18 59  1  0
 19 20  1  0
 19 60  1  0
 19 61  1  0
 20 21  1  1
 20 22  1  0
 21 62  1  0
 21 63  1  0
 21 64  1  0
 22 23  1  0
 22 65  1  0
 22 66  1  0
 23 24  1  0
 23 67  1  0
 23 68  1  0
 24 25  1  6
 24 26  1  0
 25 69  1  0
 25 70  1  0
 25 71  1  0
 26 27  1  1
 26 28  1  0
 27 72  1  0
 27 73  1  0
 27 74  1  0
 28 29  1  0
 28 75  1  0
 28 76  1  0
 29 30  1  0
 29 77  1  0
 29 78  1  0
 30 31  1  0
 30 79  1  1
 31 32  1  0
 31 33  1  0
 32 80  1  0
 32 81  1  0
 32 82  1  0
 33 83  1  0
 33 84  1  0
 33 85  1  0
M  END
>  <i_m_ct_stereo_status>  (350) 
1

>  <s_m_source_file>  (350) 
/var/tmp/pbs.5076255.sched01/tmpj3mqheq3/1200r5s1sfv.sdf

>  <i_m_source_file_index>  (350) 
25

>  <i_lp_mmshare_version>  (350) 
48012

>  <i_f3d_flags>  (350) 
0

>  <s_epik_input>  (350) 
W0NIM11bQ0gyXU9bQ0BIXShbQ0gyXVtDSDJdMSlDKFtDSDNdKShbQ0gzXSlbQ0BASF0yW0NIMl1bQ0gyXVtDQEBdKFtDSDNdKShDPTNbQ0BdMTJbQ0gzXSlbQ0BdNChbQ0gzXSlDKD1bQ0hdW0NIXTMpW0NASF01W0NAXShbQ0gzXSkoW0NIMl1bQ0gyXTQpW0NIMl1bQ0gyXVtDQEhdKFtDSDNdKVtDQEBIXTVbQ0gzXQ==

>  <s_epik_cmdline>  (350) 
J2VwaWtfcHl0aG9uJywgJy1waHQnLCAnMi4wJywgJy1waCcsICc3LjAnLCAnLXRuJywgJzgnLCAnLW1hJywgJzIwMCcsICctaW1hZScsICc8aW5maWxlLm1hZT4nLCAnLW9tYWUnLCAnPG91dGZpbGUubWFlPic=

>  <r_lp_tautomer_probability>  (350) 
1

>  <r_epik_Ionization_Penalty>  (350) 
5.71748e-11

>  <r_epik_Ionization_Penalty_Charging>  (350) 
0

>  <r_epik_Ionization_Penalty_Neutral>  (350) 
5.71748e-11

>  <r_epik_State_Penalty>  (350) 
-0

>  <r_epik_Charging_Adjusted_Penalty>  (350) 
0

>  <i_epik_Tot_Q>  (350) 
0

>  <i_epik_Tot_abs_Q>  (350) 
0

>  <s_lp_Force_Field>  (350) 
OPLS3e

>  <r_lp_Energy>  (350) 
95.6936

>  <b_lp_Chiralities_Consistent>  (350) 
1

>  <s_lp_Variant>  (350) 
105:0-1

>  <s_i_glide_gridfile>  (350) 
pfpi4k_grid

>  <i_i_glide_lignum>  (350) 
25

>  <i_i_glide_rotatable_bonds>  (350) 
2

>  <r_i_docking_score>  (350) 
-1.64563

>  <r_i_glide_ligand_efficiency>  (350) 
-0.0498675

>  <r_i_glide_ligand_efficiency_sa>  (350) 
-0.159952

>  <r_i_glide_ligand_efficiency_ln>  (350) 
-0.365979

>  <r_i_glide_gscore>  (350) 
-1.64563

>  <r_i_glide_lipo>  (350) 
-0.273317

>  <r_i_glide_hbond>  (350) 
0

>  <r_i_glide_metal>  (350) 
-0

>  <r_i_glide_rewards>  (350) 
-0.322127

>  <r_i_glide_evdw>  (350) 
-20.1395

>  <r_i_glide_ecoul>  (350) 
-0.940694

>  <r_i_glide_erotb>  (350) 
0.0978973

>  <r_i_glide_esite>  (350) 
0

>  <r_i_glide_emodel>  (350) 
-23.031

>  <r_i_glide_energy>  (350) 
-21.0802

>  <r_i_glide_einternal>  (350) 
0.727233

>  <r_i_glide_intrahb_reward>  (350) 
-0

>  <i_i_glide_confnum>  (350) 
1

>  <i_i_glide_posenum>  (350) 
2

>  <r_i_glide_eff_state_penalty>  (350) 
0

>  <ligand_id>  (350) 
105

>  <original_smiles>  (350) 
CCOC1CCC2(C)C3=CC=C4C5C(C)C(C)CCC5(C)CCC4(C)C3(C)CCC2C1(C)C

>  <smiles>  (350) 
[H]C1=C2C3(C([H])([H])[H])C([H])([H])C([H])([H])C([H])(OC([H])([H])C([H])([H])[H])C(C([H])([H])[H])(C([H])([H])[H])C3([H])C([H])([H])C([H])([H])C2(C([H])([H])[H])C2(C([H])([H])[H])C(=C1[H])C1([H])C([H])(C([H])([H])[H])C([H])(C([H])([H])[H])C([H])([H])C([H])([H])C1(C([H])([H])[H])C([H])([H])C2([H])[H]

$$$$
105:0:2
     RDKit          3D

 85 89  0  0  1  0  0  0  0  0999 V2000
    0.6763    1.8720    2.1579 C   0  0  0  0  0  0  0  0  0  0  0  0
    1.7762    1.4367    3.1358 C   0  0  0  0  0  0  0  0  0  0  0  0
    2.6740    0.4868    2.5628 O   0  0  0  0  0  0  0  0  0  0  0  0
    2.1401   -0.7736    2.1405 C   0  0  2  0  0  0  0  0  0  0  0  0
    1.4718   -1.5302    3.3058 C   0  0  0  0  0  0  0  0  0  0  0  0
    2.4999   -1.7689    4.4103 C   0  0  0  0  0  0  0  0  0  0  0  0
    3.7778   -2.5708    3.9799 C   0  0  1  0  0  0  0  0  0  0  0  0
    4.7636   -2.2395    5.1373 C   0  0  0  0  0  0  0  0  0  0  0  0
    3.5799   -4.1260    3.8987 C   0  0  0  0  0  0  0  0  0  0  0  0
    2.5602   -4.7318    4.5419 C   0  0  0  0  0  0  0  0  0  0  0  0
    2.3704   -6.1581    4.5708 C   0  0  0  0  0  0  0  0  0  0  0  0
    2.9351   -6.9945    3.6833 C   0  0  0  0  0  0  0  0  0  0  0  0
    2.5490   -8.4968    3.5714 C   0  0  2  0  0  0  0  0  0  0  0  0
    1.3308   -9.0045    4.4289 C   0  0  1  0  0  0  0  0  0  0  0  0
   -0.0066   -8.2841    4.1053 C   0  0  0  0  0  0  0  0  0  0  0  0
    1.1007  -10.5418    4.2900 C   0  0  1  0  0  0  0  0  0  0  0  0
    0.4563  -10.9786    2.9553 C   0  0  0  0  0  0  0  0  0  0  0  0
    2.3882  -11.3287    4.5407 C   0  0  0  0  0  0  0  0  0  0  0  0
    3.4851  -10.8907    3.5647 C   0  0  0  0  0  0  0  0  0  0  0  0
    3.8223   -9.3857    3.6830 C   0  0  2  0  0  0  0  0  0  0  0  0
    4.5673   -9.1604    5.0261 C   0  0  0  0  0  0  0  0  0  0  0  0
    4.7061   -9.0056    2.4722 C   0  0  0  0  0  0  0  0  0  0  0  0
    5.1432   -7.5302    2.4935 C   0  0  0  0  0  0  0  0  0  0  0  0
    3.9976   -6.4609    2.6851 C   0  0  1  0  0  0  0  0  0  0  0  0
    3.2632   -6.3852    1.3172 C   0  0  0  0  0  0  0  0  0  0  0  0
    4.6211   -5.0258    3.1602 C   0  0  2  0  0  0  0  0  0  0  0  0
    5.7552   -5.2631    4.1995 C   0  0  0  0  0  0  0  0  0  0  0  0
    5.2821   -4.2750    1.9564 C   0  0  0  0  0  0  0  0  0  0  0  0
    5.5412   -2.7786    2.1453 C   0  0  0  0  0  0  0  0  0  0  0  0
    4.3256   -1.9759    2.6339 C   0  0  1  0  0  0  0  0  0  0  0  0
    3.2687   -1.6333    1.5187 C   0  0  0  0  0  0  0  0  0  0  0  0
    2.6016   -2.8698    0.8763 C   0  0  0  0  0  0  0  0  0  0  0  0
    3.9257   -0.8208    0.3800 C   0  0  0  0  0  0  0  0  0  0  0  0
    0.0169    2.6113    2.6147 H   0  0  0  0  0  0  0  0  0  0  0  0
    0.0481    1.0481    1.8145 H   0  0  0  0  0  0  0  0  0  0  0  0
    1.1200    2.3375    1.2780 H   0  0  0  0  0  0  0  0  0  0  0  0
    2.3689    2.3115    3.4114 H   0  0  0  0  0  0  0  0  0  0  0  0
    1.3432    1.0712    4.0675 H   0  0  0  0  0  0  0  0  0  0  0  0
    1.4083   -0.5782    1.3597 H   0  0  0  0  0  0  0  0  0  0  0  0
    0.6341   -0.9557    3.6966 H   0  0  0  0  0  0  0  0  0  0  0  0
    1.0304   -2.4676    2.9725 H   0  0  0  0  0  0  0  0  0  0  0  0
    2.7995   -0.7685    4.7224 H   0  0  0  0  0  0  0  0  0  0  0  0
    2.0233   -2.1598    5.3068 H   0  0  0  0  0  0  0  0  0  0  0  0
    4.7158   -1.2010    5.4567 H   0  0  0  0  0  0  0  0  0  0  0  0
    5.8105   -2.3603    4.8891 H   0  0  0  0  0  0  0  0  0  0  0  0
    4.5581   -2.8479    6.0147 H   0  0  0  0  0  0  0  0  0  0  0  0
    1.8342   -4.1630    5.0943 H   0  0  0  0  0  0  0  0  0  0  0  0
    1.6886   -6.5368    5.3110 H   0  0  0  0  0  0  0  0  0  0  0  0
    2.1849   -8.6254    2.5554 H   0  0  0  0  0  0  0  0  0  0  0  0
    1.5625   -8.8250    5.4794 H   0  0  0  0  0  0  0  0  0  0  0  0
   -0.2466   -8.3452    3.0433 H   0  0  0  0  0  0  0  0  0  0  0  0
   -0.0275   -7.2298    4.3639 H   0  0  0  0  0  0  0  0  0  0  0  0
   -0.8294   -8.7470    4.6528 H   0  0  0  0  0  0  0  0  0  0  0  0
    0.4015  -10.8403    5.0738 H   0  0  0  0  0  0  0  0  0  0  0  0
    1.0000  -10.6058    2.0840 H   0  0  0  0  0  0  0  0  0  0  0  0
   -0.5770  -10.6352    2.8761 H   0  0  0  0  0  0  0  0  0  0  0  0
    0.4303  -12.0691    2.8887 H   0  0  0  0  0  0  0  0  0  0  0  0
    2.7071  -11.2002    5.5733 H   0  0  0  0  0  0  0  0  0  0  0  0
    2.2044  -12.3966    4.4359 H   0  0  0  0  0  0  0  0  0  0  0  0
    4.3812  -11.4884    3.7353 H   0  0  0  0  0  0  0  0  0  0  0  0
    3.1797  -11.1257    2.5442 H   0  0  0  0  0  0  0  0  0  0  0  0
    5.4667   -9.7760    5.0802 H   0  0  0  0  0  0  0  0  0  0  0  0
    3.9432   -9.4090    5.8850 H   0  0  0  0  0  0  0  0  0  0  0  0
    4.8734   -8.1262    5.1720 H   0  0  0  0  0  0  0  0  0  0  0  0
    5.5906   -9.6439    2.4458 H   0  0  0  0  0  0  0  0  0  0  0  0
    4.1723   -9.2097    1.5431 H   0  0  0  0  0  0  0  0  0  0  0  0
    5.8796   -7.5151    3.2908 H   0  0  0  0  0  0  0  0  0  0  0  0
    5.7105   -7.3064    1.5860 H   0  0  0  0  0  0  0  0  0  0  0  0
    3.9140   -6.1394    0.4807 H   0  0  0  0  0  0  0  0  0  0  0  0
    2.4387   -5.6821    1.3434 H   0  0  0  0  0  0  0  0  0  0  0  0
    2.8350   -7.3374    1.0257 H   0  0  0  0  0  0  0  0  0  0  0  0
    6.6588   -5.6773    3.7573 H   0  0  0  0  0  0  0  0  0  0  0  0
    5.4276   -5.9197    5.0018 H   0  0  0  0  0  0  0  0  0  0  0  0
    6.1113   -4.3680    4.6785 H   0  0  0  0  0  0  0  0  0  0  0  0
    6.2177   -4.7634    1.6894 H   0  0  0  0  0  0  0  0  0  0  0  0
    4.7006   -4.3515    1.0555 H   0  0  0  0  0  0  0  0  0  0  0  0
    6.3168   -2.6507    2.8737 H   0  0  0  0  0  0  0  0  0  0  0  0
    5.9499   -2.3559    1.2285 H   0  0  0  0  0  0  0  0  0  0  0  0
    4.7401   -1.0024    2.9050 H   0  0  0  0  0  0  0  0  0  0  0  0
    3.2073   -3.3313    0.0991 H   0  0  0  0  0  0  0  0  0  0  0  0
    1.6850   -2.5956    0.3733 H   0  0  0  0  0  0  0  0  0  0  0  0
    2.3278   -3.6070    1.6266 H   0  0  0  0  0  0  0  0  0  0  0  0
    4.5942   -1.4318   -0.2261 H   0  0  0  0  0  0  0  0  0  0  0  0
    4.4973    0.0326    0.7536 H   0  0  0  0  0  0  0  0  0  0  0  0
    3.1600   -0.4521   -0.2977 H   0  0  0  0  0  0  0  0  0  0  0  0
  1  2  1  0
  1 34  1  0
  1 35  1  0
  1 36  1  0
  2  3  1  0
  2 37  1  0
  2 38  1  0
  3  4  1  0
  4 31  1  0
  4  5  1  0
  4 39  1  6
  5  6  1  0
  5 40  1  0
  5 41  1  0
  6  7  1  0
  6 42  1  0
  6 43  1  0
  7 30  1  0
  7  8  1  1
  7  9  1  0
  8 44  1  0
  8 45  1  0
  8 46  1  0
  9 26  1  0
  9 10  2  0
 10 11  1  0
 10 47  1  0
 11 12  2  0
 11 48  1  0
 12 24  1  0
 12 13  1  0
 13 20  1  0
 13 14  1  0
 13 49  1  6
 14 15  1  0
 14 16  1  0
 14 50  1  1
 15 51  1  0
 15 52  1  0
 15 53  1  0
 16 17  1  0
 16 18  1  0
 16 54  1  1
 17 55  1  0
 17 56  1  0
 17 57  1  0
 18 19  1  0
 18 58  1  0
 18 59  1  0
 19 20  1  0
 19 60  1  0
 19 61  1  0
 20 21  1  1
 20 22  1  0
 21 62  1  0
 21 63  1  0
 21 64  1  0
 22 23  1  0
 22 65  1  0
 22 66  1  0
 23 24  1  0
 23 67  1  0
 23 68  1  0
 24 25  1  6
 24 26  1  0
 25 69  1  0
 25 70  1  0
 25 71  1  0
 26 27  1  1
 26 28  1  0
 27 72  1  0
 27 73  1  0
 27 74  1  0
 28 29  1  0
 28 75  1  0
 28 76  1  0
 29 30  1  0
 29 77  1  0
 29 78  1  0
 30 31  1  0
 30 79  1  1
 31 32  1  0
 31 33  1  0
 32 80  1  0
 32 81  1  0
 32 82  1  0
 33 83  1  0
 33 84  1  0
 33 85  1  0
M  END
>  <i_m_ct_stereo_status>  (351) 
1

>  <s_m_source_file>  (351) 
/var/tmp/pbs.5076255.sched01/tmpj3mqheq3/1200r5s1sfv.sdf

>  <i_m_source_file_index>  (351) 
25

>  <i_lp_mmshare_version>  (351) 
48012

>  <i_f3d_flags>  (351) 
0

>  <s_epik_input>  (351) 
W0NIM11bQ0gyXU9bQ0BIXShbQ0gyXVtDSDJdMSlDKFtDSDNdKShbQ0gzXSlbQ0BASF0yW0NIMl1bQ0gyXVtDQEBdKFtDSDNdKShDPTNbQ0BdMTJbQ0gzXSlbQ0BdNChbQ0gzXSlDKD1bQ0hdW0NIXTMpW0NASF01W0NAXShbQ0gzXSkoW0NIMl1bQ0gyXTQpW0NIMl1bQ0gyXVtDQEhdKFtDSDNdKVtDQEBIXTVbQ0gzXQ==

>  <s_epik_cmdline>  (351) 
J2VwaWtfcHl0aG9uJywgJy1waHQnLCAnMi4wJywgJy1waCcsICc3LjAnLCAnLXRuJywgJzgnLCAnLW1hJywgJzIwMCcsICctaW1hZScsICc8aW5maWxlLm1hZT4nLCAnLW9tYWUnLCAnPG91dGZpbGUubWFlPic=

>  <r_lp_tautomer_probability>  (351) 
1

>  <r_epik_Ionization_Penalty>  (351) 
5.71748e-11

>  <r_epik_Ionization_Penalty_Charging>  (351) 
0

>  <r_epik_Ionization_Penalty_Neutral>  (351) 
5.71748e-11

>  <r_epik_State_Penalty>  (351) 
-0

>  <r_epik_Charging_Adjusted_Penalty>  (351) 
0

>  <i_epik_Tot_Q>  (351) 
0

>  <i_epik_Tot_abs_Q>  (351) 
0

>  <s_lp_Force_Field>  (351) 
OPLS3e

>  <r_lp_Energy>  (351) 
95.6936

>  <b_lp_Chiralities_Consistent>  (351) 
1

>  <s_lp_Variant>  (351) 
105:0-1

>  <s_i_glide_gridfile>  (351) 
pfpi4k_grid

>  <i_i_glide_lignum>  (351) 
25

>  <i_i_glide_rotatable_bonds>  (351) 
2

>  <r_i_docking_score>  (351) 
-1.5639

>  <r_i_glide_ligand_efficiency>  (351) 
-0.0473909

>  <r_i_glide_ligand_efficiency_sa>  (351) 
-0.152008

>  <r_i_glide_ligand_efficiency_ln>  (351) 
-0.347803

>  <r_i_glide_gscore>  (351) 
-1.5639

>  <r_i_glide_lipo>  (351) 
-0.22761

>  <r_i_glide_hbond>  (351) 
0

>  <r_i_glide_metal>  (351) 
-0

>  <r_i_glide_rewards>  (351) 
-0.322127

>  <r_i_glide_evdw>  (351) 
-19.8068

>  <r_i_glide_ecoul>  (351) 
-0.811454

>  <r_i_glide_erotb>  (351) 
0.0978973

>  <r_i_glide_esite>  (351) 
0

>  <r_i_glide_emodel>  (351) 
-22.1528

>  <r_i_glide_energy>  (351) 
-20.6183

>  <r_i_glide_einternal>  (351) 
1.16401

>  <r_i_glide_intrahb_reward>  (351) 
-0

>  <i_i_glide_confnum>  (351) 
2

>  <i_i_glide_posenum>  (351) 
11

>  <r_i_glide_eff_state_penalty>  (351) 
0

>  <ligand_id>  (351) 
105

>  <original_smiles>  (351) 
CCOC1CCC2(C)C3=CC=C4C5C(C)C(C)CCC5(C)CCC4(C)C3(C)CCC2C1(C)C

>  <smiles>  (351) 
[H]C1=C2C3(C([H])([H])[H])C([H])([H])C([H])([H])C([H])(OC([H])([H])C([H])([H])[H])C(C([H])([H])[H])(C([H])([H])[H])C3([H])C([H])([H])C([H])([H])C2(C([H])([H])[H])C2(C([H])([H])[H])C(=C1[H])C1([H])C([H])(C([H])([H])[H])C([H])(C([H])([H])[H])C([H])([H])C([H])([H])C1(C([H])([H])[H])C([H])([H])C2([H])[H]

$$$$
106:0:0
     RDKit          3D

 26 31  0  0  1  0  0  0  0  0999 V2000
    3.7340   -2.6559    0.2119 C   0  0  0  0  0  0  0  0  0  0  0  0
    4.1336   -3.9065   -0.9427 C   0  0  1  0  0  0  0  0  0  0  0  0
    3.1706   -3.0496   -1.3157 C   0  0  2  0  0  0  0  0  0  0  0  0
    2.5656   -2.4545   -2.5698 C   0  0  2  0  0  0  0  0  0  0  0  0
    2.9417   -3.2508   -3.8156 C   0  0  0  0  0  0  0  0  0  0  0  0
    4.3949   -3.1558   -3.6600 C   0  0  2  0  0  0  0  0  0  0  0  0
    5.0052   -3.6750   -2.2977 C   0  0  1  0  0  0  0  0  0  0  0  0
    5.4640   -2.2745   -2.2040 C   0  0  2  0  0  0  0  0  0  0  0  0
    4.6945   -2.2320   -1.0128 C   0  0  1  0  0  0  0  0  0  0  0  0
    3.8110   -1.2662   -0.7138 C   0  0  1  0  0  0  0  0  0  0  0  0
    3.4049   -1.2204   -2.3137 C   0  0  1  0  0  0  0  0  0  0  0  0
    4.5752   -1.6979   -3.1863 C   0  0  2  0  0  0  0  0  0  0  0  0
    4.3558   -2.6754    1.1280 H   0  0  0  0  0  0  0  0  0  0  0  0
    2.7962   -2.6897    0.7933 H   0  0  0  0  0  0  0  0  0  0  0  0
    3.7853   -4.9195   -0.7316 H   0  0  0  0  0  0  0  0  0  0  0  0
    2.2595   -3.5472   -0.8613 H   0  0  0  0  0  0  0  0  0  0  0  0
    1.4912   -2.2855   -2.4761 H   0  0  0  0  0  0  0  0  0  0  0  0
    2.5450   -4.2542   -3.7932 H   0  0  0  0  0  0  0  0  0  0  0  0
    2.5937   -2.7681   -4.7145 H   0  0  0  0  0  0  0  0  0  0  0  0
    5.0122   -3.4446   -4.5223 H   0  0  0  0  0  0  0  0  0  0  0  0
    5.8219   -4.3627   -2.4712 H   0  0  0  0  0  0  0  0  0  0  0  0
    6.5301   -2.0763   -2.2270 H   0  0  0  0  0  0  0  0  0  0  0  0
    5.6041   -2.3308   -0.3216 H   0  0  0  0  0  0  0  0  0  0  0  0
    4.3256   -0.3904   -0.3051 H   0  0  0  0  0  0  0  0  0  0  0  0
    2.9554   -0.2949   -2.6787 H   0  0  0  0  0  0  0  0  0  0  0  0
    4.9582   -1.0175   -3.9203 H   0  0  0  0  0  0  0  0  0  0  0  0
  1 10  1  0
  1  2  1  0
  1 13  1  0
  1 14  1  0
  2  7  1  0
  2  3  1  0
  2 15  1  1
  3  9  1  0
  3  4  1  0
  3 16  1  1
  4 11  1  0
  4  5  1  0
  4 17  1  1
  5  6  1  0
  5 18  1  0
  5 19  1  0
  6 12  1  0
  6  7  1  0
  6 20  1  6
  7  8  1  0
  7 21  1  6
  8 12  1  0
  8  9  1  0
  8 22  1  1
  9 10  1  0
  9 23  1  1
 10 11  1  0
 10 24  1  1
 11 12  1  0
 11 25  1  6
 12 26  1  6
M  END
>  <i_m_ct_stereo_status>  (352) 
1

>  <s_m_source_file>  (352) 
/var/tmp/pbs.5076255.sched01/tmpj3mqheq3/1200r5s1sfv.sdf

>  <i_m_source_file_index>  (352) 
26

>  <i_lp_mmshare_version>  (352) 
48012

>  <i_f3d_flags>  (352) 
0

>  <s_epik_input>  (352) 
W0NAQEhdMTJbQ0BASF0zW0NASF00W0NASF01W0NAQEhdKFtDSDJdMSlbQ0BASF0zW0NASF02W0NAQEhdMltDQEBIXShbQ0gyXTQpW0NAQEhdNTY=

>  <s_epik_cmdline>  (352) 
J2VwaWtfcHl0aG9uJywgJy1waHQnLCAnMi4wJywgJy1waCcsICc3LjAnLCAnLXRuJywgJzgnLCAnLW1hJywgJzIwMCcsICctaW1hZScsICc8aW5maWxlLm1hZT4nLCAnLW9tYWUnLCAnPG91dGZpbGUubWFlPic=

>  <r_lp_tautomer_probability>  (352) 
1

>  <r_epik_Ionization_Penalty>  (352) 
0

>  <r_epik_Ionization_Penalty_Charging>  (352) 
0

>  <r_epik_Ionization_Penalty_Neutral>  (352) 
0

>  <r_epik_State_Penalty>  (352) 
-0

>  <r_epik_Charging_Adjusted_Penalty>  (352) 
0

>  <i_epik_Tot_Q>  (352) 
0

>  <i_epik_Tot_abs_Q>  (352) 
0

>  <s_lp_Force_Field>  (352) 
OPLS3e

>  <r_lp_Energy>  (352) 
405.717

>  <b_lp_Chiralities_Consistent>  (352) 
1

>  <s_lp_Variant>  (352) 
106:0-1

>  <s_i_glide_gridfile>  (352) 
pfpi4k_grid

>  <i_i_glide_lignum>  (352) 
26

>  <i_i_glide_rotatable_bonds>  (352) 
0

>  <r_i_docking_score>  (352) 
-3.5889

>  <r_i_glide_ligand_efficiency>  (352) 
-0.299075

>  <r_i_glide_ligand_efficiency_sa>  (352) 
-0.68471

>  <r_i_glide_ligand_efficiency_ln>  (352) 
-1.02984

>  <r_i_glide_gscore>  (352) 
-3.5889

>  <r_i_glide_lipo>  (352) 
-0.446129

>  <r_i_glide_hbond>  (352) 
0

>  <r_i_glide_metal>  (352) 
-0

>  <r_i_glide_rewards>  (352) 
-2.25

>  <r_i_glide_evdw>  (352) 
-16.0814

>  <r_i_glide_ecoul>  (352) 
-0.591316

>  <r_i_glide_erotb>  (352) 
0

>  <r_i_glide_esite>  (352) 
0

>  <r_i_glide_emodel>  (352) 
-20.2438

>  <r_i_glide_energy>  (352) 
-16.6727

>  <r_i_glide_einternal>  (352) 
0

>  <r_i_glide_intrahb_reward>  (352) 
-0

>  <i_i_glide_confnum>  (352) 
1

>  <i_i_glide_posenum>  (352) 
16

>  <r_i_glide_eff_state_penalty>  (352) 
0

>  <ligand_id>  (352) 
106

>  <original_smiles>  (352) 
C1C2C3C4CC5C2C2C3C1C4C52

>  <smiles>  (352) 
[H]C1([H])C2([H])C3([H])C4([H])C([H])([H])C5([H])C2([H])C2([H])C3([H])C1([H])C4([H])C52[H]

$$$$
106:0:1
     RDKit          3D

 26 31  0  0  1  0  0  0  0  0999 V2000
    3.6591   -1.1621   -2.8056 C   0  0  0  0  0  0  0  0  0  0  0  0
    5.1607   -1.2051   -1.9023 C   0  0  1  0  0  0  0  0  0  0  0  0
    4.0547   -1.5638   -1.2205 C   0  0  2  0  0  0  0  0  0  0  0  0
    3.6403   -2.4283   -0.0523 C   0  0  2  0  0  0  0  0  0  0  0  0
    4.8641   -2.7989    0.8018 C   0  0  0  0  0  0  0  0  0  0  0  0
    5.6788   -3.4586   -0.2540 C   0  0  2  0  0  0  0  0  0  0  0  0
    6.0135   -2.5631   -1.5251 C   0  0  1  0  0  0  0  0  0  0  0  0
    5.2564   -3.6329   -2.2154 C   0  0  2  0  0  0  0  0  0  0  0  0
    4.3458   -2.6047   -2.6084 C   0  0  1  0  0  0  0  0  0  0  0  0
    2.9956   -2.6650   -2.4831 C   0  0  1  0  0  0  0  0  0  0  0  0
    3.2353   -3.4823   -1.0665 C   0  0  1  0  0  0  0  0  0  0  0  0
    4.6086   -4.2165   -1.0637 C   0  0  2  0  0  0  0  0  0  0  0  0
    3.7822   -0.8825   -3.8742 H   0  0  0  0  0  0  0  0  0  0  0  0
    2.9142   -0.3542   -2.6398 H   0  0  0  0  0  0  0  0  0  0  0  0
    5.5990   -0.2587   -1.5944 H   0  0  0  0  0  0  0  0  0  0  0  0
    3.7318   -0.5532   -0.8542 H   0  0  0  0  0  0  0  0  0  0  0  0
    2.7916   -2.0135    0.5011 H   0  0  0  0  0  0  0  0  0  0  0  0
    5.3522   -1.9278    1.2461 H   0  0  0  0  0  0  0  0  0  0  0  0
    4.5933   -3.4951    1.6002 H   0  0  0  0  0  0  0  0  0  0  0  0
    6.5063   -4.0873    0.0734 H   0  0  0  0  0  0  0  0  0  0  0  0
    7.0716   -2.5744   -1.7911 H   0  0  0  0  0  0  0  0  0  0  0  0
    5.7660   -4.2551   -2.9496 H   0  0  0  0  0  0  0  0  0  0  0  0
    4.7713   -2.5754   -3.6782 H   0  0  0  0  0  0  0  0  0  0  0  0
    2.5751   -3.2409   -3.3135 H   0  0  0  0  0  0  0  0  0  0  0  0
    2.4042   -4.1118   -0.7463 H   0  0  0  0  0  0  0  0  0  0  0  0
    4.6288   -5.3065   -1.0169 H   0  0  0  0  0  0  0  0  0  0  0  0
  1 10  1  0
  1  2  1  0
  1 13  1  0
  1 14  1  0
  2  7  1  0
  2  3  1  0
  2 15  1  1
  3  9  1  0
  3  4  1  0
  3 16  1  6
  4 11  1  0
  4  5  1  0
  4 17  1  1
  5  6  1  0
  5 18  1  0
  5 19  1  0
  6 12  1  0
  6  7  1  0
  6 20  1  1
  7  8  1  0
  7 21  1  6
  8 12  1  0
  8  9  1  0
  8 22  1  6
  9 10  1  0
  9 23  1  6
 10 11  1  0
 10 24  1  6
 11 12  1  0
 11 25  1  1
 12 26  1  6
M  END
>  <i_m_ct_stereo_status>  (353) 
1

>  <s_m_source_file>  (353) 
/var/tmp/pbs.5076255.sched01/tmpj3mqheq3/1200r5s1sfv.sdf

>  <i_m_source_file_index>  (353) 
26

>  <i_lp_mmshare_version>  (353) 
48012

>  <i_f3d_flags>  (353) 
0

>  <s_epik_input>  (353) 
W0NAQEhdMTJbQ0BASF0zW0NASF00W0NASF01W0NAQEhdKFtDSDJdMSlbQ0BASF0zW0NASF02W0NAQEhdMltDQEBIXShbQ0gyXTQpW0NAQEhdNTY=

>  <s_epik_cmdline>  (353) 
J2VwaWtfcHl0aG9uJywgJy1waHQnLCAnMi4wJywgJy1waCcsICc3LjAnLCAnLXRuJywgJzgnLCAnLW1hJywgJzIwMCcsICctaW1hZScsICc8aW5maWxlLm1hZT4nLCAnLW9tYWUnLCAnPG91dGZpbGUubWFlPic=

>  <r_lp_tautomer_probability>  (353) 
1

>  <r_epik_Ionization_Penalty>  (353) 
0

>  <r_epik_Ionization_Penalty_Charging>  (353) 
0

>  <r_epik_Ionization_Penalty_Neutral>  (353) 
0

>  <r_epik_State_Penalty>  (353) 
-0

>  <r_epik_Charging_Adjusted_Penalty>  (353) 
0

>  <i_epik_Tot_Q>  (353) 
0

>  <i_epik_Tot_abs_Q>  (353) 
0

>  <s_lp_Force_Field>  (353) 
OPLS3e

>  <r_lp_Energy>  (353) 
405.717

>  <b_lp_Chiralities_Consistent>  (353) 
1

>  <s_lp_Variant>  (353) 
106:0-1

>  <s_i_glide_gridfile>  (353) 
pfpi4k_grid

>  <i_i_glide_lignum>  (353) 
26

>  <i_i_glide_rotatable_bonds>  (353) 
0

>  <r_i_docking_score>  (353) 
-3.48702

>  <r_i_glide_ligand_efficiency>  (353) 
-0.290585

>  <r_i_glide_ligand_efficiency_sa>  (353) 
-0.665273

>  <r_i_glide_ligand_efficiency_ln>  (353) 
-1.00061

>  <r_i_glide_gscore>  (353) 
-3.48702

>  <r_i_glide_lipo>  (353) 
-0.328947

>  <r_i_glide_hbond>  (353) 
0

>  <r_i_glide_metal>  (353) 
-0

>  <r_i_glide_rewards>  (353) 
-2.25

>  <r_i_glide_evdw>  (353) 
-18.1219

>  <r_i_glide_ecoul>  (353) 
-0.0131745

>  <r_i_glide_erotb>  (353) 
0

>  <r_i_glide_esite>  (353) 
0

>  <r_i_glide_emodel>  (353) 
-21.7165

>  <r_i_glide_energy>  (353) 
-18.1351

>  <r_i_glide_einternal>  (353) 
0

>  <r_i_glide_intrahb_reward>  (353) 
-0

>  <i_i_glide_confnum>  (353) 
2

>  <i_i_glide_posenum>  (353) 
38

>  <r_i_glide_eff_state_penalty>  (353) 
0

>  <ligand_id>  (353) 
106

>  <original_smiles>  (353) 
C1C2C3C4CC5C2C2C3C1C4C52

>  <smiles>  (353) 
[H]C1([H])C2([H])C3([H])C4([H])C([H])([H])C5([H])C2([H])C2([H])C3([H])C1([H])C4([H])C52[H]

$$$$
106:0:2
     RDKit          3D

 26 31  0  0  1  0  0  0  0  0999 V2000
    3.5755   -2.8170   -3.6617 C   0  0  0  0  0  0  0  0  0  0  0  0
    3.3600   -1.5176   -2.5069 C   0  0  1  0  0  0  0  0  0  0  0  0
    3.1675   -2.7657   -2.0301 C   0  0  2  0  0  0  0  0  0  0  0  0
    3.2783   -3.5466   -0.7393 C   0  0  2  0  0  0  0  0  0  0  0  0
    3.3232   -2.5932    0.4635 C   0  0  0  0  0  0  0  0  0  0  0  0
    4.5236   -1.8085    0.0707 C   0  0  2  0  0  0  0  0  0  0  0  0
    4.4386   -1.0862   -1.3431 C   0  0  1  0  0  0  0  0  0  0  0  0
    5.6059   -1.9577   -1.6167 C   0  0  2  0  0  0  0  0  0  0  0  0
    4.7983   -2.5260   -2.6535 C   0  0  1  0  0  0  0  0  0  0  0  0
    4.6157   -3.8505   -2.8576 C   0  0  1  0  0  0  0  0  0  0  0  0
    4.6386   -4.0321   -1.2144 C   0  0  1  0  0  0  0  0  0  0  0  0
    5.4436   -2.8950   -0.5320 C   0  0  2  0  0  0  0  0  0  0  0  0
    3.8878   -2.4672   -4.6685 H   0  0  0  0  0  0  0  0  0  0  0  0
    2.7013   -3.3645   -4.0767 H   0  0  0  0  0  0  0  0  0  0  0  0
    2.4618   -0.9038   -2.5869 H   0  0  0  0  0  0  0  0  0  0  0  0
    2.0744   -2.9002   -2.2749 H   0  0  0  0  0  0  0  0  0  0  0  0
    2.5412   -4.3502   -0.6660 H   0  0  0  0  0  0  0  0  0  0  0  0
    2.4226   -1.9838    0.5530 H   0  0  0  0  0  0  0  0  0  0  0  0
    3.4801   -3.1372    1.3961 H   0  0  0  0  0  0  0  0  0  0  0  0
    4.9943   -1.2008    0.8443 H   0  0  0  0  0  0  0  0  0  0  0  0
    4.6773   -0.0267   -1.2967 H   0  0  0  0  0  0  0  0  0  0  0  0
    6.5805   -1.5194   -1.8239 H   0  0  0  0  0  0  0  0  0  0  0  0
    5.3649   -1.9500   -3.4711 H   0  0  0  0  0  0  0  0  0  0  0  0
    5.4633   -4.2558   -3.4092 H   0  0  0  0  0  0  0  0  0  0  0  0
    4.9008   -5.0303   -0.8605 H   0  0  0  0  0  0  0  0  0  0  0  0
    6.3487   -3.1423    0.0232 H   0  0  0  0  0  0  0  0  0  0  0  0
  1 10  1  0
  1  2  1  0
  1 13  1  0
  1 14  1  0
  2  7  1  0
  2  3  1  0
  2 15  1  6
  3  9  1  0
  3  4  1  0
  3 16  1  6
  4 11  1  0
  4  5  1  0
  4 17  1  1
  5  6  1  0
  5 18  1  0
  5 19  1  0
  6 12  1  0
  6  7  1  0
  6 20  1  1
  7  8  1  0
  7 21  1  1
  8 12  1  0
  8  9  1  0
  8 22  1  6
  9 10  1  0
  9 23  1  6
 10 11  1  0
 10 24  1  6
 11 12  1  0
 11 25  1  6
 12 26  1  1
M  END
>  <i_m_ct_stereo_status>  (354) 
1

>  <s_m_source_file>  (354) 
/var/tmp/pbs.5076255.sched01/tmpj3mqheq3/1200r5s1sfv.sdf

>  <i_m_source_file_index>  (354) 
26

>  <i_lp_mmshare_version>  (354) 
48012

>  <i_f3d_flags>  (354) 
0

>  <s_epik_input>  (354) 
W0NAQEhdMTJbQ0BASF0zW0NASF00W0NASF01W0NAQEhdKFtDSDJdMSlbQ0BASF0zW0NASF02W0NAQEhdMltDQEBIXShbQ0gyXTQpW0NAQEhdNTY=

>  <s_epik_cmdline>  (354) 
J2VwaWtfcHl0aG9uJywgJy1waHQnLCAnMi4wJywgJy1waCcsICc3LjAnLCAnLXRuJywgJzgnLCAnLW1hJywgJzIwMCcsICctaW1hZScsICc8aW5maWxlLm1hZT4nLCAnLW9tYWUnLCAnPG91dGZpbGUubWFlPic=

>  <r_lp_tautomer_probability>  (354) 
1

>  <r_epik_Ionization_Penalty>  (354) 
0

>  <r_epik_Ionization_Penalty_Charging>  (354) 
0

>  <r_epik_Ionization_Penalty_Neutral>  (354) 
0

>  <r_epik_State_Penalty>  (354) 
-0

>  <r_epik_Charging_Adjusted_Penalty>  (354) 
0

>  <i_epik_Tot_Q>  (354) 
0

>  <i_epik_Tot_abs_Q>  (354) 
0

>  <s_lp_Force_Field>  (354) 
OPLS3e

>  <r_lp_Energy>  (354) 
405.717

>  <b_lp_Chiralities_Consistent>  (354) 
1

>  <s_lp_Variant>  (354) 
106:0-1

>  <s_i_glide_gridfile>  (354) 
pfpi4k_grid

>  <i_i_glide_lignum>  (354) 
26

>  <i_i_glide_rotatable_bonds>  (354) 
0

>  <r_i_docking_score>  (354) 
-3.48584

>  <r_i_glide_ligand_efficiency>  (354) 
-0.290487

>  <r_i_glide_ligand_efficiency_sa>  (354) 
-0.665049

>  <r_i_glide_ligand_efficiency_ln>  (354) 
-1.00027

>  <r_i_glide_gscore>  (354) 
-3.48584

>  <r_i_glide_lipo>  (354) 
-0.406987

>  <r_i_glide_hbond>  (354) 
0

>  <r_i_glide_metal>  (354) 
-0

>  <r_i_glide_rewards>  (354) 
-2.25

>  <r_i_glide_evdw>  (354) 
-17.8569

>  <r_i_glide_ecoul>  (354) 
0.426605

>  <r_i_glide_erotb>  (354) 
0

>  <r_i_glide_esite>  (354) 
0

>  <r_i_glide_emodel>  (354) 
-21.0239

>  <r_i_glide_energy>  (354) 
-17.4303

>  <r_i_glide_einternal>  (354) 
0

>  <r_i_glide_intrahb_reward>  (354) 
-0

>  <i_i_glide_confnum>  (354) 
1

>  <i_i_glide_posenum>  (354) 
6

>  <r_i_glide_eff_state_penalty>  (354) 
0

>  <ligand_id>  (354) 
106

>  <original_smiles>  (354) 
C1C2C3C4CC5C2C2C3C1C4C52

>  <smiles>  (354) 
[H]C1([H])C2([H])C3([H])C4([H])C([H])([H])C5([H])C2([H])C2([H])C3([H])C1([H])C4([H])C52[H]

$$$$
107:0:0
     RDKit          3D

 37 39  0  0  1  0  0  0  0  0999 V2000
    4.5753   -0.5557    2.1996 C   0  0  0  0  0  0  0  0  0  0  0  0
    4.2751   -1.7201    1.2380 C   0  0  1  0  0  0  0  0  0  0  0  0
    3.5142   -2.9897    2.0152 C   0  0  0  0  0  0  0  0  0  0  0  0
    2.7783   -4.1245    0.9956 C   0  0  2  0  0  0  0  0  0  0  0  0
    3.8726   -4.0868    0.2361 C   0  0  0  0  0  0  0  0  0  0  0  0
    3.1297   -2.8170   -0.3282 N   0  0  1  0  0  0  0  0  0  0  0  0
    3.1584   -1.4825    0.3361 C   0  0  0  0  0  0  0  0  0  0  0  0
    3.3460   -3.0397   -1.5864 C   0  0  2  0  0  0  0  0  0  0  0  0
    2.4726   -2.3824   -2.6830 C   0  0  0  0  0  0  0  0  0  0  0  0
    2.2923   -4.0000   -0.6496 C   0  0  0  0  0  0  0  0  0  0  0  0
    4.8981   -2.3872   -1.4066 C   0  0  0  0  0  0  0  0  0  0  0  0
    5.9509   -3.3842   -1.9329 C   0  0  0  0  0  0  0  0  0  0  0  0
    5.0066   -1.1657   -2.3364 C   0  0  0  0  0  0  0  0  0  0  0  0
    5.4116   -1.8059    0.0674 C   0  0  0  0  0  0  0  0  0  0  0  0
    6.5662   -1.4727    0.2574 O   0  0  0  0  0  0  0  0  0  0  0  0
    3.6657   -0.1201    2.6229 H   0  0  0  0  0  0  0  0  0  0  0  0
    5.1123    0.2487    1.6952 H   0  0  0  0  0  0  0  0  0  0  0  0
    5.2049   -0.8925    3.0273 H   0  0  0  0  0  0  0  0  0  0  0  0
    4.2374   -3.4715    2.6730 H   0  0  0  0  0  0  0  0  0  0  0  0
    2.7567   -2.5998    2.6928 H   0  0  0  0  0  0  0  0  0  0  0  0
    2.6253   -5.1011    1.4525 H   0  0  0  0  0  0  0  0  0  0  0  0
    4.8450   -4.0970    0.7334 H   0  0  0  0  0  0  0  0  0  0  0  0
    4.0900   -4.9986   -0.3514 H   0  0  0  0  0  0  0  0  0  0  0  0
    2.2490   -1.2885    0.8995 H   0  0  0  0  0  0  0  0  0  0  0  0
    3.2487   -0.6432   -0.3355 H   0  0  0  0  0  0  0  0  0  0  0  0
    2.9601   -2.4275   -3.6582 H   0  0  0  0  0  0  0  0  0  0  0  0
    2.2314   -1.3399   -2.4797 H   0  0  0  0  0  0  0  0  0  0  0  0
    1.5221   -2.9017   -2.8199 H   0  0  0  0  0  0  0  0  0  0  0  0
    2.1739   -4.9944   -1.0984 H   0  0  0  0  0  0  0  0  0  0  0  0
    1.2290   -3.7183   -0.7537 H   0  0  0  0  0  0  0  0  0  0  0  0
    5.8243   -3.6129   -2.9941 H   0  0  0  0  0  0  0  0  0  0  0  0
    5.9063   -4.3233   -1.3930 H   0  0  0  0  0  0  0  0  0  0  0  0
    6.9688   -3.0137   -1.8092 H   0  0  0  0  0  0  0  0  0  0  0  0
    4.9715   -1.4436   -3.3913 H   0  0  0  0  0  0  0  0  0  0  0  0
    5.9711   -0.7080   -2.1854 H   0  0  0  0  0  0  0  0  0  0  0  0
    4.2812   -0.3694   -2.1697 H   0  0  0  0  0  0  0  0  0  0  0  0
    2.1526   -2.9977   -0.2442 H   0  0  0  0  0  0  0  0  0  0  0  0
  2  1  1  1
  1 16  1  0
  1 17  1  0
  1 18  1  0
  2  7  1  0
  2 14  1  0
  2  3  1  0
  3  4  1  0
  3 19  1  0
  3 20  1  0
  4 10  1  0
  4  5  1  0
  4 21  1  1
  5  6  1  0
  5 22  1  0
  5 23  1  0
  6  7  1  0
  6  8  1  0
  6 37  1  6
  7 24  1  0
  7 25  1  0
  8  9  1  6
  8 10  1  0
  8 11  1  0
  9 26  1  0
  9 27  1  0
  9 28  1  0
 10 29  1  0
 10 30  1  0
 11 12  1  0
 11 13  1  0
 11 14  1  0
 12 31  1  0
 12 32  1  0
 12 33  1  0
 13 34  1  0
 13 35  1  0
 13 36  1  0
 14 15  2  0
M  CHG  1   6   1
M  END
>  <i_m_ct_stereo_status>  (355) 
1

>  <s_m_source_file>  (355) 
/var/tmp/pbs.5076255.sched01/tmpj3mqheq3/1200r5s1sfv.sdf

>  <i_m_source_file_index>  (355) 
27

>  <i_lp_mmshare_version>  (355) 
48012

>  <i_f3d_flags>  (355) 
0

>  <s_epik_input>  (355) 
W0NIM11bQ0BAXTEyW0NIMl1bQ0BASF0zW0NIMl1OKFtDSDJdMSlbQ0BdKFtDSDNdKShbQ0gyXTMpQyhbQ0gzXSkoW0NIM10pQzI9Tw==

>  <s_epik_cmdline>  (355) 
J2VwaWtfcHl0aG9uJywgJy1waHQnLCAnMi4wJywgJy1waCcsICc3LjAnLCAnLXRuJywgJzgnLCAnLW1hJywgJzIwMCcsICctaW1hZScsICc8aW5maWxlLm1hZT4nLCAnLW9tYWUnLCAnPG91dGZpbGUubWFlPic=

>  <r_epik_Ionization_Penalty>  (355) 
0.000998417

>  <r_epik_Ionization_Penalty_Charging>  (355) 
0.000998417

>  <r_epik_Ionization_Penalty_Neutral>  (355) 
0

>  <r_epik_State_Penalty>  (355) 
0.000650767

>  <r_epik_Charging_Adjusted_Penalty>  (355) 
0.00164918

>  <i_epik_Tot_Q>  (355) 
1

>  <i_epik_Tot_abs_Q>  (355) 
1

>  <s_lp_Force_Field>  (355) 
OPLS3e

>  <r_lp_Energy>  (355) 
371.317

>  <b_lp_Chiralities_Consistent>  (355) 
1

>  <s_lp_Variant>  (355) 
107:0-1

>  <s_i_glide_gridfile>  (355) 
pfpi4k_grid

>  <i_i_glide_lignum>  (355) 
27

>  <i_i_glide_rotatable_bonds>  (355) 
0

>  <r_i_docking_score>  (355) 
-3.62054

>  <r_i_glide_ligand_efficiency>  (355) 
-0.241369

>  <r_i_glide_ligand_efficiency_sa>  (355) 
-0.595267

>  <r_i_glide_ligand_efficiency_ln>  (355) 
-0.976399

>  <r_i_glide_gscore>  (355) 
-3.62054

>  <r_i_glide_lipo>  (355) 
-0.30189

>  <r_i_glide_hbond>  (355) 
-0.0015602

>  <r_i_glide_metal>  (355) 
-0

>  <r_i_glide_rewards>  (355) 
-1.99948

>  <r_i_glide_evdw>  (355) 
-13.2379

>  <r_i_glide_ecoul>  (355) 
-4.15555

>  <r_i_glide_erotb>  (355) 
0

>  <r_i_glide_esite>  (355) 
-0.0323785

>  <r_i_glide_emodel>  (355) 
-20.1672

>  <r_i_glide_energy>  (355) 
-17.3935

>  <r_i_glide_einternal>  (355) 
0

>  <r_i_glide_intrahb_reward>  (355) 
-0

>  <i_i_glide_confnum>  (355) 
2

>  <i_i_glide_posenum>  (355) 
3

>  <r_i_glide_eff_state_penalty>  (355) 
0

>  <ligand_id>  (355) 
107

>  <original_smiles>  (355) 
CC12CC3CN(C1)C(C)(C3)C(C)(C)C2=O

>  <smiles>  (355) 
[H]C([H])([H])C12C(=O)C(C([H])([H])[H])(C([H])([H])[H])C3(C([H])([H])[H])C([H])([H])C([H])(C1([H])[H])C([H])([H])[N+]3([H])C2([H])[H]

$$$$
107:0:1
     RDKit          3D

 37 39  0  0  1  0  0  0  0  0999 V2000
    3.7362   -2.2252    3.2775 C   0  0  0  0  0  0  0  0  0  0  0  0
    3.7116   -2.7848    1.8436 C   0  0  1  0  0  0  0  0  0  0  0  0
    2.6103   -4.0445    1.6927 C   0  0  0  0  0  0  0  0  0  0  0  0
    2.2209   -4.4691    0.0946 C   0  0  2  0  0  0  0  0  0  0  0  0
    3.5157   -4.3871   -0.2044 C   0  0  0  0  0  0  0  0  0  0  0  0
    3.1264   -2.8511   -0.3085 N   0  0  1  0  0  0  0  0  0  0  0  0
    3.0305   -1.9198    0.8636 C   0  0  0  0  0  0  0  0  0  0  0  0
    3.7824   -2.6214   -1.4118 C   0  0  2  0  0  0  0  0  0  0  0  0
    3.4376   -1.4058   -2.2823 C   0  0  0  0  0  0  0  0  0  0  0  0
    2.3644   -3.5742   -1.3616 C   0  0  0  0  0  0  0  0  0  0  0  0
    5.2215   -2.4960   -0.4988 C   0  0  0  0  0  0  0  0  0  0  0  0
    6.2999   -3.4406   -1.0815 C   0  0  0  0  0  0  0  0  0  0  0  0
    5.8151   -1.0806   -0.6616 C   0  0  0  0  0  0  0  0  0  0  0  0
    5.1860   -2.6936    1.1524 C   0  0  0  0  0  0  0  0  0  0  0  0
    6.2144   -2.7970    1.8157 O   0  0  0  0  0  0  0  0  0  0  0  0
    2.7754   -1.7975    3.5694 H   0  0  0  0  0  0  0  0  0  0  0  0
    4.4895   -1.4468    3.3956 H   0  0  0  0  0  0  0  0  0  0  0  0
    3.9795   -3.0160    3.9873 H   0  0  0  0  0  0  0  0  0  0  0  0
    2.9989   -4.9135    2.2331 H   0  0  0  0  0  0  0  0  0  0  0  0
    1.6912   -3.7900    2.2193 H   0  0  0  0  0  0  0  0  0  0  0  0
    1.8323   -5.4818   -0.0243 H   0  0  0  0  0  0  0  0  0  0  0  0
    4.2250   -4.8376    0.5028 H   0  0  0  0  0  0  0  0  0  0  0  0
    3.8763   -5.0047   -1.0520 H   0  0  0  0  0  0  0  0  0  0  0  0
    1.9819   -1.7593    1.1353 H   0  0  0  0  0  0  0  0  0  0  0  0
    3.4541   -0.9256    0.7171 H   0  0  0  0  0  0  0  0  0  0  0  0
    4.2581   -1.1664   -2.9596 H   0  0  0  0  0  0  0  0  0  0  0  0
    3.2510   -0.5356   -1.6782 H   0  0  0  0  0  0  0  0  0  0  0  0
    2.5591   -1.5645   -2.9092 H   0  0  0  0  0  0  0  0  0  0  0  0
    2.3411   -4.2269   -2.2408 H   0  0  0  0  0  0  0  0  0  0  0  0
    1.4142   -3.0443   -1.6034 H   0  0  0  0  0  0  0  0  0  0  0  0
    6.5590   -3.1840   -2.1097 H   0  0  0  0  0  0  0  0  0  0  0  0
    5.9781   -4.4768   -1.0798 H   0  0  0  0  0  0  0  0  0  0  0  0
    7.2228   -3.4065   -0.5023 H   0  0  0  0  0  0  0  0  0  0  0  0
    6.1421   -0.9294   -1.6886 H   0  0  0  0  0  0  0  0  0  0  0  0
    6.6958   -0.9595   -0.0263 H   0  0  0  0  0  0  0  0  0  0  0  0
    5.1411   -0.2673   -0.3934 H   0  0  0  0  0  0  0  0  0  0  0  0
    2.1688   -2.8057   -0.6246 H   0  0  0  0  0  0  0  0  0  0  0  0
  2  1  1  1
  1 16  1  0
  1 17  1  0
  1 18  1  0
  2  7  1  0
  2 14  1  0
  2  3  1  0
  3  4  1  0
  3 19  1  0
  3 20  1  0
  4 10  1  0
  4  5  1  0
  4 21  1  1
  5  6  1  0
  5 22  1  0
  5 23  1  0
  6  7  1  0
  6  8  1  0
  6 37  1  6
  7 24  1  0
  7 25  1  0
  8  9  1  6
  8 10  1  0
  8 11  1  0
  9 26  1  0
  9 27  1  0
  9 28  1  0
 10 29  1  0
 10 30  1  0
 11 12  1  0
 11 13  1  0
 11 14  1  0
 12 31  1  0
 12 32  1  0
 12 33  1  0
 13 34  1  0
 13 35  1  0
 13 36  1  0
 14 15  2  0
M  CHG  1   6   1
M  END
>  <i_m_ct_stereo_status>  (356) 
1

>  <s_m_source_file>  (356) 
/var/tmp/pbs.5076255.sched01/tmpj3mqheq3/1200r5s1sfv.sdf

>  <i_m_source_file_index>  (356) 
27

>  <i_lp_mmshare_version>  (356) 
48012

>  <i_f3d_flags>  (356) 
0

>  <s_epik_input>  (356) 
W0NIM11bQ0BAXTEyW0NIMl1bQ0BASF0zW0NIMl1OKFtDSDJdMSlbQ0BdKFtDSDNdKShbQ0gyXTMpQyhbQ0gzXSkoW0NIM10pQzI9Tw==

>  <s_epik_cmdline>  (356) 
J2VwaWtfcHl0aG9uJywgJy1waHQnLCAnMi4wJywgJy1waCcsICc3LjAnLCAnLXRuJywgJzgnLCAnLW1hJywgJzIwMCcsICctaW1hZScsICc8aW5maWxlLm1hZT4nLCAnLW9tYWUnLCAnPG91dGZpbGUubWFlPic=

>  <r_epik_Ionization_Penalty>  (356) 
0.000998417

>  <r_epik_Ionization_Penalty_Charging>  (356) 
0.000998417

>  <r_epik_Ionization_Penalty_Neutral>  (356) 
0

>  <r_epik_State_Penalty>  (356) 
0.000650767

>  <r_epik_Charging_Adjusted_Penalty>  (356) 
0.00164918

>  <i_epik_Tot_Q>  (356) 
1

>  <i_epik_Tot_abs_Q>  (356) 
1

>  <s_lp_Force_Field>  (356) 
OPLS3e

>  <r_lp_Energy>  (356) 
371.317

>  <b_lp_Chiralities_Consistent>  (356) 
1

>  <s_lp_Variant>  (356) 
107:0-1

>  <s_i_glide_gridfile>  (356) 
pfpi4k_grid

>  <i_i_glide_lignum>  (356) 
27

>  <i_i_glide_rotatable_bonds>  (356) 
0

>  <r_i_docking_score>  (356) 
-3.49411

>  <r_i_glide_ligand_efficiency>  (356) 
-0.23294

>  <r_i_glide_ligand_efficiency_sa>  (356) 
-0.57448

>  <r_i_glide_ligand_efficiency_ln>  (356) 
-0.942303

>  <r_i_glide_gscore>  (356) 
-3.49411

>  <r_i_glide_lipo>  (356) 
-0.149119

>  <r_i_glide_hbond>  (356) 
-0.0387839

>  <r_i_glide_metal>  (356) 
-0

>  <r_i_glide_rewards>  (356) 
-2.04459

>  <r_i_glide_evdw>  (356) 
-9.89368

>  <r_i_glide_ecoul>  (356) 
-4.91601

>  <r_i_glide_erotb>  (356) 
0

>  <r_i_glide_esite>  (356) 
-0.029529

>  <r_i_glide_emodel>  (356) 
-17.6441

>  <r_i_glide_energy>  (356) 
-14.8097

>  <r_i_glide_einternal>  (356) 
0

>  <r_i_glide_intrahb_reward>  (356) 
-0

>  <i_i_glide_confnum>  (356) 
1

>  <i_i_glide_posenum>  (356) 
2

>  <r_i_glide_eff_state_penalty>  (356) 
0

>  <ligand_id>  (356) 
107

>  <original_smiles>  (356) 
CC12CC3CN(C1)C(C)(C3)C(C)(C)C2=O

>  <smiles>  (356) 
[H]C([H])([H])C12C(=O)C(C([H])([H])[H])(C([H])([H])[H])C3(C([H])([H])[H])C([H])([H])C([H])(C1([H])[H])C([H])([H])[N+]3([H])C2([H])[H]

$$$$
107:0:2
     RDKit          3D

 37 39  0  0  1  0  0  0  0  0999 V2000
    2.3574   -3.5455   -4.1793 C   0  0  0  0  0  0  0  0  0  0  0  0
    3.2915   -2.8312   -3.2687 C   0  0  1  0  0  0  0  0  0  0  0  0
    3.2670   -1.1920   -3.5649 C   0  0  0  0  0  0  0  0  0  0  0  0
    3.9495   -0.2728   -2.3306 C   0  0  2  0  0  0  0  0  0  0  0  0
    4.9486   -1.1259   -2.2495 C   0  0  0  0  0  0  0  0  0  0  0  0
    3.8760   -1.9126   -1.3710 N   0  0  1  0  0  0  0  0  0  0  0  0
    2.7841   -2.7672   -1.9151 C   0  0  0  0  0  0  0  0  0  0  0  0
    4.7053   -2.2780   -0.4417 C   0  0  2  0  0  0  0  0  0  0  0  0
    4.1771   -2.7184    0.9394 C   0  0  0  0  0  0  0  0  0  0  0  0
    4.2263   -0.6435   -0.6537 C   0  0  0  0  0  0  0  0  0  0  0  0
    5.2678   -3.5350   -1.4545 C   0  0  0  0  0  0  0  0  0  0  0  0
    6.7940   -3.3647   -1.6267 C   0  0  0  0  0  0  0  0  0  0  0  0
    5.0231   -4.8955   -0.7326 C   0  0  0  0  0  0  0  0  0  0  0  0
    4.6029   -3.7242   -2.9652 C   0  0  0  0  0  0  0  0  0  0  0  0
    5.0276   -4.4017   -3.8661 O   0  0  0  0  0  0  0  0  0  0  0  0
    1.3384   -3.1606   -4.1491 H   0  0  0  0  0  0  0  0  0  0  0  0
    2.3840   -4.6287   -4.1143 H   0  0  0  0  0  0  0  0  0  0  0  0
    2.7809   -3.3500   -5.1256 H   0  0  0  0  0  0  0  0  0  0  0  0
    3.7586   -0.9782   -4.5148 H   0  0  0  0  0  0  0  0  0  0  0  0
    2.2441   -0.8592   -3.7174 H   0  0  0  0  0  0  0  0  0  0  0  0
    4.2621    0.7086   -2.6712 H   0  0  0  0  0  0  0  0  0  0  0  0
    5.3809   -1.4751   -3.1825 H   0  0  0  0  0  0  0  0  0  0  0  0
    5.9076   -0.6934   -1.8921 H   0  0  0  0  0  0  0  0  0  0  0  0
    1.8228   -2.2651   -1.9474 H   0  0  0  0  0  0  0  0  0  0  0  0
    2.6231   -3.7270   -1.4242 H   0  0  0  0  0  0  0  0  0  0  0  0
    4.9614   -3.2622    1.4709 H   0  0  0  0  0  0  0  0  0  0  0  0
    3.2876   -3.3508    0.9040 H   0  0  0  0  0  0  0  0  0  0  0  0
    3.9605   -1.8593    1.5765 H   0  0  0  0  0  0  0  0  0  0  0  0
    4.9887   -0.0138   -0.1936 H   0  0  0  0  0  0  0  0  0  0  0  0
    3.3746   -0.3334   -0.0030 H   0  0  0  0  0  0  0  0  0  0  0  0
    7.3419   -3.5977   -0.7084 H   0  0  0  0  0  0  0  0  0  0  0  0
    7.1364   -2.4049   -1.9860 H   0  0  0  0  0  0  0  0  0  0  0  0
    7.1376   -3.9144   -2.4847 H   0  0  0  0  0  0  0  0  0  0  0  0
    5.6529   -5.0365    0.1501 H   0  0  0  0  0  0  0  0  0  0  0  0
    5.2458   -5.7171   -1.4046 H   0  0  0  0  0  0  0  0  0  0  0  0
    3.9823   -5.0718   -0.4578 H   0  0  0  0  0  0  0  0  0  0  0  0
    3.3107   -1.1956   -0.9316 H   0  0  0  0  0  0  0  0  0  0  0  0
  2  1  1  6
  1 16  1  0
  1 17  1  0
  1 18  1  0
  2  7  1  0
  2 14  1  0
  2  3  1  0
  3  4  1  0
  3 19  1  0
  3 20  1  0
  4 10  1  0
  4  5  1  0
  4 21  1  1
  5  6  1  0
  5 22  1  0
  5 23  1  0
  6  7  1  0
  6  8  1  0
  6 37  1  1
  7 24  1  0
  7 25  1  0
  8  9  1  1
  8 10  1  0
  8 11  1  0
  9 26  1  0
  9 27  1  0
  9 28  1  0
 10 29  1  0
 10 30  1  0
 11 12  1  0
 11 13  1  0
 11 14  1  0
 12 31  1  0
 12 32  1  0
 12 33  1  0
 13 34  1  0
 13 35  1  0
 13 36  1  0
 14 15  2  0
M  CHG  1   6   1
M  END
>  <i_m_ct_stereo_status>  (357) 
1

>  <s_m_source_file>  (357) 
/var/tmp/pbs.5076255.sched01/tmpj3mqheq3/1200r5s1sfv.sdf

>  <i_m_source_file_index>  (357) 
27

>  <i_lp_mmshare_version>  (357) 
48012

>  <i_f3d_flags>  (357) 
0

>  <s_epik_input>  (357) 
W0NIM11bQ0BAXTEyW0NIMl1bQ0BASF0zW0NIMl1OKFtDSDJdMSlbQ0BdKFtDSDNdKShbQ0gyXTMpQyhbQ0gzXSkoW0NIM10pQzI9Tw==

>  <s_epik_cmdline>  (357) 
J2VwaWtfcHl0aG9uJywgJy1waHQnLCAnMi4wJywgJy1waCcsICc3LjAnLCAnLXRuJywgJzgnLCAnLW1hJywgJzIwMCcsICctaW1hZScsICc8aW5maWxlLm1hZT4nLCAnLW9tYWUnLCAnPG91dGZpbGUubWFlPic=

>  <r_epik_Ionization_Penalty>  (357) 
0.000998417

>  <r_epik_Ionization_Penalty_Charging>  (357) 
0.000998417

>  <r_epik_Ionization_Penalty_Neutral>  (357) 
0

>  <r_epik_State_Penalty>  (357) 
0.000650767

>  <r_epik_Charging_Adjusted_Penalty>  (357) 
0.00164918

>  <i_epik_Tot_Q>  (357) 
1

>  <i_epik_Tot_abs_Q>  (357) 
1

>  <s_lp_Force_Field>  (357) 
OPLS3e

>  <r_lp_Energy>  (357) 
371.317

>  <b_lp_Chiralities_Consistent>  (357) 
1

>  <s_lp_Variant>  (357) 
107:0-1

>  <s_i_glide_gridfile>  (357) 
pfpi4k_grid

>  <i_i_glide_lignum>  (357) 
27

>  <i_i_glide_rotatable_bonds>  (357) 
0

>  <r_i_docking_score>  (357) 
-3.1391

>  <r_i_glide_ligand_efficiency>  (357) 
-0.209273

>  <r_i_glide_ligand_efficiency_sa>  (357) 
-0.516112

>  <r_i_glide_ligand_efficiency_ln>  (357) 
-0.846562

>  <r_i_glide_gscore>  (357) 
-3.1391

>  <r_i_glide_lipo>  (357) 
-0.64956

>  <r_i_glide_hbond>  (357) 
0

>  <r_i_glide_metal>  (357) 
-0

>  <r_i_glide_rewards>  (357) 
-1.98873

>  <r_i_glide_evdw>  (357) 
2.87364

>  <r_i_glide_ecoul>  (357) 
-3.96012

>  <r_i_glide_erotb>  (357) 
0

>  <r_i_glide_esite>  (357) 
-0.0504707

>  <r_i_glide_emodel>  (357) 
-2.83498

>  <r_i_glide_energy>  (357) 
-1.08648

>  <r_i_glide_einternal>  (357) 
0

>  <r_i_glide_intrahb_reward>  (357) 
-0

>  <i_i_glide_confnum>  (357) 
1

>  <i_i_glide_posenum>  (357) 
20

>  <r_i_glide_eff_state_penalty>  (357) 
0

>  <ligand_id>  (357) 
107

>  <original_smiles>  (357) 
CC12CC3CN(C1)C(C)(C3)C(C)(C)C2=O

>  <smiles>  (357) 
[H]C([H])([H])C12C(=O)C(C([H])([H])[H])(C([H])([H])[H])C3(C([H])([H])[H])C([H])([H])C([H])(C1([H])[H])C([H])([H])[N+]3([H])C2([H])[H]

$$$$
108:0:0
     RDKit          3D

 79 83  0  0  1  0  0  0  0  0999 V2000
    2.8098    0.7476    2.9022 C   0  0  0  0  0  0  0  0  0  0  0  0
    2.5248    1.6196    4.1167 C   0  0  0  0  0  0  0  0  0  0  0  0
    2.3482    3.0917    3.7922 C   0  0  0  0  0  0  0  0  0  0  0  0
    2.4333    1.1683    5.3864 C   0  0  0  0  0  0  0  0  0  0  0  0
    2.6378   -0.2615    5.8746 C   0  0  0  0  0  0  0  0  0  0  0  0
    1.3551   -1.0633    6.1172 C   0  0  2  0  0  0  0  0  0  0  0  0
    1.6590   -2.3389    6.7059 O   0  0  0  0  0  0  0  0  0  0  0  0
    1.5626   -3.4243    5.7926 C   0  0  2  0  0  0  0  0  0  0  0  0
    0.1068   -3.4996    5.3718 C   0  0  1  0  0  0  0  0  0  0  0  0
   -0.1824   -2.3529    4.4069 C   0  0  0  0  0  0  0  0  0  0  0  0
    0.2254   -1.0520    5.0784 C   0  0  1  0  0  0  0  0  0  0  0  0
   -0.7374   -0.6484    6.0990 O   0  0  0  0  0  0  0  0  0  0  0  0
    0.2653   -0.4059    7.0002 C   0  0  0  0  0  0  0  0  0  0  0  0
    0.1994    0.0309    8.1407 O   0  0  0  0  0  0  0  0  0  0  0  0
   -0.0357   -4.8456    4.9422 O   0  0  0  0  0  0  0  0  0  0  0  0
    0.5378   -5.6345    5.9456 C   0  0  1  0  0  0  0  0  0  0  0  0
   -0.3604   -5.7156    7.0460 O   0  0  0  0  0  0  0  0  0  0  0  0
    0.7285   -7.0948    5.3878 C   0  0  1  0  0  0  0  0  0  0  0  0
    1.2471   -7.9504    6.3998 O   0  0  0  0  0  0  0  0  0  0  0  0
   -0.5842   -7.7105    4.8412 C   0  0  0  0  0  0  0  0  0  0  0  0
   -0.2432   -8.3142    3.4629 C   0  0  1  0  0  0  0  0  0  0  0  0
   -1.3731   -8.4141    2.6099 O   0  0  0  0  0  0  0  0  0  0  0  0
    0.8675   -7.4256    2.8960 C   0  0  1  0  0  0  0  0  0  0  0  0
    1.6314   -8.0779    1.7347 C   0  0  0  0  0  0  0  0  0  0  0  0
    0.2868   -6.2509    2.3767 O   0  0  0  0  0  0  0  0  0  0  0  0
    1.6989   -7.1316    4.1786 C   0  0  1  0  0  0  0  0  0  0  0  0
    2.8331   -6.0824    4.2035 C   0  0  1  0  0  0  0  0  0  0  0  0
    2.5845   -5.0211    3.2907 O   0  0  0  0  0  0  0  0  0  0  0  0
    3.3598   -4.7898    2.2037 C   0  0  0  0  0  0  0  0  0  0  0  0
    3.0640   -3.9072    1.3988 O   0  0  0  0  0  0  0  0  0  0  0  0
    4.5893   -5.7205    2.0130 C   0  0  0  0  0  0  0  0  0  0  0  0
    5.6643   -5.3578    0.9888 C   0  0  0  0  0  0  0  0  0  0  0  0
    6.2568   -3.9755    1.2745 C   0  0  0  0  0  0  0  0  0  0  0  0
    6.7475   -6.4417    1.0694 C   0  0  0  0  0  0  0  0  0  0  0  0
    5.1307   -5.3926   -0.3155 O   0  0  0  0  0  0  0  0  0  0  0  0
    3.0759   -5.5138    5.6188 C   0  0  1  0  0  0  0  0  0  0  0  0
    4.2434   -4.7133    5.6098 O   0  0  0  0  0  0  0  0  0  0  0  0
    1.8560   -4.8414    6.3296 C   0  0  1  0  0  0  0  0  0  0  0  0
    2.1168   -4.8409    7.8580 C   0  0  0  0  0  0  0  0  0  0  0  0
    2.1029    0.9820    2.1042 H   0  0  0  0  0  0  0  0  0  0  0  0
    2.7242   -0.3200    3.1020 H   0  0  0  0  0  0  0  0  0  0  0  0
    3.8118    0.9430    2.5213 H   0  0  0  0  0  0  0  0  0  0  0  0
    3.2474    3.4836    3.3155 H   0  0  0  0  0  0  0  0  0  0  0  0
    2.1568    3.6797    4.6904 H   0  0  0  0  0  0  0  0  0  0  0  0
    1.5130    3.2361    3.1053 H   0  0  0  0  0  0  0  0  0  0  0  0
    2.1971    1.8791    6.1673 H   0  0  0  0  0  0  0  0  0  0  0  0
    3.2585   -0.7990    5.1615 H   0  0  0  0  0  0  0  0  0  0  0  0
    3.2300   -0.2202    6.7892 H   0  0  0  0  0  0  0  0  0  0  0  0
    2.1905   -3.2009    4.9326 H   0  0  0  0  0  0  0  0  0  0  0  0
   -0.5355   -3.3660    6.2476 H   0  0  0  0  0  0  0  0  0  0  0  0
    0.4032   -2.5012    3.5006 H   0  0  0  0  0  0  0  0  0  0  0  0
   -1.2254   -2.2928    4.1141 H   0  0  0  0  0  0  0  0  0  0  0  0
    0.3620   -0.2444    4.3648 H   0  0  0  0  0  0  0  0  0  0  0  0
   -1.0639   -6.2727    6.7819 H   0  0  0  0  0  0  0  0  0  0  0  0
    1.3105   -8.8364    6.0780 H   0  0  0  0  0  0  0  0  0  0  0  0
   -0.9768   -8.4959    5.4904 H   0  0  0  0  0  0  0  0  0  0  0  0
   -1.3646   -6.9533    4.7259 H   0  0  0  0  0  0  0  0  0  0  0  0
    0.1607   -9.3220    3.6114 H   0  0  0  0  0  0  0  0  0  0  0  0
   -1.1416   -8.9897    1.8962 H   0  0  0  0  0  0  0  0  0  0  0  0
    2.1085   -9.0148    2.0279 H   0  0  0  0  0  0  0  0  0  0  0  0
    2.3827   -7.4210    1.3135 H   0  0  0  0  0  0  0  0  0  0  0  0
    0.9609   -8.2740    0.9040 H   0  0  0  0  0  0  0  0  0  0  0  0
    0.9941   -5.6284    2.2857 H   0  0  0  0  0  0  0  0  0  0  0  0
    2.2473   -8.0594    4.3045 H   0  0  0  0  0  0  0  0  0  0  0  0
    3.7248   -6.6571    3.9800 H   0  0  0  0  0  0  0  0  0  0  0  0
    5.1236   -5.7820    2.9590 H   0  0  0  0  0  0  0  0  0  0  0  0
    4.2505   -6.7268    1.7814 H   0  0  0  0  0  0  0  0  0  0  0  0
    6.5866   -3.9241    2.3108 H   0  0  0  0  0  0  0  0  0  0  0  0
    5.5274   -3.1787    1.1306 H   0  0  0  0  0  0  0  0  0  0  0  0
    7.1116   -3.7685    0.6330 H   0  0  0  0  0  0  0  0  0  0  0  0
    7.1885   -6.4850    2.0638 H   0  0  0  0  0  0  0  0  0  0  0  0
    7.5548   -6.2640    0.3630 H   0  0  0  0  0  0  0  0  0  0  0  0
    6.3415   -7.4358    0.8828 H   0  0  0  0  0  0  0  0  0  0  0  0
    4.7161   -6.2255   -0.4819 H   0  0  0  0  0  0  0  0  0  0  0  0
    3.3579   -6.3675    6.2277 H   0  0  0  0  0  0  0  0  0  0  0  0
    4.0702   -3.9146    5.1368 H   0  0  0  0  0  0  0  0  0  0  0  0
    2.2093   -5.8572    8.2475 H   0  0  0  0  0  0  0  0  0  0  0  0
    1.3233   -4.3407    8.4146 H   0  0  0  0  0  0  0  0  0  0  0  0
    3.0463   -4.3216    8.0942 H   0  0  0  0  0  0  0  0  0  0  0  0
  1  2  1  0
  1 40  1  0
  1 41  1  0
  1 42  1  0
  2  3  1  0
  2  4  2  3
  3 43  1  0
  3 44  1  0
  3 45  1  0
  4  5  1  0
  4 46  1  0
  6  5  1  6
  5 47  1  0
  5 48  1  0
  6 11  1  0
  6 13  1  0
  6  7  1  0
  7  8  1  0
  8 38  1  0
  8  9  1  0
  8 49  1  6
  9 10  1  0
  9 15  1  0
  9 50  1  1
 10 11  1  0
 10 51  1  0
 10 52  1  0
 11 12  1  0
 11 53  1  6
 12 13  1  0
 13 14  2  0
 15 16  1  0
 16 38  1  0
 16 17  1  1
 16 18  1  0
 17 54  1  0
 18 26  1  0
 18 19  1  1
 18 20  1  0
 19 55  1  0
 20 21  1  0
 20 56  1  0
 20 57  1  0
 21 22  1  0
 21 23  1  0
 21 58  1  1
 22 59  1  0
 23 24  1  0
 23 25  1  6
 23 26  1  0
 24 60  1  0
 24 61  1  0
 24 62  1  0
 25 63  1  0
 26 27  1  0
 26 64  1  1
 27 28  1  0
 27 36  1  0
 27 65  1  6
 28 29  1  0
 29 30  2  0
 29 31  1  0
 31 32  1  0
 31 66  1  0
 31 67  1  0
 32 33  1  0
 32 34  1  0
 32 35  1  0
 33 68  1  0
 33 69  1  0
 33 70  1  0
 34 71  1  0
 34 72  1  0
 34 73  1  0
 35 74  1  0
 36 37  1  0
 36 38  1  0
 36 75  1  1
 37 76  1  0
 38 39  1  1
 39 77  1  0
 39 78  1  0
 39 79  1  0
M  END
>  <i_m_ct_stereo_status>  (358) 
1

>  <s_m_source_file>  (358) 
/var/tmp/pbs.5076255.sched01/tmpj3mqheq3/1200r5s1sfv.sdf

>  <i_m_source_file_index>  (358) 
28

>  <i_lp_mmshare_version>  (358) 
48012

>  <i_f3d_flags>  (358) 
0

>  <s_epik_input>  (358) 
W0NIM11DKFtDSDNdKT1bQ0hdW0NIMl1bQ0BAXTEyW0NASF0oT0MyPU8pW0NIMl1bQ0BASF0zW0NAQEhdKE8xKVtDQEBdNChbQ0gzXSlbQ0BdKE8zKShbT0hdKVtDQF01KFtPSF0pW0NAQEhdKFtDQF0oW0NIM10pKFtPSF0pW0NAQEhdKFtDSDJdNSlbT0hdKVtDQEhdKFtDQEhdNFtPSF0pT0MoPU8pW0NIMl1DKFtDSDNdKShbQ0gzXSlbT0hd

>  <s_epik_cmdline>  (358) 
J2VwaWtfcHl0aG9uJywgJy1waHQnLCAnMi4wJywgJy1waCcsICc3LjAnLCAnLXRuJywgJzgnLCAnLW1hJywgJzIwMCcsICctaW1hZScsICc8aW5maWxlLm1hZT4nLCAnLW9tYWUnLCAnPG91dGZpbGUubWFlPic=

>  <r_lp_tautomer_probability>  (358) 
1

>  <r_epik_Ionization_Penalty>  (358) 
2.29316e-05

>  <r_epik_Ionization_Penalty_Charging>  (358) 
0

>  <r_epik_Ionization_Penalty_Neutral>  (358) 
2.29316e-05

>  <r_epik_State_Penalty>  (358) 
-0

>  <r_epik_Charging_Adjusted_Penalty>  (358) 
0

>  <i_epik_Tot_Q>  (358) 
0

>  <i_epik_Tot_abs_Q>  (358) 
0

>  <s_epik_Chemistry_Notes>  (358) 
This compound has an ester and may undergo hydrolysis at high or low pH.

>  <s_lp_Force_Field>  (358) 
OPLS3e

>  <r_lp_Energy>  (358) 
37.8658

>  <b_lp_Chiralities_Consistent>  (358) 
1

>  <s_lp_Variant>  (358) 
108:0-1

>  <s_i_glide_gridfile>  (358) 
pfpi4k_grid

>  <i_i_glide_lignum>  (358) 
28

>  <i_i_glide_rotatable_bonds>  (358) 
12

>  <r_i_docking_score>  (358) 
-2.69006

>  <r_i_glide_ligand_efficiency>  (358) 
-0.068976

>  <r_i_glide_ligand_efficiency_sa>  (358) 
-0.233912

>  <r_i_glide_ligand_efficiency_ln>  (358) 
-0.576826

>  <r_i_glide_gscore>  (358) 
-2.69006

>  <r_i_glide_lipo>  (358) 
-0.315792

>  <r_i_glide_hbond>  (358) 
0

>  <r_i_glide_metal>  (358) 
-0

>  <r_i_glide_rewards>  (358) 
-0.501506

>  <r_i_glide_evdw>  (358) 
-23.7194

>  <r_i_glide_ecoul>  (358) 
-6.53012

>  <r_i_glide_erotb>  (358) 
0.326343

>  <r_i_glide_esite>  (358) 
-0.0336221

>  <r_i_glide_emodel>  (358) 
-38.0094

>  <r_i_glide_energy>  (358) 
-30.2495

>  <r_i_glide_einternal>  (358) 
6.68429

>  <r_i_glide_intrahb_reward>  (358) 
-0.5

>  <i_i_glide_confnum>  (358) 
14

>  <i_i_glide_posenum>  (358) 
12

>  <r_i_glide_eff_state_penalty>  (358) 
0

>  <ligand_id>  (358) 
108

>  <original_smiles>  (358) 
CC(C)=CCC12OC3C(CC1OC2=O)OC1(O)C2(O)CC(O)C(C)(O)C2C(OC(=O)CC(C)(C)O)C(O)C31C

>  <smiles>  (358) 
[H]OC1([H])C([H])([H])C2(O[H])C3(O[H])OC4([H])C([H])([H])C5([H])OC(=O)C5(C([H])([H])C([H])=C(C([H])([H])[H])C([H])([H])[H])OC4([H])C3(C([H])([H])[H])C([H])(O[H])C([H])(OC(=O)C([H])([H])C(O[H])(C([H])([H])[H])C([H])([H])[H])C2([H])C1(O[H])C([H])([H])[H]

$$$$
108:0:1
     RDKit          3D

 79 83  0  0  1  0  0  0  0  0999 V2000
    2.5499    0.9560    2.7377 C   0  0  0  0  0  0  0  0  0  0  0  0
    2.2345    1.8559    3.9233 C   0  0  0  0  0  0  0  0  0  0  0  0
    1.9405    3.2959    3.5436 C   0  0  0  0  0  0  0  0  0  0  0  0
    2.2085    1.4540    5.2125 C   0  0  0  0  0  0  0  0  0  0  0  0
    2.5276    0.0649    5.7521 C   0  0  0  0  0  0  0  0  0  0  0  0
    1.3096   -0.8151    6.0720 C   0  0  2  0  0  0  0  0  0  0  0  0
    1.7306   -2.0646    6.6419 O   0  0  0  0  0  0  0  0  0  0  0  0
    1.6466   -3.1618    5.7412 C   0  0  2  0  0  0  0  0  0  0  0  0
    0.1776   -3.3284    5.4038 C   0  0  1  0  0  0  0  0  0  0  0  0
   -0.2370   -2.2180    4.4511 C   0  0  0  0  0  0  0  0  0  0  0  0
    0.1226   -0.8794    5.0933 C   0  0  1  0  0  0  0  0  0  0  0  0
   -0.8039   -0.5203    6.1660 O   0  0  0  0  0  0  0  0  0  0  0  0
    0.2325   -0.2279    7.0138 C   0  0  0  0  0  0  0  0  0  0  0  0
    0.2004    0.2276    8.1523 O   0  0  0  0  0  0  0  0  0  0  0  0
    0.1046   -4.6785    4.9800 O   0  0  0  0  0  0  0  0  0  0  0  0
    0.7723   -5.4305    5.9551 C   0  0  1  0  0  0  0  0  0  0  0  0
   -0.0585   -5.5647    7.0993 O   0  0  0  0  0  0  0  0  0  0  0  0
    1.0299   -6.8757    5.3902 C   0  0  1  0  0  0  0  0  0  0  0  0
    1.6510   -7.6866    6.3784 O   0  0  0  0  0  0  0  0  0  0  0  0
   -0.2699   -7.5752    4.9130 C   0  0  0  0  0  0  0  0  0  0  0  0
    0.0346   -8.1577    3.5187 C   0  0  1  0  0  0  0  0  0  0  0  0
   -1.1345   -8.3297    2.7360 O   0  0  0  0  0  0  0  0  0  0  0  0
    1.0637   -7.1960    2.8998 C   0  0  1  0  0  0  0  0  0  0  0  0
    1.8194   -7.7995    1.7023 C   0  0  0  0  0  0  0  0  0  0  0  0
    0.3826   -6.0546    2.4205 O   0  0  0  0  0  0  0  0  0  0  0  0
    1.9464   -6.8567    4.1398 C   0  0  1  0  0  0  0  0  0  0  0  0
    3.0123   -5.7375    4.1032 C   0  0  1  0  0  0  0  0  0  0  0  0
    2.6217   -4.7029    3.2121 O   0  0  0  0  0  0  0  0  0  0  0  0
    3.3790   -4.3378    2.1446 C   0  0  0  0  0  0  0  0  0  0  0  0
    3.0088   -3.4821    1.3561 O   0  0  0  0  0  0  0  0  0  0  0  0
    4.7352   -5.0791    1.9964 C   0  0  0  0  0  0  0  0  0  0  0  0
    5.5661   -4.8267    0.7322 C   0  0  0  0  0  0  0  0  0  0  0  0
    4.8309   -5.2713   -0.5424 C   0  0  0  0  0  0  0  0  0  0  0  0
    6.0828   -3.3825    0.6509 C   0  0  0  0  0  0  0  0  0  0  0  0
    6.7120   -5.6449    0.8676 O   0  0  0  0  0  0  0  0  0  0  0  0
    3.2840   -5.1460    5.5015 C   0  0  1  0  0  0  0  0  0  0  0  0
    4.3906   -4.2666    5.4397 O   0  0  0  0  0  0  0  0  0  0  0  0
    2.0564   -4.5540    6.2687 C   0  0  1  0  0  0  0  0  0  0  0  0
    2.4005   -4.5259    7.7812 C   0  0  0  0  0  0  0  0  0  0  0  0
    1.8089    1.1024    1.9497 H   0  0  0  0  0  0  0  0  0  0  0  0
    2.5508   -0.1057    2.9829 H   0  0  0  0  0  0  0  0  0  0  0  0
    3.5218    1.2126    2.3207 H   0  0  0  0  0  0  0  0  0  0  0  0
    2.7950    3.7314    3.0249 H   0  0  0  0  0  0  0  0  0  0  0  0
    1.7274    3.9070    4.4205 H   0  0  0  0  0  0  0  0  0  0  0  0
    1.0775    3.3472    2.8785 H   0  0  0  0  0  0  0  0  0  0  0  0
    1.9397    2.1785    5.9691 H   0  0  0  0  0  0  0  0  0  0  0  0
    3.1668   -0.4596    5.0428 H   0  0  0  0  0  0  0  0  0  0  0  0
    3.1416    0.1874    6.6437 H   0  0  0  0  0  0  0  0  0  0  0  0
    2.2132   -2.9007    4.8494 H   0  0  0  0  0  0  0  0  0  0  0  0
   -0.4226   -3.2280    6.3139 H   0  0  0  0  0  0  0  0  0  0  0  0
    0.3109   -2.3274    3.5107 H   0  0  0  0  0  0  0  0  0  0  0  0
   -1.2979   -2.2627    4.2200 H   0  0  0  0  0  0  0  0  0  0  0  0
    0.1660   -0.0693    4.3621 H   0  0  0  0  0  0  0  0  0  0  0  0
   -0.7260   -6.1942    6.8846 H   0  0  0  0  0  0  0  0  0  0  0  0
    1.7424   -8.5719    6.0548 H   0  0  0  0  0  0  0  0  0  0  0  0
   -0.5820   -8.3698    5.5910 H   0  0  0  0  0  0  0  0  0  0  0  0
   -1.0988   -6.8708    4.8432 H   0  0  0  0  0  0  0  0  0  0  0  0
    0.5036   -9.1373    3.6477 H   0  0  0  0  0  0  0  0  0  0  0  0
   -0.9271   -8.9140    2.0189 H   0  0  0  0  0  0  0  0  0  0  0  0
    2.3452   -8.7144    1.9740 H   0  0  0  0  0  0  0  0  0  0  0  0
    2.5532   -7.1084    1.2910 H   0  0  0  0  0  0  0  0  0  0  0  0
    1.1386   -8.0502    0.8882 H   0  0  0  0  0  0  0  0  0  0  0  0
    1.0194   -5.3540    2.3715 H   0  0  0  0  0  0  0  0  0  0  0  0
    2.5604   -7.7487    4.2281 H   0  0  0  0  0  0  0  0  0  0  0  0
    3.9337   -6.2225    3.8145 H   0  0  0  0  0  0  0  0  0  0  0  0
    5.3503   -4.8263    2.8647 H   0  0  0  0  0  0  0  0  0  0  0  0
    4.5477   -6.1538    2.0544 H   0  0  0  0  0  0  0  0  0  0  0  0
    3.8875   -4.7472   -0.6772 H   0  0  0  0  0  0  0  0  0  0  0  0
    4.6086   -6.3386   -0.5265 H   0  0  0  0  0  0  0  0  0  0  0  0
    5.4145   -5.0653   -1.4401 H   0  0  0  0  0  0  0  0  0  0  0  0
    5.2667   -2.6710    0.5457 H   0  0  0  0  0  0  0  0  0  0  0  0
    6.7510   -3.2456   -0.2002 H   0  0  0  0  0  0  0  0  0  0  0  0
    6.6334   -3.1204    1.5540 H   0  0  0  0  0  0  0  0  0  0  0  0
    6.4419   -6.5476    0.9621 H   0  0  0  0  0  0  0  0  0  0  0  0
    3.6482   -5.9800    6.0937 H   0  0  0  0  0  0  0  0  0  0  0  0
    4.1448   -3.4909    4.9554 H   0  0  0  0  0  0  0  0  0  0  0  0
    2.5792   -5.5320    8.1635 H   0  0  0  0  0  0  0  0  0  0  0  0
    1.6089   -4.0709    8.3781 H   0  0  0  0  0  0  0  0  0  0  0  0
    3.3105   -3.9470    7.9604 H   0  0  0  0  0  0  0  0  0  0  0  0
  1  2  1  0
  1 40  1  0
  1 41  1  0
  1 42  1  0
  2  3  1  0
  2  4  2  3
  3 43  1  0
  3 44  1  0
  3 45  1  0
  4  5  1  0
  4 46  1  0
  6  5  1  6
  5 47  1  0
  5 48  1  0
  6 11  1  0
  6 13  1  0
  6  7  1  0
  7  8  1  0
  8 38  1  0
  8  9  1  0
  8 49  1  6
  9 10  1  0
  9 15  1  0
  9 50  1  1
 10 11  1  0
 10 51  1  0
 10 52  1  0
 11 12  1  0
 11 53  1  6
 12 13  1  0
 13 14  2  0
 15 16  1  0
 16 38  1  0
 16 17  1  1
 16 18  1  0
 17 54  1  0
 18 26  1  0
 18 19  1  1
 18 20  1  0
 19 55  1  0
 20 21  1  0
 20 56  1  0
 20 57  1  0
 21 22  1  0
 21 23  1  0
 21 58  1  1
 22 59  1  0
 23 24  1  0
 23 25  1  6
 23 26  1  0
 24 60  1  0
 24 61  1  0
 24 62  1  0
 25 63  1  0
 26 27  1  0
 26 64  1  1
 27 28  1  0
 27 36  1  0
 27 65  1  6
 28 29  1  0
 29 30  2  0
 29 31  1  0
 31 32  1  0
 31 66  1  0
 31 67  1  0
 32 33  1  0
 32 34  1  0
 32 35  1  0
 33 68  1  0
 33 69  1  0
 33 70  1  0
 34 71  1  0
 34 72  1  0
 34 73  1  0
 35 74  1  0
 36 37  1  0
 36 38  1  0
 36 75  1  1
 37 76  1  0
 38 39  1  1
 39 77  1  0
 39 78  1  0
 39 79  1  0
M  END
>  <i_m_ct_stereo_status>  (359) 
1

>  <s_m_source_file>  (359) 
/var/tmp/pbs.5076255.sched01/tmpj3mqheq3/1200r5s1sfv.sdf

>  <i_m_source_file_index>  (359) 
28

>  <i_lp_mmshare_version>  (359) 
48012

>  <i_f3d_flags>  (359) 
0

>  <s_epik_input>  (359) 
W0NIM11DKFtDSDNdKT1bQ0hdW0NIMl1bQ0BAXTEyW0NASF0oT0MyPU8pW0NIMl1bQ0BASF0zW0NAQEhdKE8xKVtDQEBdNChbQ0gzXSlbQ0BdKE8zKShbT0hdKVtDQF01KFtPSF0pW0NAQEhdKFtDQF0oW0NIM10pKFtPSF0pW0NAQEhdKFtDSDJdNSlbT0hdKVtDQEhdKFtDQEhdNFtPSF0pT0MoPU8pW0NIMl1DKFtDSDNdKShbQ0gzXSlbT0hd

>  <s_epik_cmdline>  (359) 
J2VwaWtfcHl0aG9uJywgJy1waHQnLCAnMi4wJywgJy1waCcsICc3LjAnLCAnLXRuJywgJzgnLCAnLW1hJywgJzIwMCcsICctaW1hZScsICc8aW5maWxlLm1hZT4nLCAnLW9tYWUnLCAnPG91dGZpbGUubWFlPic=

>  <r_lp_tautomer_probability>  (359) 
1

>  <r_epik_Ionization_Penalty>  (359) 
2.29316e-05

>  <r_epik_Ionization_Penalty_Charging>  (359) 
0

>  <r_epik_Ionization_Penalty_Neutral>  (359) 
2.29316e-05

>  <r_epik_State_Penalty>  (359) 
-0

>  <r_epik_Charging_Adjusted_Penalty>  (359) 
0

>  <i_epik_Tot_Q>  (359) 
0

>  <i_epik_Tot_abs_Q>  (359) 
0

>  <s_epik_Chemistry_Notes>  (359) 
This compound has an ester and may undergo hydrolysis at high or low pH.

>  <s_lp_Force_Field>  (359) 
OPLS3e

>  <r_lp_Energy>  (359) 
37.8658

>  <b_lp_Chiralities_Consistent>  (359) 
1

>  <s_lp_Variant>  (359) 
108:0-1

>  <s_i_glide_gridfile>  (359) 
pfpi4k_grid

>  <i_i_glide_lignum>  (359) 
28

>  <i_i_glide_rotatable_bonds>  (359) 
12

>  <r_i_docking_score>  (359) 
-2.62749

>  <r_i_glide_ligand_efficiency>  (359) 
-0.0673715

>  <r_i_glide_ligand_efficiency_sa>  (359) 
-0.228471

>  <r_i_glide_ligand_efficiency_ln>  (359) 
-0.563408

>  <r_i_glide_gscore>  (359) 
-2.62749

>  <r_i_glide_lipo>  (359) 
-0.19709

>  <r_i_glide_hbond>  (359) 
-0.00258926

>  <r_i_glide_metal>  (359) 
-0

>  <r_i_glide_rewards>  (359) 
-0.501603

>  <r_i_glide_evdw>  (359) 
-23.5127

>  <r_i_glide_ecoul>  (359) 
-6.97443

>  <r_i_glide_erotb>  (359) 
0.326343

>  <r_i_glide_esite>  (359) 
-0.0307485

>  <r_i_glide_emodel>  (359) 
-38.1204

>  <r_i_glide_energy>  (359) 
-30.4871

>  <r_i_glide_einternal>  (359) 
7.04372

>  <r_i_glide_intrahb_reward>  (359) 
-0.5

>  <i_i_glide_confnum>  (359) 
9

>  <i_i_glide_posenum>  (359) 
4

>  <r_i_glide_eff_state_penalty>  (359) 
0

>  <ligand_id>  (359) 
108

>  <original_smiles>  (359) 
CC(C)=CCC12OC3C(CC1OC2=O)OC1(O)C2(O)CC(O)C(C)(O)C2C(OC(=O)CC(C)(C)O)C(O)C31C

>  <smiles>  (359) 
[H]OC1([H])C([H])([H])C2(O[H])C3(O[H])OC4([H])C([H])([H])C5([H])OC(=O)C5(C([H])([H])C([H])=C(C([H])([H])[H])C([H])([H])[H])OC4([H])C3(C([H])([H])[H])C([H])(O[H])C([H])(OC(=O)C([H])([H])C(O[H])(C([H])([H])[H])C([H])([H])[H])C2([H])C1(O[H])C([H])([H])[H]

$$$$
108:0:2
     RDKit          3D

 79 83  0  0  1  0  0  0  0  0999 V2000
    0.2093   -1.0709    5.0398 C   0  0  0  0  0  0  0  0  0  0  0  0
    0.0110   -0.7981    6.5224 C   0  0  0  0  0  0  0  0  0  0  0  0
   -0.7368    0.4918    6.8181 C   0  0  0  0  0  0  0  0  0  0  0  0
    0.4542   -1.5961    7.5190 C   0  0  0  0  0  0  0  0  0  0  0  0
    1.2700   -2.8783    7.3951 C   0  0  0  0  0  0  0  0  0  0  0  0
    0.4918   -4.1884    7.5472 C   0  0  2  0  0  0  0  0  0  0  0  0
    1.3758   -5.2773    7.8512 O   0  0  0  0  0  0  0  0  0  0  0  0
    1.6115   -6.1485    6.7561 C   0  0  2  0  0  0  0  0  0  0  0  0
    0.2811   -6.7916    6.4266 C   0  0  1  0  0  0  0  0  0  0  0  0
   -0.5950   -5.7752    5.7135 C   0  0  0  0  0  0  0  0  0  0  0  0
   -0.6739   -4.5196    6.5981 C   0  0  1  0  0  0  0  0  0  0  0  0
   -1.5722   -4.6808    7.7310 O   0  0  0  0  0  0  0  0  0  0  0  0
   -0.6402   -4.2122    8.6148 C   0  0  0  0  0  0  0  0  0  0  0  0
   -0.7422   -3.9346    9.7923 O   0  0  0  0  0  0  0  0  0  0  0  0
    0.6352   -7.9974    5.7746 O   0  0  0  0  0  0  0  0  0  0  0  0
    1.6295   -8.5852    6.5640 C   0  0  1  0  0  0  0  0  0  0  0  0
    1.0421   -9.2549    7.6966 O   0  0  0  0  0  0  0  0  0  0  0  0
    2.3324   -9.6976    5.7070 C   0  0  1  0  0  0  0  0  0  0  0  0
    3.2847  -10.4193    6.4741 O   0  0  0  0  0  0  0  0  0  0  0  0
    1.3271  -10.7213    5.1356 C   0  0  0  0  0  0  0  0  0  0  0  0
    1.7098  -10.9068    3.6552 C   0  0  1  0  0  0  0  0  0  0  0  0
    0.5775  -11.3802    2.9050 O   0  0  0  0  0  0  0  0  0  0  0  0
    2.2376   -9.5380    3.1979 C   0  0  1  0  0  0  0  0  0  0  0  0
    3.0563   -9.6282    1.9053 C   0  0  0  0  0  0  0  0  0  0  0  0
    1.1044   -8.7137    2.9752 O   0  0  0  0  0  0  0  0  0  0  0  0
    3.0518   -9.1113    4.4651 C   0  0  1  0  0  0  0  0  0  0  0  0
    3.6586   -7.7015    4.6462 C   0  0  1  0  0  0  0  0  0  0  0  0
    2.8568   -6.7252    3.9975 O   0  0  0  0  0  0  0  0  0  0  0  0
    3.2604   -6.0714    2.8816 C   0  0  0  0  0  0  0  0  0  0  0  0
    2.4964   -5.3314    2.2727 O   0  0  0  0  0  0  0  0  0  0  0  0
    4.7361   -6.2931    2.4336 C   0  0  0  0  0  0  0  0  0  0  0  0
    5.2802   -5.6658    1.1379 C   0  0  0  0  0  0  0  0  0  0  0  0
    5.1269   -4.1378    1.0707 C   0  0  0  0  0  0  0  0  0  0  0  0
    6.7628   -6.0657    1.0070 C   0  0  0  0  0  0  0  0  0  0  0  0
    4.5981   -6.2873    0.0628 O   0  0  0  0  0  0  0  0  0  0  0  0
    3.8198   -7.3189    6.1289 C   0  0  1  0  0  0  0  0  0  0  0  0
    4.5205   -6.0891    6.2184 O   0  0  0  0  0  0  0  0  0  0  0  0
    2.5359   -7.3611    7.0069 C   0  0  1  0  0  0  0  0  0  0  0  0
    2.9705   -7.4598    8.4948 C   0  0  0  0  0  0  0  0  0  0  0  0
   -0.7308   -0.9352    4.5017 H   0  0  0  0  0  0  0  0  0  0  0  0
    0.5594   -2.0807    4.8212 H   0  0  0  0  0  0  0  0  0  0  0  0
    0.9291   -0.3672    4.6250 H   0  0  0  0  0  0  0  0  0  0  0  0
   -0.1919    1.3341    6.3950 H   0  0  0  0  0  0  0  0  0  0  0  0
   -0.8342    0.6614    7.8891 H   0  0  0  0  0  0  0  0  0  0  0  0
   -1.7319    0.4739    6.3712 H   0  0  0  0  0  0  0  0  0  0  0  0
    0.2380   -1.3001    8.5414 H   0  0  0  0  0  0  0  0  0  0  0  0
    1.7833   -2.8813    6.4323 H   0  0  0  0  0  0  0  0  0  0  0  0
    2.0628   -2.8296    8.1376 H   0  0  0  0  0  0  0  0  0  0  0  0
    1.9626   -5.5342    5.9303 H   0  0  0  0  0  0  0  0  0  0  0  0
   -0.1930   -7.0679    7.3748 H   0  0  0  0  0  0  0  0  0  0  0  0
   -0.1407   -5.5122    4.7576 H   0  0  0  0  0  0  0  0  0  0  0  0
   -1.5786   -6.1903    5.5018 H   0  0  0  0  0  0  0  0  0  0  0  0
   -0.9476   -3.6180    6.0279 H   0  0  0  0  0  0  0  0  0  0  0  0
    0.9574  -10.1581    7.4845 H   0  0  0  0  0  0  0  0  0  0  0  0
    2.8246  -11.0199    7.0504 H   0  0  0  0  0  0  0  0  0  0  0  0
    1.4053  -11.6817    5.6393 H   0  0  0  0  0  0  0  0  0  0  0  0
    0.2983  -10.3779    5.2349 H   0  0  0  0  0  0  0  0  0  0  0  0
    2.5130  -11.6357    3.5923 H   0  0  0  0  0  0  0  0  0  0  0  0
   -0.1103  -10.8012    3.0583 H   0  0  0  0  0  0  0  0  0  0  0  0
    3.9142  -10.2945    1.9989 H   0  0  0  0  0  0  0  0  0  0  0  0
    3.4219   -8.6622    1.5757 H   0  0  0  0  0  0  0  0  0  0  0  0
    2.4473  -10.0111    1.0859 H   0  0  0  0  0  0  0  0  0  0  0  0
    0.5895   -8.6960    3.7587 H   0  0  0  0  0  0  0  0  0  0  0  0
    3.9535   -9.7226    4.3841 H   0  0  0  0  0  0  0  0  0  0  0  0
    4.6876   -7.7608    4.3057 H   0  0  0  0  0  0  0  0  0  0  0  0
    5.3802   -5.9727    3.2592 H   0  0  0  0  0  0  0  0  0  0  0  0
    4.9041   -7.3724    2.3266 H   0  0  0  0  0  0  0  0  0  0  0  0
    5.5672   -3.6806    1.9488 H   0  0  0  0  0  0  0  0  0  0  0  0
    4.0856   -3.8322    1.0226 H   0  0  0  0  0  0  0  0  0  0  0  0
    5.6348   -3.7342    0.2047 H   0  0  0  0  0  0  0  0  0  0  0  0
    7.3561   -5.6690    1.8243 H   0  0  0  0  0  0  0  0  0  0  0  0
    7.1977   -5.7051    0.0894 H   0  0  0  0  0  0  0  0  0  0  0  0
    6.8855   -7.1448    1.0221 H   0  0  0  0  0  0  0  0  0  0  0  0
    4.8344   -5.8743   -0.7462 H   0  0  0  0  0  0  0  0  0  0  0  0
    4.4954   -8.0563    6.5550 H   0  0  0  0  0  0  0  0  0  0  0  0
    3.9642   -5.3882    5.9285 H   0  0  0  0  0  0  0  0  0  0  0  0
    3.5297   -8.3777    8.6611 H   0  0  0  0  0  0  0  0  0  0  0  0
    2.1230   -7.4421    9.1793 H   0  0  0  0  0  0  0  0  0  0  0  0
    3.6216   -6.6283    8.7555 H   0  0  0  0  0  0  0  0  0  0  0  0
  1  2  1  0
  1 40  1  0
  1 41  1  0
  1 42  1  0
  2  3  1  0
  2  4  2  3
  3 43  1  0
  3 44  1  0
  3 45  1  0
  4  5  1  0
  4 46  1  0
  6  5  1  6
  5 47  1  0
  5 48  1  0
  6 11  1  0
  6 13  1  0
  6  7  1  0
  7  8  1  0
  8 38  1  0
  8  9  1  0
  8 49  1  6
  9 10  1  0
  9 15  1  0
  9 50  1  1
 10 11  1  0
 10 51  1  0
 10 52  1  0
 11 12  1  0
 11 53  1  6
 12 13  1  0
 13 14  2  0
 15 16  1  0
 16 38  1  0
 16 17  1  1
 16 18  1  0
 17 54  1  0
 18 26  1  0
 18 19  1  1
 18 20  1  0
 19 55  1  0
 20 21  1  0
 20 56  1  0
 20 57  1  0
 21 22  1  0
 21 23  1  0
 21 58  1  1
 22 59  1  0
 23 24  1  0
 23 25  1  6
 23 26  1  0
 24 60  1  0
 24 61  1  0
 24 62  1  0
 25 63  1  0
 26 27  1  0
 26 64  1  6
 27 28  1  0
 27 36  1  0
 27 65  1  6
 28 29  1  0
 29 30  2  0
 29 31  1  0
 31 32  1  0
 31 66  1  0
 31 67  1  0
 32 33  1  0
 32 34  1  0
 32 35  1  0
 33 68  1  0
 33 69  1  0
 33 70  1  0
 34 71  1  0
 34 72  1  0
 34 73  1  0
 35 74  1  0
 36 37  1  0
 36 38  1  0
 36 75  1  1
 37 76  1  0
 38 39  1  1
 39 77  1  0
 39 78  1  0
 39 79  1  0
M  END
>  <i_m_ct_stereo_status>  (360) 
1

>  <s_m_source_file>  (360) 
/var/tmp/pbs.5076255.sched01/tmpj3mqheq3/1200r5s1sfv.sdf

>  <i_m_source_file_index>  (360) 
28

>  <i_lp_mmshare_version>  (360) 
48012

>  <i_f3d_flags>  (360) 
0

>  <s_epik_input>  (360) 
W0NIM11DKFtDSDNdKT1bQ0hdW0NIMl1bQ0BAXTEyW0NASF0oT0MyPU8pW0NIMl1bQ0BASF0zW0NAQEhdKE8xKVtDQEBdNChbQ0gzXSlbQ0BdKE8zKShbT0hdKVtDQF01KFtPSF0pW0NAQEhdKFtDQF0oW0NIM10pKFtPSF0pW0NAQEhdKFtDSDJdNSlbT0hdKVtDQEhdKFtDQEhdNFtPSF0pT0MoPU8pW0NIMl1DKFtDSDNdKShbQ0gzXSlbT0hd

>  <s_epik_cmdline>  (360) 
J2VwaWtfcHl0aG9uJywgJy1waHQnLCAnMi4wJywgJy1waCcsICc3LjAnLCAnLXRuJywgJzgnLCAnLW1hJywgJzIwMCcsICctaW1hZScsICc8aW5maWxlLm1hZT4nLCAnLW9tYWUnLCAnPG91dGZpbGUubWFlPic=

>  <r_lp_tautomer_probability>  (360) 
1

>  <r_epik_Ionization_Penalty>  (360) 
2.29316e-05

>  <r_epik_Ionization_Penalty_Charging>  (360) 
0

>  <r_epik_Ionization_Penalty_Neutral>  (360) 
2.29316e-05

>  <r_epik_State_Penalty>  (360) 
-0

>  <r_epik_Charging_Adjusted_Penalty>  (360) 
0

>  <i_epik_Tot_Q>  (360) 
0

>  <i_epik_Tot_abs_Q>  (360) 
0

>  <s_epik_Chemistry_Notes>  (360) 
This compound has an ester and may undergo hydrolysis at high or low pH.

>  <s_lp_Force_Field>  (360) 
OPLS3e

>  <r_lp_Energy>  (360) 
37.8658

>  <b_lp_Chiralities_Consistent>  (360) 
1

>  <s_lp_Variant>  (360) 
108:0-1

>  <s_i_glide_gridfile>  (360) 
pfpi4k_grid

>  <i_i_glide_lignum>  (360) 
28

>  <i_i_glide_rotatable_bonds>  (360) 
12

>  <r_i_docking_score>  (360) 
-2.62381

>  <r_i_glide_ligand_efficiency>  (360) 
-0.0672773

>  <r_i_glide_ligand_efficiency_sa>  (360) 
-0.228152

>  <r_i_glide_ligand_efficiency_ln>  (360) 
-0.56262

>  <r_i_glide_gscore>  (360) 
-2.62381

>  <r_i_glide_lipo>  (360) 
-0.277071

>  <r_i_glide_hbond>  (360) 
0

>  <r_i_glide_metal>  (360) 
-0

>  <r_i_glide_rewards>  (360) 
-0.5

>  <r_i_glide_evdw>  (360) 
-24.5635

>  <r_i_glide_ecoul>  (360) 
-5.91289

>  <r_i_glide_erotb>  (360) 
0.326343

>  <r_i_glide_esite>  (360) 
-0.0579787

>  <r_i_glide_emodel>  (360) 
-37.6286

>  <r_i_glide_energy>  (360) 
-30.4764

>  <r_i_glide_einternal>  (360) 
7.63307

>  <r_i_glide_intrahb_reward>  (360) 
-0.5

>  <i_i_glide_confnum>  (360) 
14

>  <i_i_glide_posenum>  (360) 
10

>  <r_i_glide_eff_state_penalty>  (360) 
0

>  <ligand_id>  (360) 
108

>  <original_smiles>  (360) 
CC(C)=CCC12OC3C(CC1OC2=O)OC1(O)C2(O)CC(O)C(C)(O)C2C(OC(=O)CC(C)(C)O)C(O)C31C

>  <smiles>  (360) 
[H]OC1([H])C([H])([H])C2(O[H])C3(O[H])OC4([H])C([H])([H])C5([H])OC(=O)C5(C([H])([H])C([H])=C(C([H])([H])[H])C([H])([H])[H])OC4([H])C3(C([H])([H])[H])C([H])(O[H])C([H])(OC(=O)C([H])([H])C(O[H])(C([H])([H])[H])C([H])([H])[H])C2([H])C1(O[H])C([H])([H])[H]

$$$$
110:0:0
     RDKit          3D

 31 34  0  0  1  0  0  0  0  0999 V2000
    5.2904   -1.4325    1.5829 C   0  0  0  0  0  0  0  0  0  0  0  0
    4.6093   -2.8039    1.7947 C   0  0  2  0  0  0  0  0  0  0  0  0
    5.5031   -3.9377    1.2423 C   0  0  0  0  0  0  0  0  0  0  0  0
    5.7758   -3.6940   -0.2590 C   0  0  2  0  0  0  0  0  0  0  0  0
    6.5159   -2.3460   -0.3887 C   0  0  0  0  0  0  0  0  0  0  0  0
    5.5658   -1.2201    0.0761 C   0  0  1  0  0  0  0  0  0  0  0  0
    4.2172   -1.2579   -0.7079 C   0  0  1  0  0  0  0  0  0  0  0  0
    4.3382   -1.0571   -2.2350 C   0  0  0  0  0  0  0  0  0  0  0  0
    5.0156   -2.1355   -2.8795 O   0  0  0  0  0  0  0  0  0  0  0  0
    4.5495   -3.4480   -2.5621 C   0  0  0  0  0  0  0  0  0  0  0  0
    4.4258   -3.6831   -1.0389 C   0  0  2  0  0  0  0  0  0  0  0  0
    3.5079   -2.5983   -0.4518 C   0  0  1  0  0  0  0  0  0  0  0  0
    3.2613   -2.8193    1.0524 C   0  0  0  0  0  0  0  0  0  0  0  0
    6.2207   -1.3854    2.1500 H   0  0  0  0  0  0  0  0  0  0  0  0
    4.6553   -0.6345    1.9670 H   0  0  0  0  0  0  0  0  0  0  0  0
    4.4351   -2.9648    2.8587 H   0  0  0  0  0  0  0  0  0  0  0  0
    6.4416   -3.9765    1.7959 H   0  0  0  0  0  0  0  0  0  0  0  0
    5.0204   -4.9048    1.3868 H   0  0  0  0  0  0  0  0  0  0  0  0
    6.4078   -4.4926   -0.6402 H   0  0  0  0  0  0  0  0  0  0  0  0
    7.4263   -2.3509    0.2126 H   0  0  0  0  0  0  0  0  0  0  0  0
    6.8565   -2.1889   -1.4084 H   0  0  0  0  0  0  0  0  0  0  0  0
    6.0464   -0.2515   -0.0626 H   0  0  0  0  0  0  0  0  0  0  0  0
    3.5893   -0.4584   -0.3186 H   0  0  0  0  0  0  0  0  0  0  0  0
    3.3481   -0.9491   -2.6766 H   0  0  0  0  0  0  0  0  0  0  0  0
    4.8782   -0.1340   -2.4498 H   0  0  0  0  0  0  0  0  0  0  0  0
    3.5805   -3.5923   -3.0378 H   0  0  0  0  0  0  0  0  0  0  0  0
    5.2280   -4.1782   -3.0054 H   0  0  0  0  0  0  0  0  0  0  0  0
    3.9495   -4.6538   -0.8991 H   0  0  0  0  0  0  0  0  0  0  0  0
    2.5461   -2.6130   -0.9675 H   0  0  0  0  0  0  0  0  0  0  0  0
    2.7512   -3.7694    1.2124 H   0  0  0  0  0  0  0  0  0  0  0  0
    2.6030   -2.0416    1.4419 H   0  0  0  0  0  0  0  0  0  0  0  0
  1  6  1  0
  1  2  1  0
  1 14  1  0
  1 15  1  0
  2 13  1  0
  2  3  1  0
  2 16  1  1
  3  4  1  0
  3 17  1  0
  3 18  1  0
  4 11  1  0
  4  5  1  0
  4 19  1  6
  5  6  1  0
  5 20  1  0
  5 21  1  0
  6  7  1  0
  6 22  1  1
  7 12  1  0
  7  8  1  0
  7 23  1  1
  8  9  1  0
  8 24  1  0
  8 25  1  0
  9 10  1  0
 10 11  1  0
 10 26  1  0
 10 27  1  0
 11 12  1  0
 11 28  1  6
 12 13  1  0
 12 29  1  6
 13 30  1  0
 13 31  1  0
M  END
>  <i_m_ct_stereo_status>  (361) 
1

>  <s_m_source_file>  (361) 
/var/tmp/pbs.5076255.sched01/tmpj3mqheq3/1200r5s1sfv.sdf

>  <i_m_source_file_index>  (361) 
31

>  <i_lp_mmshare_version>  (361) 
48012

>  <i_f3d_flags>  (361) 
0

>  <s_epik_input>  (361) 
W0NAQEhdMTJbQ0gyXVtDQEBIXTNbQ0BASF00W0NASF0oW0NIMl0yKVtDQEhdKFtDQEhdKFtDSDJdMSlbQ0gyXTMpW0NIMl1PW0NIMl00

>  <s_epik_cmdline>  (361) 
J2VwaWtfcHl0aG9uJywgJy1waHQnLCAnMi4wJywgJy1waCcsICc3LjAnLCAnLXRuJywgJzgnLCAnLW1hJywgJzIwMCcsICctaW1hZScsICc8aW5maWxlLm1hZT4nLCAnLW9tYWUnLCAnPG91dGZpbGUubWFlPic=

>  <r_lp_tautomer_probability>  (361) 
1

>  <r_epik_Ionization_Penalty>  (361) 
6.01311e-11

>  <r_epik_Ionization_Penalty_Charging>  (361) 
0

>  <r_epik_Ionization_Penalty_Neutral>  (361) 
6.01311e-11

>  <r_epik_State_Penalty>  (361) 
-0

>  <r_epik_Charging_Adjusted_Penalty>  (361) 
0

>  <i_epik_Tot_Q>  (361) 
0

>  <i_epik_Tot_abs_Q>  (361) 
0

>  <s_lp_Force_Field>  (361) 
OPLS3e

>  <r_lp_Energy>  (361) 
9.94237

>  <b_lp_Chiralities_Consistent>  (361) 
1

>  <s_lp_Variant>  (361) 
110:0-1

>  <s_i_glide_gridfile>  (361) 
pfpi4k_grid

>  <i_i_glide_lignum>  (361) 
31

>  <i_i_glide_rotatable_bonds>  (361) 
0

>  <r_i_docking_score>  (361) 
-3.63337

>  <r_i_glide_ligand_efficiency>  (361) 
-0.27949

>  <r_i_glide_ligand_efficiency_sa>  (361) 
-0.657174

>  <r_i_glide_ligand_efficiency_ln>  (361) 
-1.01919

>  <r_i_glide_gscore>  (361) 
-3.63337

>  <r_i_glide_lipo>  (361) 
-0.262834

>  <r_i_glide_hbond>  (361) 
0

>  <r_i_glide_metal>  (361) 
-0

>  <r_i_glide_rewards>  (361) 
-2.19361

>  <r_i_glide_evdw>  (361) 
-18.6348

>  <r_i_glide_ecoul>  (361) 
-1.63459

>  <r_i_glide_erotb>  (361) 
0

>  <r_i_glide_esite>  (361) 
0

>  <r_i_glide_emodel>  (361) 
-24.8747

>  <r_i_glide_energy>  (361) 
-20.2693

>  <r_i_glide_einternal>  (361) 
0

>  <r_i_glide_intrahb_reward>  (361) 
-0

>  <i_i_glide_confnum>  (361) 
2

>  <i_i_glide_posenum>  (361) 
7

>  <r_i_glide_eff_state_penalty>  (361) 
0

>  <ligand_id>  (361) 
110

>  <original_smiles>  (361) 
C1C2CC3CC1C1COCC3C1C2

>  <smiles>  (361) 
[H]C1([H])OC([H])([H])C2([H])C3([H])C([H])([H])C4([H])C([H])([H])C([H])(C3([H])[H])C1([H])C2([H])C4([H])[H]

$$$$
110:0:1
     RDKit          3D

 31 34  0  0  1  0  0  0  0  0999 V2000
    6.2696   -1.7825   -0.2078 C   0  0  0  0  0  0  0  0  0  0  0  0
    5.0611   -1.9619    0.7368 C   0  0  2  0  0  0  0  0  0  0  0  0
    4.5419   -3.4173    0.6842 C   0  0  0  0  0  0  0  0  0  0  0  0
    4.1530   -3.7764   -0.7703 C   0  0  2  0  0  0  0  0  0  0  0  0
    5.4222   -3.6431   -1.6316 C   0  0  0  0  0  0  0  0  0  0  0  0
    5.8605   -2.1650   -1.6538 C   0  0  1  0  0  0  0  0  0  0  0  0
    4.7090   -1.2327   -2.1299 C   0  0  1  0  0  0  0  0  0  0  0  0
    4.1911   -1.4977   -3.5588 C   0  0  0  0  0  0  0  0  0  0  0  0
    3.5679   -2.7742   -3.6926 O   0  0  0  0  0  0  0  0  0  0  0  0
    2.5542   -3.0457   -2.7226 C   0  0  0  0  0  0  0  0  0  0  0  0
    3.0348   -2.8175   -1.2704 C   0  0  2  0  0  0  0  0  0  0  0  0
    3.5346   -1.3687   -1.1607 C   0  0  1  0  0  0  0  0  0  0  0  0
    3.9407   -1.0170    0.2851 C   0  0  0  0  0  0  0  0  0  0  0  0
    7.1020   -2.4032    0.1300 H   0  0  0  0  0  0  0  0  0  0  0  0
    6.6099   -0.7487   -0.1561 H   0  0  0  0  0  0  0  0  0  0  0  0
    5.3552   -1.7140    1.7602 H   0  0  0  0  0  0  0  0  0  0  0  0
    5.3150   -4.0978    1.0478 H   0  0  0  0  0  0  0  0  0  0  0  0
    3.6845   -3.5368    1.3491 H   0  0  0  0  0  0  0  0  0  0  0  0
    3.8049   -4.8086   -0.7910 H   0  0  0  0  0  0  0  0  0  0  0  0
    6.2181   -4.2588   -1.2142 H   0  0  0  0  0  0  0  0  0  0  0  0
    5.2605   -4.0198   -2.6395 H   0  0  0  0  0  0  0  0  0  0  0  0
    6.7176   -2.0660   -2.3161 H   0  0  0  0  0  0  0  0  0  0  0  0
    5.0603   -0.2029   -2.1005 H   0  0  0  0  0  0  0  0  0  0  0  0
    3.4720   -0.7251   -3.8376 H   0  0  0  0  0  0  0  0  0  0  0  0
    5.0100   -1.4370   -4.2740 H   0  0  0  0  0  0  0  0  0  0  0  0
    1.7020   -2.3985   -2.9201 H   0  0  0  0  0  0  0  0  0  0  0  0
    2.1927   -4.0648   -2.8606 H   0  0  0  0  0  0  0  0  0  0  0  0
    2.1771   -2.9430   -0.6116 H   0  0  0  0  0  0  0  0  0  0  0  0
    2.7529   -0.6834   -1.4839 H   0  0  0  0  0  0  0  0  0  0  0  0
    3.0754   -1.1036    0.9452 H   0  0  0  0  0  0  0  0  0  0  0  0
    4.2713    0.0216    0.3397 H   0  0  0  0  0  0  0  0  0  0  0  0
  1  6  1  0
  1  2  1  0
  1 14  1  0
  1 15  1  0
  2 13  1  0
  2  3  1  0
  2 16  1  1
  3  4  1  0
  3 17  1  0
  3 18  1  0
  4 11  1  0
  4  5  1  0
  4 19  1  1
  5  6  1  0
  5 20  1  0
  5 21  1  0
  6  7  1  0
  6 22  1  6
  7 12  1  0
  7  8  1  0
  7 23  1  6
  8  9  1  0
  8 24  1  0
  8 25  1  0
  9 10  1  0
 10 11  1  0
 10 26  1  0
 10 27  1  0
 11 12  1  0
 11 28  1  1
 12 13  1  0
 12 29  1  6
 13 30  1  0
 13 31  1  0
M  END
>  <i_m_ct_stereo_status>  (362) 
1

>  <s_m_source_file>  (362) 
/var/tmp/pbs.5076255.sched01/tmpj3mqheq3/1200r5s1sfv.sdf

>  <i_m_source_file_index>  (362) 
31

>  <i_lp_mmshare_version>  (362) 
48012

>  <i_f3d_flags>  (362) 
0

>  <s_epik_input>  (362) 
W0NAQEhdMTJbQ0gyXVtDQEBIXTNbQ0BASF00W0NASF0oW0NIMl0yKVtDQEhdKFtDQEhdKFtDSDJdMSlbQ0gyXTMpW0NIMl1PW0NIMl00

>  <s_epik_cmdline>  (362) 
J2VwaWtfcHl0aG9uJywgJy1waHQnLCAnMi4wJywgJy1waCcsICc3LjAnLCAnLXRuJywgJzgnLCAnLW1hJywgJzIwMCcsICctaW1hZScsICc8aW5maWxlLm1hZT4nLCAnLW9tYWUnLCAnPG91dGZpbGUubWFlPic=

>  <r_lp_tautomer_probability>  (362) 
1

>  <r_epik_Ionization_Penalty>  (362) 
6.01311e-11

>  <r_epik_Ionization_Penalty_Charging>  (362) 
0

>  <r_epik_Ionization_Penalty_Neutral>  (362) 
6.01311e-11

>  <r_epik_State_Penalty>  (362) 
-0

>  <r_epik_Charging_Adjusted_Penalty>  (362) 
0

>  <i_epik_Tot_Q>  (362) 
0

>  <i_epik_Tot_abs_Q>  (362) 
0

>  <s_lp_Force_Field>  (362) 
OPLS3e

>  <r_lp_Energy>  (362) 
9.94237

>  <b_lp_Chiralities_Consistent>  (362) 
1

>  <s_lp_Variant>  (362) 
110:0-1

>  <s_i_glide_gridfile>  (362) 
pfpi4k_grid

>  <i_i_glide_lignum>  (362) 
31

>  <i_i_glide_rotatable_bonds>  (362) 
0

>  <r_i_docking_score>  (362) 
-3.63108

>  <r_i_glide_ligand_efficiency>  (362) 
-0.279314

>  <r_i_glide_ligand_efficiency_sa>  (362) 
-0.65676

>  <r_i_glide_ligand_efficiency_ln>  (362) 
-1.01855

>  <r_i_glide_gscore>  (362) 
-3.63108

>  <r_i_glide_lipo>  (362) 
-0.361799

>  <r_i_glide_hbond>  (362) 
0

>  <r_i_glide_metal>  (362) 
-0

>  <r_i_glide_rewards>  (362) 
-2.19361

>  <r_i_glide_evdw>  (362) 
-18.0017

>  <r_i_glide_ecoul>  (362) 
-1.17058

>  <r_i_glide_erotb>  (362) 
0

>  <r_i_glide_esite>  (362) 
0

>  <r_i_glide_emodel>  (362) 
-23.7667

>  <r_i_glide_energy>  (362) 
-19.1722

>  <r_i_glide_einternal>  (362) 
0

>  <r_i_glide_intrahb_reward>  (362) 
-0

>  <i_i_glide_confnum>  (362) 
2

>  <i_i_glide_posenum>  (362) 
21

>  <r_i_glide_eff_state_penalty>  (362) 
0

>  <ligand_id>  (362) 
110

>  <original_smiles>  (362) 
C1C2CC3CC1C1COCC3C1C2

>  <smiles>  (362) 
[H]C1([H])OC([H])([H])C2([H])C3([H])C([H])([H])C4([H])C([H])([H])C([H])(C3([H])[H])C1([H])C2([H])C4([H])[H]

$$$$
110:0:2
     RDKit          3D

 31 34  0  0  1  0  0  0  0  0999 V2000
    4.9406   -3.7103   -3.1586 C   0  0  0  0  0  0  0  0  0  0  0  0
    3.7639   -2.7436   -3.4192 C   0  0  2  0  0  0  0  0  0  0  0  0
    4.2207   -1.2903   -3.1940 C   0  0  0  0  0  0  0  0  0  0  0  0
    4.7814   -1.1458   -1.7580 C   0  0  2  0  0  0  0  0  0  0  0  0
    5.9713   -2.1055   -1.5765 C   0  0  0  0  0  0  0  0  0  0  0  0
    5.4456   -3.5417   -1.7089 C   0  0  1  0  0  0  0  0  0  0  0  0
    4.3018   -3.8337   -0.6971 C   0  0  1  0  0  0  0  0  0  0  0  0
    4.7054   -3.6766    0.7875 C   0  0  0  0  0  0  0  0  0  0  0  0
    5.0218   -2.3292    1.1402 O   0  0  0  0  0  0  0  0  0  0  0  0
    4.0586   -1.3497    0.7513 C   0  0  0  0  0  0  0  0  0  0  0  0
    3.6625   -1.4730   -0.7346 C   0  0  2  0  0  0  0  0  0  0  0  0
    3.1220   -2.8937   -0.9946 C   0  0  1  0  0  0  0  0  0  0  0  0
    2.6173   -3.0474   -2.4424 C   0  0  0  0  0  0  0  0  0  0  0  0
    5.7507   -3.5267   -3.8650 H   0  0  0  0  0  0  0  0  0  0  0  0
    4.6189   -4.7358   -3.3279 H   0  0  0  0  0  0  0  0  0  0  0  0
    3.4044   -2.8646   -4.4416 H   0  0  0  0  0  0  0  0  0  0  0  0
    4.9821   -1.0375   -3.9299 H   0  0  0  0  0  0  0  0  0  0  0  0
    3.3880   -0.6002   -3.3500 H   0  0  0  0  0  0  0  0  0  0  0  0
    5.1116   -0.1246   -1.6123 H   0  0  0  0  0  0  0  0  0  0  0  0
    6.7427   -1.9175   -2.3171 H   0  0  0  0  0  0  0  0  0  0  0  0
    6.4712   -1.9430   -0.6272 H   0  0  0  0  0  0  0  0  0  0  0  0
    6.2502   -4.2416   -1.5118 H   0  0  0  0  0  0  0  0  0  0  0  0
    3.9826   -4.8662   -0.8384 H   0  0  0  0  0  0  0  0  0  0  0  0
    3.8874   -4.0227    1.4190 H   0  0  0  0  0  0  0  0  0  0  0  0
    5.5675   -4.3052    1.0122 H   0  0  0  0  0  0  0  0  0  0  0  0
    3.1679   -1.4660    1.3688 H   0  0  0  0  0  0  0  0  0  0  0  0
    4.4545   -0.3551    0.9560 H   0  0  0  0  0  0  0  0  0  0  0  0
    2.8762   -0.7463   -0.9092 H   0  0  0  0  0  0  0  0  0  0  0  0
    2.2920   -3.1095   -0.3144 H   0  0  0  0  0  0  0  0  0  0  0  0
    1.7995   -2.3546   -2.6232 H   0  0  0  0  0  0  0  0  0  0  0  0
    2.2088   -4.0401   -2.6073 H   0  0  0  0  0  0  0  0  0  0  0  0
  1  6  1  0
  1  2  1  0
  1 14  1  0
  1 15  1  0
  2 13  1  0
  2  3  1  0
  2 16  1  6
  3  4  1  0
  3 17  1  0
  3 18  1  0
  4 11  1  0
  4  5  1  0
  4 19  1  1
  5  6  1  0
  5 20  1  0
  5 21  1  0
  6  7  1  0
  6 22  1  1
  7 12  1  0
  7  8  1  0
  7 23  1  1
  8  9  1  0
  8 24  1  0
  8 25  1  0
  9 10  1  0
 10 11  1  0
 10 26  1  0
 10 27  1  0
 11 12  1  0
 11 28  1  6
 12 13  1  0
 12 29  1  1
 13 30  1  0
 13 31  1  0
M  END
>  <i_m_ct_stereo_status>  (363) 
1

>  <s_m_source_file>  (363) 
/var/tmp/pbs.5076255.sched01/tmpj3mqheq3/1200r5s1sfv.sdf

>  <i_m_source_file_index>  (363) 
31

>  <i_lp_mmshare_version>  (363) 
48012

>  <i_f3d_flags>  (363) 
0

>  <s_epik_input>  (363) 
W0NAQEhdMTJbQ0gyXVtDQEBIXTNbQ0BASF00W0NASF0oW0NIMl0yKVtDQEhdKFtDQEhdKFtDSDJdMSlbQ0gyXTMpW0NIMl1PW0NIMl00

>  <s_epik_cmdline>  (363) 
J2VwaWtfcHl0aG9uJywgJy1waHQnLCAnMi4wJywgJy1waCcsICc3LjAnLCAnLXRuJywgJzgnLCAnLW1hJywgJzIwMCcsICctaW1hZScsICc8aW5maWxlLm1hZT4nLCAnLW9tYWUnLCAnPG91dGZpbGUubWFlPic=

>  <r_lp_tautomer_probability>  (363) 
1

>  <r_epik_Ionization_Penalty>  (363) 
6.01311e-11

>  <r_epik_Ionization_Penalty_Charging>  (363) 
0

>  <r_epik_Ionization_Penalty_Neutral>  (363) 
6.01311e-11

>  <r_epik_State_Penalty>  (363) 
-0

>  <r_epik_Charging_Adjusted_Penalty>  (363) 
0

>  <i_epik_Tot_Q>  (363) 
0

>  <i_epik_Tot_abs_Q>  (363) 
0

>  <s_lp_Force_Field>  (363) 
OPLS3e

>  <r_lp_Energy>  (363) 
9.94237

>  <b_lp_Chiralities_Consistent>  (363) 
1

>  <s_lp_Variant>  (363) 
110:0-1

>  <s_i_glide_gridfile>  (363) 
pfpi4k_grid

>  <i_i_glide_lignum>  (363) 
31

>  <i_i_glide_rotatable_bonds>  (363) 
0

>  <r_i_docking_score>  (363) 
-3.62437

>  <r_i_glide_ligand_efficiency>  (363) 
-0.278797

>  <r_i_glide_ligand_efficiency_sa>  (363) 
-0.655546

>  <r_i_glide_ligand_efficiency_ln>  (363) 
-1.01667

>  <r_i_glide_gscore>  (363) 
-3.62437

>  <r_i_glide_lipo>  (363) 
-0.455065

>  <r_i_glide_hbond>  (363) 
0

>  <r_i_glide_metal>  (363) 
-0

>  <r_i_glide_rewards>  (363) 
-2.19361

>  <r_i_glide_evdw>  (363) 
-17.2613

>  <r_i_glide_ecoul>  (363) 
-0.75083

>  <r_i_glide_erotb>  (363) 
0

>  <r_i_glide_esite>  (363) 
0

>  <r_i_glide_emodel>  (363) 
-22.5848

>  <r_i_glide_energy>  (363) 
-18.0122

>  <r_i_glide_einternal>  (363) 
0

>  <r_i_glide_intrahb_reward>  (363) 
-0

>  <i_i_glide_confnum>  (363) 
1

>  <i_i_glide_posenum>  (363) 
24

>  <r_i_glide_eff_state_penalty>  (363) 
0

>  <ligand_id>  (363) 
110

>  <original_smiles>  (363) 
C1C2CC3CC1C1COCC3C1C2

>  <smiles>  (363) 
[H]C1([H])OC([H])([H])C2([H])C3([H])C([H])([H])C4([H])C([H])([H])C([H])(C3([H])[H])C1([H])C2([H])C4([H])[H]

$$$$
111:0:0
     RDKit          3D

106113  0  0  1  0  0  0  0  0999 V2000
   -1.5510   -9.2731    2.4055 C   0  0  0  0  0  0  0  0  0  0  0  0
   -0.6050   -8.8520    3.2722 C   0  0  0  0  0  0  0  0  0  0  0  0
   -1.0795   -8.5875    4.7019 C   0  0  0  0  0  0  0  0  0  0  0  0
    0.9001   -8.7301    2.9335 C   0  0  2  0  0  0  0  0  0  0  0  0
    1.7457   -9.8369    3.6311 C   0  0  0  0  0  0  0  0  0  0  0  0
    2.9792   -9.3569    4.4151 C   0  0  0  0  0  0  0  0  0  0  0  0
    2.7594   -8.1565    5.3943 C   0  0  2  0  0  0  0  0  0  0  0  0
    1.6918   -8.6809    6.4215 C   0  0  0  0  0  0  0  0  0  0  0  0
    2.1360   -6.8454    4.4195 C   0  0  1  0  0  0  0  0  0  0  0  0
    2.5227   -5.1661    4.3442 C   0  0  0  0  0  0  0  0  0  0  0  0
    3.4218   -3.9542    5.1173 C   0  0  2  0  0  0  0  0  0  0  0  0
    3.3983   -2.8442    4.0053 C   0  0  0  0  0  0  0  0  0  0  0  0
    5.0096   -4.1546    5.3529 C   0  0  2  0  0  0  0  0  0  0  0  0
    5.5780   -5.0505    4.2967 C   0  0  0  0  0  0  0  0  0  0  0  0
    5.0238   -6.4199    4.5851 C   0  0  1  0  0  0  0  0  0  0  0  0
    6.0267   -7.3851    4.1799 O   0  0  0  0  0  0  0  0  0  0  0  0
    6.2761   -7.7218    2.8945 C   0  0  0  0  0  0  0  0  0  0  0  0
    7.2996   -8.8397    2.7759 C   0  0  0  0  0  0  0  0  0  0  0  0
    5.7731   -7.2128    1.8950 O   0  0  0  0  0  0  0  0  0  0  0  0
    4.4870   -6.6124    6.1279 C   0  0  2  0  0  0  0  0  0  0  0  0
    3.1917   -5.9743    7.0405 C   0  0  0  0  0  0  0  0  0  0  0  0
    1.8093   -5.8221    6.7586 O   0  0  0  0  0  0  0  0  0  0  0  0
    0.9802   -4.8419    7.3699 C   0  0  1  0  0  0  0  0  0  0  0  0
   -0.4242   -5.3385    6.9752 C   0  0  0  0  0  0  0  0  0  0  0  0
    1.2169   -4.5057    8.8605 C   0  0  2  0  0  0  0  0  0  0  0  0
    0.1361   -4.7335    9.9165 C   0  0  1  0  0  0  0  0  0  0  0  0
    0.6897   -5.2448   11.2524 C   0  0  0  0  0  0  0  0  0  0  0  0
   -0.5408   -3.3682   10.0164 C   0  0  0  0  0  0  0  0  0  0  0  0
   -0.2325   -2.7188    8.7867 O   0  0  0  0  0  0  0  0  0  0  0  0
    1.1161   -3.0466    8.4546 C   0  0  2  0  0  0  0  0  0  0  0  0
    1.3870   -3.3983    6.9581 C   0  0  2  0  0  0  0  0  0  0  0  0
    0.3861   -2.6757    6.0180 C   0  0  0  0  0  0  0  0  0  0  0  0
    2.8637   -3.1228    6.3990 C   0  0  1  0  0  0  0  0  0  0  0  0
    4.0112   -2.6613    7.4056 C   0  0  0  0  0  0  0  0  0  0  0  0
    5.1252   -3.6481    7.8933 C   0  0  0  0  0  0  0  0  0  0  0  0
    5.6242   -4.6053    6.7818 C   0  0  1  0  0  0  0  0  0  0  0  0
    5.6667   -6.2176    7.0019 C   0  0  2  0  0  0  0  0  0  0  0  0
    7.1022   -6.7455    6.6545 C   0  0  0  0  0  0  0  0  0  0  0  0
    5.3112   -7.0957    8.2571 C   0  0  0  0  0  0  0  0  0  0  0  0
    4.4938   -8.3404    7.6985 C   0  0  0  0  0  0  0  0  0  0  0  0
    4.1551   -8.0349    6.1720 C   0  0  1  0  0  0  0  0  0  0  0  0
    1.5899   -7.2969    2.9661 C   0  0  0  0  0  0  0  0  0  0  0  0
    2.7069   -7.3259    1.8904 C   0  0  0  0  0  0  0  0  0  0  0  0
    0.5497   -6.2848    2.4241 C   0  0  0  0  0  0  0  0  0  0  0  0
   -2.5589   -9.3587    2.7651 H   0  0  0  0  0  0  0  0  0  0  0  0
   -1.3468   -9.5457    1.3807 H   0  0  0  0  0  0  0  0  0  0  0  0
   -0.7290   -7.6100    5.0160 H   0  0  0  0  0  0  0  0  0  0  0  0
   -0.6488   -9.3647    5.2992 H   0  0  0  0  0  0  0  0  0  0  0  0
   -2.1787   -8.5660    4.7986 H   0  0  0  0  0  0  0  0  0  0  0  0
    0.9165   -9.0380    1.8663 H   0  0  0  0  0  0  0  0  0  0  0  0
    1.1096  -10.4170    4.2996 H   0  0  0  0  0  0  0  0  0  0  0  0
    2.0685  -10.5696    2.8902 H   0  0  0  0  0  0  0  0  0  0  0  0
    3.3475  -10.2276    4.9864 H   0  0  0  0  0  0  0  0  0  0  0  0
    3.8017   -9.1566    3.7227 H   0  0  0  0  0  0  0  0  0  0  0  0
    1.6456   -8.0903    7.3409 H   0  0  0  0  0  0  0  0  0  0  0  0
    1.9562   -9.7160    6.7320 H   0  0  0  0  0  0  0  0  0  0  0  0
    0.8103   -8.6531    5.9896 H   0  0  0  0  0  0  0  0  0  0  0  0
    1.1734   -6.7629    4.8792 H   0  0  0  0  0  0  0  0  0  0  0  0
    2.8592   -5.0552    3.3157 H   0  0  0  0  0  0  0  0  0  0  0  0
    1.5341   -4.7165    4.2986 H   0  0  0  0  0  0  0  0  0  0  0  0
    3.9414   -1.9463    4.2864 H   0  0  0  0  0  0  0  0  0  0  0  0
    2.3846   -2.5189    3.7765 H   0  0  0  0  0  0  0  0  0  0  0  0
    3.8376   -3.1539    3.0593 H   0  0  0  0  0  0  0  0  0  0  0  0
    5.4952   -3.1904    5.1901 H   0  0  0  0  0  0  0  0  0  0  0  0
    5.3230   -4.7363    3.2858 H   0  0  0  0  0  0  0  0  0  0  0  0
    6.6620   -5.0505    4.3270 H   0  0  0  0  0  0  0  0  0  0  0  0
    4.2764   -6.6207    3.8440 H   0  0  0  0  0  0  0  0  0  0  0  0
    7.0090   -9.7024    3.3760 H   0  0  0  0  0  0  0  0  0  0  0  0
    8.2672   -8.4782    3.1179 H   0  0  0  0  0  0  0  0  0  0  0  0
    7.3972   -9.1572    1.7368 H   0  0  0  0  0  0  0  0  0  0  0  0
    2.9748   -6.5683    7.9186 H   0  0  0  0  0  0  0  0  0  0  0  0
    3.4361   -5.1185    7.5769 H   0  0  0  0  0  0  0  0  0  0  0  0
   -1.2120   -4.7267    7.3984 H   0  0  0  0  0  0  0  0  0  0  0  0
   -0.5733   -6.3612    7.3301 H   0  0  0  0  0  0  0  0  0  0  0  0
   -0.5637   -5.3442    5.8948 H   0  0  0  0  0  0  0  0  0  0  0  0
    2.2156   -4.7321    9.2113 H   0  0  0  0  0  0  0  0  0  0  0  0
   -0.5897   -5.4605    9.5590 H   0  0  0  0  0  0  0  0  0  0  0  0
    1.4287   -4.5570   11.6687 H   0  0  0  0  0  0  0  0  0  0  0  0
    1.1670   -6.2164   11.1281 H   0  0  0  0  0  0  0  0  0  0  0  0
   -0.1174   -5.3580   11.9833 H   0  0  0  0  0  0  0  0  0  0  0  0
   -1.6241   -3.4475   10.1408 H   0  0  0  0  0  0  0  0  0  0  0  0
   -0.1442   -2.7817   10.8492 H   0  0  0  0  0  0  0  0  0  0  0  0
    1.8091   -2.3901    8.9701 H   0  0  0  0  0  0  0  0  0  0  0  0
    0.5459   -1.5974    5.9828 H   0  0  0  0  0  0  0  0  0  0  0  0
   -0.6449   -2.7881    6.3438 H   0  0  0  0  0  0  0  0  0  0  0  0
    0.4009   -3.0441    4.9932 H   0  0  0  0  0  0  0  0  0  0  0  0
    2.6930   -2.1155    6.0264 H   0  0  0  0  0  0  0  0  0  0  0  0
    4.5668   -1.8891    6.8607 H   0  0  0  0  0  0  0  0  0  0  0  0
    3.6500   -2.0971    8.2504 H   0  0  0  0  0  0  0  0  0  0  0  0
    5.9632   -3.0285    8.2221 H   0  0  0  0  0  0  0  0  0  0  0  0
    4.8457   -4.1836    8.8025 H   0  0  0  0  0  0  0  0  0  0  0  0
    6.6720   -4.3455    6.7174 H   0  0  0  0  0  0  0  0  0  0  0  0
    7.7909   -6.5365    7.4714 H   0  0  0  0  0  0  0  0  0  0  0  0
    7.5587   -6.2891    5.7816 H   0  0  0  0  0  0  0  0  0  0  0  0
    7.1186   -7.8275    6.5022 H   0  0  0  0  0  0  0  0  0  0  0  0
    6.1842   -7.4463    8.7956 H   0  0  0  0  0  0  0  0  0  0  0  0
    4.7542   -6.5388    9.0121 H   0  0  0  0  0  0  0  0  0  0  0  0
    5.0920   -9.2436    7.7493 H   0  0  0  0  0  0  0  0  0  0  0  0
    3.6208   -8.5582    8.3078 H   0  0  0  0  0  0  0  0  0  0  0  0
    4.9077   -8.6784    5.6758 H   0  0  0  0  0  0  0  0  0  0  0  0
    3.2878   -6.4135    1.8261 H   0  0  0  0  0  0  0  0  0  0  0  0
    2.2803   -7.4625    0.8775 H   0  0  0  0  0  0  0  0  0  0  0  0
    3.3953   -8.1461    1.9933 H   0  0  0  0  0  0  0  0  0  0  0  0
    1.0279   -5.3804    2.0520 H   0  0  0  0  0  0  0  0  0  0  0  0
   -0.1673   -5.9887    3.1828 H   0  0  0  0  0  0  0  0  0  0  0  0
   -0.0184   -6.6883    1.5815 H   0  0  0  0  0  0  0  0  0  0  0  0
  1  2  2  0
  1 45  1  0
  1 46  1  0
  2  3  1  0
  2  4  1  0
  3 47  1  0
  3 48  1  0
  3 49  1  0
  4 42  1  0
  4  5  1  0
  4 50  1  6
  5  6  1  0
  5 51  1  0
  5 52  1  0
  6  7  1  0
  6 53  1  0
  6 54  1  0
  7 41  1  0
  7  8  1  1
  7  9  1  0
  8 55  1  0
  8 56  1  0
  8 57  1  0
  9 10  1  0
  9 42  1  0
  9 58  1  1
 10 11  1  0
 10 59  1  0
 10 60  1  0
 11 33  1  0
 11 12  1  6
 11 13  1  0
 12 61  1  0
 12 62  1  0
 12 63  1  0
 13 36  1  0
 13 14  1  0
 13 64  1  6
 14 15  1  0
 14 65  1  0
 14 66  1  0
 15 16  1  0
 15 20  1  0
 15 67  1  6
 16 17  1  0
 17 18  1  0
 17 19  2  0
 18 68  1  0
 18 69  1  0
 18 70  1  0
 20 37  1  0
 20 41  1  0
 20 21  1  1
 21 22  1  0
 21 71  1  0
 21 72  1  0
 22 23  1  0
 23 31  1  0
 23 24  1  1
 23 25  1  0
 24 73  1  0
 24 74  1  0
 24 75  1  0
 25 30  1  0
 25 26  1  0
 25 76  1  1
 26 27  1  0
 26 28  1  0
 26 77  1  6
 27 78  1  0
 27 79  1  0
 27 80  1  0
 28 29  1  0
 28 81  1  0
 28 82  1  0
 29 30  1  0
 30 31  1  0
 30 83  1  1
 31 32  1  6
 31 33  1  0
 32 84  1  0
 32 85  1  0
 32 86  1  0
 33 34  1  0
 33 87  1  6
 34 35  1  0
 34 88  1  0
 34 89  1  0
 35 36  1  0
 35 90  1  0
 35 91  1  0
 36 37  1  0
 36 92  1  6
 37 38  1  6
 37 39  1  0
 38 93  1  0
 38 94  1  0
 38 95  1  0
 39 40  1  0
 39 96  1  0
 39 97  1  0
 40 41  1  0
 40 98  1  0
 40 99  1  0
 41100  1  6
 42 43  1  0
 42 44  1  0
 43101  1  0
 43102  1  0
 43103  1  0
 44104  1  0
 44105  1  0
 44106  1  0
M  END
>  <i_m_ct_stereo_status>  (364) 
1

>  <s_m_source_file>  (364) 
/var/tmp/pbs.5076255.sched01/tmpj3mqheq3/1200r5s1sfv.sdf

>  <i_m_source_file_index>  (364) 
32

>  <i_lp_mmshare_version>  (364) 
48012

>  <i_f3d_flags>  (364) 
0

>  <s_epik_input>  (364) 
W0NIMl09QyhbQ0gzXSlbQ0BASF0oQzEoW0NIM10pW0NIM10pW0NIMl1bQ0gyXVtDQEBdKFtDSDNdKShbQ0BASF0yW0NIMl1bQ0gyXTMpW0NASF0xW0NIMl1bQ0BdKFtDSDNdKShbQ0BASF0oW0NAQEhdNEMzKFtDQF0yNTYpW0NIM10pW0NIMl1bQ0BIXTVPQyg9TylbQ0gzXSlbQ0BIXShbQ0gyXVtDSDJdNClbQ0BAXTcoW0NIM10pW0NAQF0oW0NIM10pKE9bQ0gyXTYpW0NASF04W0NAQEhdN09bQ0gyXVtDQEBIXThbQ0gzXQ==

>  <s_epik_cmdline>  (364) 
J2VwaWtfcHl0aG9uJywgJy1waHQnLCAnMi4wJywgJy1waCcsICc3LjAnLCAnLXRuJywgJzgnLCAnLW1hJywgJzIwMCcsICctaW1hZScsICc8aW5maWxlLm1hZT4nLCAnLW9tYWUnLCAnPG91dGZpbGUubWFlPic=

>  <r_lp_tautomer_probability>  (364) 
1

>  <r_epik_Ionization_Penalty>  (364) 
6.24482e-11

>  <r_epik_Ionization_Penalty_Charging>  (364) 
0

>  <r_epik_Ionization_Penalty_Neutral>  (364) 
6.24482e-11

>  <r_epik_State_Penalty>  (364) 
-0

>  <r_epik_Charging_Adjusted_Penalty>  (364) 
0

>  <i_epik_Tot_Q>  (364) 
0

>  <i_epik_Tot_abs_Q>  (364) 
0

>  <s_epik_Chemistry_Notes>  (364) 
This compound has an ester and may undergo hydrolysis at high or low pH.

>  <s_lp_Force_Field>  (364) 
OPLS3e

>  <r_lp_Energy>  (364) 
363.687

>  <b_lp_Chiralities_Consistent>  (364) 
1

>  <s_lp_Variant>  (364) 
111:0-1

>  <s_i_glide_gridfile>  (364) 
pfpi4k_grid

>  <i_i_glide_lignum>  (364) 
32

>  <i_i_glide_rotatable_bonds>  (364) 
3

>  <r_i_docking_score>  (364) 
-1.88235

>  <r_i_glide_ligand_efficiency>  (364) 
-0.0427806

>  <r_i_glide_ligand_efficiency_sa>  (364) 
-0.15103

>  <r_i_glide_ligand_efficiency_ln>  (364) 
-0.393451

>  <r_i_glide_gscore>  (364) 
-1.88235

>  <r_i_glide_lipo>  (364) 
-0.409722

>  <r_i_glide_hbond>  (364) 
-0.16

>  <r_i_glide_metal>  (364) 
-0

>  <r_i_glide_rewards>  (364) 
-0.0216604

>  <r_i_glide_evdw>  (364) 
-20.9228

>  <r_i_glide_ecoul>  (364) 
-2.39355

>  <r_i_glide_erotb>  (364) 
0.114208

>  <r_i_glide_esite>  (364) 
0

>  <r_i_glide_emodel>  (364) 
-23.233

>  <r_i_glide_energy>  (364) 
-23.3163

>  <r_i_glide_einternal>  (364) 
0.0307188

>  <r_i_glide_intrahb_reward>  (364) 
-0

>  <i_i_glide_confnum>  (364) 
1

>  <i_i_glide_posenum>  (364) 
1

>  <r_i_glide_eff_state_penalty>  (364) 
0

>  <ligand_id>  (364) 
111

>  <original_smiles>  (364) 
C=C(C)C1CCC2(C)C(CC3(C)C4CC(OC(C)=O)C56COC7(C)C8C(C)COC8C7(C)C3CCC4C5(C)CCC26)C1(C)C

>  <smiles>  (364) 
[H]C([H])=C(C([H])([H])[H])C1([H])C([H])([H])C([H])([H])C2(C([H])([H])[H])C([H])(C([H])([H])C3(C([H])([H])[H])C4([H])C([H])([H])C([H])(OC(=O)C([H])([H])[H])C56C([H])([H])OC7(C([H])([H])[H])C8([H])C([H])(OC([H])([H])C8([H])C([H])([H])[H])C7(C([H])([H])[H])C3([H])C([H])([H])C([H])([H])C4([H])C5(C([H])([H])[H])C([H])([H])C([H])([H])C26[H])C1(C([H])([H])[H])C([H])([H])[H]

$$$$
111:0:1
     RDKit          3D

106113  0  0  1  0  0  0  0  0999 V2000
   -1.6126   -9.5301    2.6785 C   0  0  0  0  0  0  0  0  0  0  0  0
   -0.6039   -8.9959    3.3718 C   0  0  0  0  0  0  0  0  0  0  0  0
   -0.8794   -8.6983    4.8396 C   0  0  0  0  0  0  0  0  0  0  0  0
    0.8153   -8.7469    2.8048 C   0  0  2  0  0  0  0  0  0  0  0  0
    1.8669   -9.7139    3.4184 C   0  0  0  0  0  0  0  0  0  0  0  0
    3.1391   -9.0546    3.9745 C   0  0  0  0  0  0  0  0  0  0  0  0
    2.9465   -7.8141    4.9032 C   0  0  2  0  0  0  0  0  0  0  0  0
    2.0907   -8.3621    6.1120 C   0  0  0  0  0  0  0  0  0  0  0  0
    2.0325   -6.6499    3.9759 C   0  0  1  0  0  0  0  0  0  0  0  0
    2.2236   -4.9459    3.7411 C   0  0  0  0  0  0  0  0  0  0  0  0
    3.0908   -3.5957    4.2954 C   0  0  2  0  0  0  0  0  0  0  0  0
    2.7816   -2.5767    3.1389 C   0  0  0  0  0  0  0  0  0  0  0  0
    4.7079   -3.6230    4.2913 C   0  0  2  0  0  0  0  0  0  0  0  0
    5.2029   -4.5316    3.2064 C   0  0  0  0  0  0  0  0  0  0  0  0
    4.8599   -5.9288    3.6593 C   0  0  1  0  0  0  0  0  0  0  0  0
    5.8887   -6.8234    3.1582 O   0  0  0  0  0  0  0  0  0  0  0  0
    5.9056   -7.3391    1.9045 C   0  0  0  0  0  0  0  0  0  0  0  0
    7.0094   -8.3765    1.7201 C   0  0  0  0  0  0  0  0  0  0  0  0
    5.1399   -7.0557    0.9867 O   0  0  0  0  0  0  0  0  0  0  0  0
    4.5774   -6.0625    5.2758 C   0  0  2  0  0  0  0  0  0  0  0  0
    3.3761   -5.4879    6.3395 C   0  0  0  0  0  0  0  0  0  0  0  0
    1.9568   -5.5010    6.2646 O   0  0  0  0  0  0  0  0  0  0  0  0
    1.1223   -4.5667    6.9406 C   0  0  1  0  0  0  0  0  0  0  0  0
   -0.2665   -5.2282    6.8023 C   0  0  0  0  0  0  0  0  0  0  0  0
    1.5413   -4.0996    8.3581 C   0  0  2  0  0  0  0  0  0  0  0  0
    0.6629   -4.3593    9.5790 C   0  0  1  0  0  0  0  0  0  0  0  0
    1.4595   -4.7127   10.8409 C   0  0  0  0  0  0  0  0  0  0  0  0
   -0.1408   -3.0658    9.7122 C   0  0  0  0  0  0  0  0  0  0  0  0
   -0.0988   -2.4800    8.4145 O   0  0  0  0  0  0  0  0  0  0  0  0
    1.2150   -2.6909    7.8925 C   0  0  2  0  0  0  0  0  0  0  0  0
    1.3038   -3.1197    6.3935 C   0  0  2  0  0  0  0  0  0  0  0  0
    0.1001   -2.5695    5.5831 C   0  0  0  0  0  0  0  0  0  0  0  0
    2.6412   -2.7367    5.5996 C   0  0  1  0  0  0  0  0  0  0  0  0
    3.8685   -2.0935    6.3912 C   0  0  0  0  0  0  0  0  0  0  0  0
    5.1455   -2.9267    6.7519 C   0  0  0  0  0  0  0  0  0  0  0  0
    5.5753   -3.9053    5.6304 C   0  0  1  0  0  0  0  0  0  0  0  0
    5.8276   -5.4849    5.9317 C   0  0  2  0  0  0  0  0  0  0  0  0
    7.2438   -5.8895    5.3960 C   0  0  0  0  0  0  0  0  0  0  0  0
    5.7625   -6.3010    7.2741 C   0  0  0  0  0  0  0  0  0  0  0  0
    5.0099   -7.6604    6.9193 C   0  0  0  0  0  0  0  0  0  0  0  0
    4.4037   -7.5083    5.4490 C   0  0  1  0  0  0  0  0  0  0  0  0
    1.3267   -7.2584    2.6513 C   0  0  0  0  0  0  0  0  0  0  0  0
    2.2501   -7.2488    1.4057 C   0  0  0  0  0  0  0  0  0  0  0  0
    0.1207   -6.3984    2.2235 C   0  0  0  0  0  0  0  0  0  0  0  0
   -2.5507   -9.6828    3.1868 H   0  0  0  0  0  0  0  0  0  0  0  0
   -1.5433   -9.8259    1.6366 H   0  0  0  0  0  0  0  0  0  0  0  0
   -0.5727   -7.6720    5.0691 H   0  0  0  0  0  0  0  0  0  0  0  0
   -0.2837   -9.4052    5.4034 H   0  0  0  0  0  0  0  0  0  0  0  0
   -1.9214   -8.7695    5.1262 H   0  0  0  0  0  0  0  0  0  0  0  0
    0.7071   -9.1191    1.7653 H   0  0  0  0  0  0  0  0  0  0  0  0
    1.4089  -10.3058    4.2061 H   0  0  0  0  0  0  0  0  0  0  0  0
    2.1573  -10.4569    2.6747 H   0  0  0  0  0  0  0  0  0  0  0  0
    3.6863   -9.8407    4.5253 H   0  0  0  0  0  0  0  0  0  0  0  0
    3.8279   -8.8251    3.1480 H   0  0  0  0  0  0  0  0  0  0  0  0
    2.1285   -7.7282    6.9896 H   0  0  0  0  0  0  0  0  0  0  0  0
    2.5178   -9.3477    6.4349 H   0  0  0  0  0  0  0  0  0  0  0  0
    1.1799   -8.4717    5.8375 H   0  0  0  0  0  0  0  0  0  0  0  0
    1.1482   -6.6318    4.5692 H   0  0  0  0  0  0  0  0  0  0  0  0
    2.3929   -4.8767    2.6701 H   0  0  0  0  0  0  0  0  0  0  0  0
    1.1977   -4.6004    3.8229 H   0  0  0  0  0  0  0  0  0  0  0  0
    3.2603   -1.6113    3.2835 H   0  0  0  0  0  0  0  0  0  0  0  0
    1.7150   -2.3735    3.0531 H   0  0  0  0  0  0  0  0  0  0  0  0
    3.1078   -2.9098    2.1549 H   0  0  0  0  0  0  0  0  0  0  0  0
    5.0579   -2.6308    4.0029 H   0  0  0  0  0  0  0  0  0  0  0  0
    4.7641   -4.3196    2.2320 H   0  0  0  0  0  0  0  0  0  0  0  0
    6.2676   -4.4054    3.0519 H   0  0  0  0  0  0  0  0  0  0  0  0
    4.0356   -6.2499    3.0551 H   0  0  0  0  0  0  0  0  0  0  0  0
    6.9942   -9.1303    2.5140 H   0  0  0  0  0  0  0  0  0  0  0  0
    7.9682   -7.8573    1.7175 H   0  0  0  0  0  0  0  0  0  0  0  0
    6.8822   -8.8879    0.7612 H   0  0  0  0  0  0  0  0  0  0  0  0
    3.3543   -6.0353    7.2735 H   0  0  0  0  0  0  0  0  0  0  0  0
    3.5985   -4.5756    6.7854 H   0  0  0  0  0  0  0  0  0  0  0  0
   -1.0414   -4.6630    7.3055 H   0  0  0  0  0  0  0  0  0  0  0  0
   -0.2704   -6.2345    7.2314 H   0  0  0  0  0  0  0  0  0  0  0  0
   -0.5582   -5.3216    5.7579 H   0  0  0  0  0  0  0  0  0  0  0  0
    2.6001   -4.1984    8.5698 H   0  0  0  0  0  0  0  0  0  0  0  0
   -0.0237   -5.1793    9.3845 H   0  0  0  0  0  0  0  0  0  0  0  0
    2.1727   -3.9268   11.1006 H   0  0  0  0  0  0  0  0  0  0  0  0
    2.0165   -5.6386   10.6998 H   0  0  0  0  0  0  0  0  0  0  0  0
    0.7876   -4.8542   11.6951 H   0  0  0  0  0  0  0  0  0  0  0  0
   -1.1787   -3.2403   10.0100 H   0  0  0  0  0  0  0  0  0  0  0  0
    0.3083   -2.3789   10.4355 H   0  0  0  0  0  0  0  0  0  0  0  0
    1.8986   -1.9313    8.2606 H   0  0  0  0  0  0  0  0  0  0  0  0
    0.1365   -1.4856    5.4639 H   0  0  0  0  0  0  0  0  0  0  0  0
   -0.8544   -2.7603    6.0718 H   0  0  0  0  0  0  0  0  0  0  0  0
    0.0055   -3.0061    4.5898 H   0  0  0  0  0  0  0  0  0  0  0  0
    2.3075   -1.7805    5.2052 H   0  0  0  0  0  0  0  0  0  0  0  0
    4.2505   -1.3126    5.7253 H   0  0  0  0  0  0  0  0  0  0  0  0
    3.5774   -1.5047    7.2485 H   0  0  0  0  0  0  0  0  0  0  0  0
    5.9492   -2.2034    6.9120 H   0  0  0  0  0  0  0  0  0  0  0  0
    5.0648   -3.4199    7.7229 H   0  0  0  0  0  0  0  0  0  0  0  0
    6.5697   -3.5475    5.3990 H   0  0  0  0  0  0  0  0  0  0  0  0
    8.0209   -5.5549    6.0830 H   0  0  0  0  0  0  0  0  0  0  0  0
    7.5120   -5.4564    4.4381 H   0  0  0  0  0  0  0  0  0  0  0  0
    7.3573   -6.9732    5.3029 H   0  0  0  0  0  0  0  0  0  0  0  0
    6.7390   -6.5252    7.6916 H   0  0  0  0  0  0  0  0  0  0  0  0
    5.2634   -5.7524    8.0737 H   0  0  0  0  0  0  0  0  0  0  0  0
    5.7077   -8.4939    6.9267 H   0  0  0  0  0  0  0  0  0  0  0  0
    4.2669   -7.9193    7.6670 H   0  0  0  0  0  0  0  0  0  0  0  0
    5.1526   -8.0985    4.8822 H   0  0  0  0  0  0  0  0  0  0  0  0
    2.7388   -6.2996    1.2164 H   0  0  0  0  0  0  0  0  0  0  0  0
    1.6607   -7.4508    0.5035 H   0  0  0  0  0  0  0  0  0  0  0  0
    3.0096   -8.0159    1.4480 H   0  0  0  0  0  0  0  0  0  0  0  0
    0.4614   -5.4837    1.7399 H   0  0  0  0  0  0  0  0  0  0  0  0
   -0.4996   -6.1374    3.0757 H   0  0  0  0  0  0  0  0  0  0  0  0
   -0.5154   -6.9103    1.4919 H   0  0  0  0  0  0  0  0  0  0  0  0
  1  2  2  0
  1 45  1  0
  1 46  1  0
  2  3  1  0
  2  4  1  0
  3 47  1  0
  3 48  1  0
  3 49  1  0
  4 42  1  0
  4  5  1  0
  4 50  1  6
  5  6  1  0
  5 51  1  0
  5 52  1  0
  6  7  1  0
  6 53  1  0
  6 54  1  0
  7 41  1  0
  7  8  1  1
  7  9  1  0
  8 55  1  0
  8 56  1  0
  8 57  1  0
  9 10  1  0
  9 42  1  0
  9 58  1  1
 10 11  1  0
 10 59  1  0
 10 60  1  0
 11 33  1  0
 11 12  1  6
 11 13  1  0
 12 61  1  0
 12 62  1  0
 12 63  1  0
 13 36  1  0
 13 14  1  0
 13 64  1  6
 14 15  1  0
 14 65  1  0
 14 66  1  0
 15 16  1  0
 15 20  1  0
 15 67  1  6
 16 17  1  0
 17 18  1  0
 17 19  2  0
 18 68  1  0
 18 69  1  0
 18 70  1  0
 20 37  1  0
 20 41  1  0
 20 21  1  1
 21 22  1  0
 21 71  1  0
 21 72  1  0
 22 23  1  0
 23 31  1  0
 23 24  1  1
 23 25  1  0
 24 73  1  0
 24 74  1  0
 24 75  1  0
 25 30  1  0
 25 26  1  0
 25 76  1  1
 26 27  1  0
 26 28  1  0
 26 77  1  6
 27 78  1  0
 27 79  1  0
 27 80  1  0
 28 29  1  0
 28 81  1  0
 28 82  1  0
 29 30  1  0
 30 31  1  0
 30 83  1  6
 31 32  1  6
 31 33  1  0
 32 84  1  0
 32 85  1  0
 32 86  1  0
 33 34  1  0
 33 87  1  6
 34 35  1  0
 34 88  1  0
 34 89  1  0
 35 36  1  0
 35 90  1  0
 35 91  1  0
 36 37  1  0
 36 92  1  6
 37 38  1  6
 37 39  1  0
 38 93  1  0
 38 94  1  0
 38 95  1  0
 39 40  1  0
 39 96  1  0
 39 97  1  0
 40 41  1  0
 40 98  1  0
 40 99  1  0
 41100  1  6
 42 43  1  0
 42 44  1  0
 43101  1  0
 43102  1  0
 43103  1  0
 44104  1  0
 44105  1  0
 44106  1  0
M  END
>  <i_m_ct_stereo_status>  (365) 
1

>  <s_m_source_file>  (365) 
/var/tmp/pbs.5076255.sched01/tmpj3mqheq3/1200r5s1sfv.sdf

>  <i_m_source_file_index>  (365) 
32

>  <i_lp_mmshare_version>  (365) 
48012

>  <i_f3d_flags>  (365) 
0

>  <s_epik_input>  (365) 
W0NIMl09QyhbQ0gzXSlbQ0BASF0oQzEoW0NIM10pW0NIM10pW0NIMl1bQ0gyXVtDQEBdKFtDSDNdKShbQ0BASF0yW0NIMl1bQ0gyXTMpW0NASF0xW0NIMl1bQ0BdKFtDSDNdKShbQ0BASF0oW0NAQEhdNEMzKFtDQF0yNTYpW0NIM10pW0NIMl1bQ0BIXTVPQyg9TylbQ0gzXSlbQ0BIXShbQ0gyXVtDSDJdNClbQ0BAXTcoW0NIM10pW0NAQF0oW0NIM10pKE9bQ0gyXTYpW0NASF04W0NAQEhdN09bQ0gyXVtDQEBIXThbQ0gzXQ==

>  <s_epik_cmdline>  (365) 
J2VwaWtfcHl0aG9uJywgJy1waHQnLCAnMi4wJywgJy1waCcsICc3LjAnLCAnLXRuJywgJzgnLCAnLW1hJywgJzIwMCcsICctaW1hZScsICc8aW5maWxlLm1hZT4nLCAnLW9tYWUnLCAnPG91dGZpbGUubWFlPic=

>  <r_lp_tautomer_probability>  (365) 
1

>  <r_epik_Ionization_Penalty>  (365) 
6.24482e-11

>  <r_epik_Ionization_Penalty_Charging>  (365) 
0

>  <r_epik_Ionization_Penalty_Neutral>  (365) 
6.24482e-11

>  <r_epik_State_Penalty>  (365) 
-0

>  <r_epik_Charging_Adjusted_Penalty>  (365) 
0

>  <i_epik_Tot_Q>  (365) 
0

>  <i_epik_Tot_abs_Q>  (365) 
0

>  <s_epik_Chemistry_Notes>  (365) 
This compound has an ester and may undergo hydrolysis at high or low pH.

>  <s_lp_Force_Field>  (365) 
OPLS3e

>  <r_lp_Energy>  (365) 
363.687

>  <b_lp_Chiralities_Consistent>  (365) 
1

>  <s_lp_Variant>  (365) 
111:0-1

>  <s_i_glide_gridfile>  (365) 
pfpi4k_grid

>  <i_i_glide_lignum>  (365) 
32

>  <i_i_glide_rotatable_bonds>  (365) 
3

>  <r_i_docking_score>  (365) 
-1.74683

>  <r_i_glide_ligand_efficiency>  (365) 
-0.0397006

>  <r_i_glide_ligand_efficiency_sa>  (365) 
-0.140157

>  <r_i_glide_ligand_efficiency_ln>  (365) 
-0.365125

>  <r_i_glide_gscore>  (365) 
-1.74683

>  <r_i_glide_lipo>  (365) 
-0.316319

>  <r_i_glide_hbond>  (365) 
-0.155567

>  <r_i_glide_metal>  (365) 
-0

>  <r_i_glide_rewards>  (365) 
-0.0835694

>  <r_i_glide_evdw>  (365) 
-21.033

>  <r_i_glide_ecoul>  (365) 
-1.69286

>  <r_i_glide_erotb>  (365) 
0.114208

>  <r_i_glide_esite>  (365) 
0

>  <r_i_glide_emodel>  (365) 
-21.8818

>  <r_i_glide_energy>  (365) 
-22.7259

>  <r_i_glide_einternal>  (365) 
0.163354

>  <r_i_glide_intrahb_reward>  (365) 
-0

>  <i_i_glide_confnum>  (365) 
1

>  <i_i_glide_posenum>  (365) 
27

>  <r_i_glide_eff_state_penalty>  (365) 
0

>  <ligand_id>  (365) 
111

>  <original_smiles>  (365) 
C=C(C)C1CCC2(C)C(CC3(C)C4CC(OC(C)=O)C56COC7(C)C8C(C)COC8C7(C)C3CCC4C5(C)CCC26)C1(C)C

>  <smiles>  (365) 
[H]C([H])=C(C([H])([H])[H])C1([H])C([H])([H])C([H])([H])C2(C([H])([H])[H])C([H])(C([H])([H])C3(C([H])([H])[H])C4([H])C([H])([H])C([H])(OC(=O)C([H])([H])[H])C56C([H])([H])OC7(C([H])([H])[H])C8([H])C([H])(OC([H])([H])C8([H])C([H])([H])[H])C7(C([H])([H])[H])C3([H])C([H])([H])C([H])([H])C4([H])C5(C([H])([H])[H])C([H])([H])C([H])([H])C26[H])C1(C([H])([H])[H])C([H])([H])[H]

$$$$
111:0:2
     RDKit          3D

106113  0  0  1  0  0  0  0  0999 V2000
   -1.3135    1.1304    2.2878 C   0  0  0  0  0  0  0  0  0  0  0  0
   -1.7978    1.9474    3.2378 C   0  0  0  0  0  0  0  0  0  0  0  0
   -2.8666    2.9706    2.8889 C   0  0  0  0  0  0  0  0  0  0  0  0
   -1.3695    1.9647    4.7141 C   0  0  2  0  0  0  0  0  0  0  0  0
   -0.4926    3.1993    5.0070 C   0  0  0  0  0  0  0  0  0  0  0  0
    0.8247    2.9079    5.7358 C   0  0  0  0  0  0  0  0  0  0  0  0
    1.6471    1.7132    5.1741 C   0  0  2  0  0  0  0  0  0  0  0  0
    1.9482    2.1495    3.7060 C   0  0  0  0  0  0  0  0  0  0  0  0
    0.6649    0.3078    5.2315 C   0  0  1  0  0  0  0  0  0  0  0  0
    0.9491   -1.2986    5.7756 C   0  0  0  0  0  0  0  0  0  0  0  0
    2.1800   -2.3393    6.3101 C   0  0  2  0  0  0  0  0  0  0  0  0
    1.3024   -3.4864    6.9356 C   0  0  0  0  0  0  0  0  0  0  0  0
    3.1231   -1.9229    7.5570 C   0  0  2  0  0  0  0  0  0  0  0  0
    2.3799   -1.0068    8.4795 C   0  0  0  0  0  0  0  0  0  0  0  0
    2.2407    0.2924    7.7137 C   0  0  1  0  0  0  0  0  0  0  0  0
    2.2767    1.3523    8.6925 O   0  0  0  0  0  0  0  0  0  0  0  0
    1.2196    1.7018    9.4626 C   0  0  0  0  0  0  0  0  0  0  0  0
    1.5119    2.9264   10.3244 C   0  0  0  0  0  0  0  0  0  0  0  0
    0.1316    1.1238    9.5122 O   0  0  0  0  0  0  0  0  0  0  0  0
    3.2949    0.4735    6.4672 C   0  0  2  0  0  0  0  0  0  0  0  0
    3.5539   -0.2958    4.9757 C   0  0  0  0  0  0  0  0  0  0  0  0
    2.6619   -0.6382    3.9348 O   0  0  0  0  0  0  0  0  0  0  0  0
    2.8951   -1.6967    3.0194 C   0  0  1  0  0  0  0  0  0  0  0  0
    1.8388   -1.4082    1.9403 C   0  0  0  0  0  0  0  0  0  0  0  0
    4.3504   -1.9388    2.5325 C   0  0  2  0  0  0  0  0  0  0  0  0
    4.7311   -1.8131    1.0618 C   0  0  1  0  0  0  0  0  0  0  0  0
    6.1182   -1.1960    0.8336 C   0  0  0  0  0  0  0  0  0  0  0  0
    4.6235   -3.2539    0.5485 C   0  0  0  0  0  0  0  0  0  0  0  0
    3.7664   -3.8983    1.4815 O   0  0  0  0  0  0  0  0  0  0  0  0
    4.0860   -3.4124    2.7824 C   0  0  2  0  0  0  0  0  0  0  0  0
    2.8804   -3.0929    3.7137 C   0  0  2  0  0  0  0  0  0  0  0  0
    1.6615   -3.9858    3.3796 C   0  0  0  0  0  0  0  0  0  0  0  0
    3.1140   -3.1920    5.2870 C   0  0  1  0  0  0  0  0  0  0  0  0
    4.5825   -3.4692    5.8515 C   0  0  0  0  0  0  0  0  0  0  0  0
    5.4416   -2.3229    6.4767 C   0  0  0  0  0  0  0  0  0  0  0  0
    4.6150   -1.3409    7.3516 C   0  0  1  0  0  0  0  0  0  0  0  0
    4.6652    0.2705    7.1220 C   0  0  2  0  0  0  0  0  0  0  0  0
    5.0063    0.9551    8.4856 C   0  0  0  0  0  0  0  0  0  0  0  0
    5.5075    1.1334    6.1202 C   0  0  0  0  0  0  0  0  0  0  0  0
    4.4923    2.2324    5.5517 C   0  0  0  0  0  0  0  0  0  0  0  0
    3.0358    1.8279    6.0064 C   0  0  1  0  0  0  0  0  0  0  0  0
   -0.9037    0.6254    5.4122 C   0  0  0  0  0  0  0  0  0  0  0  0
   -1.3384    0.7784    6.8947 C   0  0  0  0  0  0  0  0  0  0  0  0
   -1.7771   -0.5598    4.9093 C   0  0  0  0  0  0  0  0  0  0  0  0
   -1.6890    1.1907    1.2786 H   0  0  0  0  0  0  0  0  0  0  0  0
   -0.5492    0.4041    2.4720 H   0  0  0  0  0  0  0  0  0  0  0  0
   -2.5239    3.9831    3.1072 H   0  0  0  0  0  0  0  0  0  0  0  0
   -3.7799    2.7839    3.4546 H   0  0  0  0  0  0  0  0  0  0  0  0
   -3.1252    2.9255    1.8319 H   0  0  0  0  0  0  0  0  0  0  0  0
   -2.3257    2.1866    5.1916 H   0  0  0  0  0  0  0  0  0  0  0  0
   -0.2665    3.7155    4.0754 H   0  0  0  0  0  0  0  0  0  0  0  0
   -1.0600    3.9171    5.5976 H   0  0  0  0  0  0  0  0  0  0  0  0
    1.4232    3.8216    5.6867 H   0  0  0  0  0  0  0  0  0  0  0  0
    0.6540    2.7783    6.7988 H   0  0  0  0  0  0  0  0  0  0  0  0
    2.7240    1.5778    3.2049 H   0  0  0  0  0  0  0  0  0  0  0  0
    2.2812    3.1889    3.6615 H   0  0  0  0  0  0  0  0  0  0  0  0
    1.0678    2.0827    3.0711 H   0  0  0  0  0  0  0  0  0  0  0  0
    0.6116    0.1155    4.1678 H   0  0  0  0  0  0  0  0  0  0  0  0
    0.2348   -1.3950    6.5808 H   0  0  0  0  0  0  0  0  0  0  0  0
    0.4897   -1.8873    4.9890 H   0  0  0  0  0  0  0  0  0  0  0  0
    1.9058   -4.2944    7.3581 H   0  0  0  0  0  0  0  0  0  0  0  0
    0.6529   -3.9447    6.1871 H   0  0  0  0  0  0  0  0  0  0  0  0
    0.6587   -3.1524    7.7498 H   0  0  0  0  0  0  0  0  0  0  0  0
    3.3034   -2.8265    8.1425 H   0  0  0  0  0  0  0  0  0  0  0  0
    1.4028   -1.3868    8.7746 H   0  0  0  0  0  0  0  0  0  0  0  0
    2.9366   -0.8919    9.4063 H   0  0  0  0  0  0  0  0  0  0  0  0
    1.2162    0.3664    7.4084 H   0  0  0  0  0  0  0  0  0  0  0  0
    1.9400    3.7424    9.7398 H   0  0  0  0  0  0  0  0  0  0  0  0
    2.2126    2.6668   11.1183 H   0  0  0  0  0  0  0  0  0  0  0  0
    0.5973    3.2965   10.7880 H   0  0  0  0  0  0  0  0  0  0  0  0
    4.1494    0.2876    4.2868 H   0  0  0  0  0  0  0  0  0  0  0  0
    4.2259   -1.0923    5.0075 H   0  0  0  0  0  0  0  0  0  0  0  0
    1.8871   -2.1042    1.1018 H   0  0  0  0  0  0  0  0  0  0  0  0
    1.9562   -0.4057    1.5225 H   0  0  0  0  0  0  0  0  0  0  0  0
    0.8324   -1.4688    2.3509 H   0  0  0  0  0  0  0  0  0  0  0  0
    5.1284   -1.5866    3.2039 H   0  0  0  0  0  0  0  0  0  0  0  0
    4.0086   -1.2009    0.5221 H   0  0  0  0  0  0  0  0  0  0  0  0
    6.8998   -1.7608    1.3364 H   0  0  0  0  0  0  0  0  0  0  0  0
    6.1429   -0.1798    1.2133 H   0  0  0  0  0  0  0  0  0  0  0  0
    6.3598   -1.1594   -0.2287 H   0  0  0  0  0  0  0  0  0  0  0  0
    4.2240   -3.3179   -0.4665 H   0  0  0  0  0  0  0  0  0  0  0  0
    5.5905   -3.7555    0.5648 H   0  0  0  0  0  0  0  0  0  0  0  0
    4.9438   -3.9522    3.1712 H   0  0  0  0  0  0  0  0  0  0  0  0
    1.8260   -5.0280    3.6532 H   0  0  0  0  0  0  0  0  0  0  0  0
    1.4473   -3.9997    2.3139 H   0  0  0  0  0  0  0  0  0  0  0  0
    0.7461   -3.6513    3.8571 H   0  0  0  0  0  0  0  0  0  0  0  0
    2.8112   -4.2280    5.4221 H   0  0  0  0  0  0  0  0  0  0  0  0
    4.4531   -4.1887    6.6642 H   0  0  0  0  0  0  0  0  0  0  0  0
    5.2115   -4.0282    5.1728 H   0  0  0  0  0  0  0  0  0  0  0  0
    6.2030   -2.7909    7.1050 H   0  0  0  0  0  0  0  0  0  0  0  0
    6.0284   -1.8038    5.7205 H   0  0  0  0  0  0  0  0  0  0  0  0
    5.0809   -1.4712    8.3282 H   0  0  0  0  0  0  0  0  0  0  0  0
    6.0671    0.8647    8.7077 H   0  0  0  0  0  0  0  0  0  0  0  0
    4.5112    0.5288    9.3500 H   0  0  0  0  0  0  0  0  0  0  0  0
    4.7772    2.0195    8.4724 H   0  0  0  0  0  0  0  0  0  0  0  0
    6.3588    1.6231    6.5916 H   0  0  0  0  0  0  0  0  0  0  0  0
    5.9641    0.5363    5.3304 H   0  0  0  0  0  0  0  0  0  0  0  0
    4.7400    3.2069    5.9759 H   0  0  0  0  0  0  0  0  0  0  0  0
    4.6009    2.3525    4.4755 H   0  0  0  0  0  0  0  0  0  0  0  0
    2.8916    2.5128    6.8369 H   0  0  0  0  0  0  0  0  0  0  0  0
   -0.9863   -0.0272    7.5290 H   0  0  0  0  0  0  0  0  0  0  0  0
   -2.4279    0.7881    6.9769 H   0  0  0  0  0  0  0  0  0  0  0  0
   -1.0083    1.7036    7.3479 H   0  0  0  0  0  0  0  0  0  0  0  0
   -1.7845   -1.3971    5.6092 H   0  0  0  0  0  0  0  0  0  0  0  0
   -1.4327   -0.9529    3.9568 H   0  0  0  0  0  0  0  0  0  0  0  0
   -2.8202   -0.2648    4.7945 H   0  0  0  0  0  0  0  0  0  0  0  0
  1  2  2  0
  1 45  1  0
  1 46  1  0
  2  3  1  0
  2  4  1  0
  3 47  1  0
  3 48  1  0
  3 49  1  0
  4 42  1  0
  4  5  1  0
  4 50  1  1
  5  6  1  0
  5 51  1  0
  5 52  1  0
  6  7  1  0
  6 53  1  0
  6 54  1  0
  7 41  1  0
  7  8  1  6
  7  9  1  0
  8 55  1  0
  8 56  1  0
  8 57  1  0
  9 10  1  0
  9 42  1  0
  9 58  1  6
 10 11  1  0
 10 59  1  0
 10 60  1  0
 11 33  1  0
 11 12  1  1
 11 13  1  0
 12 61  1  0
 12 62  1  0
 12 63  1  0
 13 36  1  0
 13 14  1  0
 13 64  1  1
 14 15  1  0
 14 65  1  0
 14 66  1  0
 15 16  1  0
 15 20  1  0
 15 67  1  6
 16 17  1  0
 17 18  1  0
 17 19  2  0
 18 68  1  0
 18 69  1  0
 18 70  1  0
 20 37  1  0
 20 41  1  0
 20 21  1  6
 21 22  1  0
 21 71  1  0
 21 72  1  0
 22 23  1  0
 23 31  1  0
 23 24  1  6
 23 25  1  0
 24 73  1  0
 24 74  1  0
 24 75  1  0
 25 30  1  0
 25 26  1  0
 25 76  1  1
 26 27  1  0
 26 28  1  0
 26 77  1  6
 27 78  1  0
 27 79  1  0
 27 80  1  0
 28 29  1  0
 28 81  1  0
 28 82  1  0
 29 30  1  0
 30 31  1  0
 30 83  1  1
 31 32  1  6
 31 33  1  0
 32 84  1  0
 32 85  1  0
 32 86  1  0
 33 34  1  0
 33 87  1  1
 34 35  1  0
 34 88  1  0
 34 89  1  0
 35 36  1  0
 35 90  1  0
 35 91  1  0
 36 37  1  0
 36 92  1  1
 37 38  1  1
 37 39  1  0
 38 93  1  0
 38 94  1  0
 38 95  1  0
 39 40  1  0
 39 96  1  0
 39 97  1  0
 40 41  1  0
 40 98  1  0
 40 99  1  0
 41100  1  1
 42 43  1  0
 42 44  1  0
 43101  1  0
 43102  1  0
 43103  1  0
 44104  1  0
 44105  1  0
 44106  1  0
M  END
>  <i_m_ct_stereo_status>  (366) 
1

>  <s_m_source_file>  (366) 
/var/tmp/pbs.5076255.sched01/tmpj3mqheq3/1200r5s1sfv.sdf

>  <i_m_source_file_index>  (366) 
32

>  <i_lp_mmshare_version>  (366) 
48012

>  <i_f3d_flags>  (366) 
0

>  <s_epik_input>  (366) 
W0NIMl09QyhbQ0gzXSlbQ0BASF0oQzEoW0NIM10pW0NIM10pW0NIMl1bQ0gyXVtDQEBdKFtDSDNdKShbQ0BASF0yW0NIMl1bQ0gyXTMpW0NASF0xW0NIMl1bQ0BdKFtDSDNdKShbQ0BASF0oW0NAQEhdNEMzKFtDQF0yNTYpW0NIM10pW0NIMl1bQ0BIXTVPQyg9TylbQ0gzXSlbQ0BIXShbQ0gyXVtDSDJdNClbQ0BAXTcoW0NIM10pW0NAQF0oW0NIM10pKE9bQ0gyXTYpW0NASF04W0NAQEhdN09bQ0gyXVtDQEBIXThbQ0gzXQ==

>  <s_epik_cmdline>  (366) 
J2VwaWtfcHl0aG9uJywgJy1waHQnLCAnMi4wJywgJy1waCcsICc3LjAnLCAnLXRuJywgJzgnLCAnLW1hJywgJzIwMCcsICctaW1hZScsICc8aW5maWxlLm1hZT4nLCAnLW9tYWUnLCAnPG91dGZpbGUubWFlPic=

>  <r_lp_tautomer_probability>  (366) 
1

>  <r_epik_Ionization_Penalty>  (366) 
6.24482e-11

>  <r_epik_Ionization_Penalty_Charging>  (366) 
0

>  <r_epik_Ionization_Penalty_Neutral>  (366) 
6.24482e-11

>  <r_epik_State_Penalty>  (366) 
-0

>  <r_epik_Charging_Adjusted_Penalty>  (366) 
0

>  <i_epik_Tot_Q>  (366) 
0

>  <i_epik_Tot_abs_Q>  (366) 
0

>  <s_epik_Chemistry_Notes>  (366) 
This compound has an ester and may undergo hydrolysis at high or low pH.

>  <s_lp_Force_Field>  (366) 
OPLS3e

>  <r_lp_Energy>  (366) 
363.687

>  <b_lp_Chiralities_Consistent>  (366) 
1

>  <s_lp_Variant>  (366) 
111:0-1

>  <s_i_glide_gridfile>  (366) 
pfpi4k_grid

>  <i_i_glide_lignum>  (366) 
32

>  <i_i_glide_rotatable_bonds>  (366) 
3

>  <r_i_docking_score>  (366) 
-1.29866

>  <r_i_glide_ligand_efficiency>  (366) 
-0.029515

>  <r_i_glide_ligand_efficiency_sa>  (366) 
-0.104198

>  <r_i_glide_ligand_efficiency_ln>  (366) 
-0.271448

>  <r_i_glide_gscore>  (366) 
-1.29866

>  <r_i_glide_lipo>  (366) 
-0.261224

>  <r_i_glide_hbond>  (366) 
0

>  <r_i_glide_metal>  (366) 
-0

>  <r_i_glide_rewards>  (366) 
0

>  <r_i_glide_evdw>  (366) 
-24.0192

>  <r_i_glide_ecoul>  (366) 
0.328791

>  <r_i_glide_erotb>  (366) 
0.114208

>  <r_i_glide_esite>  (366) 
0

>  <r_i_glide_emodel>  (366) 
-25.1863

>  <r_i_glide_energy>  (366) 
-23.6904

>  <r_i_glide_einternal>  (366) 
0.39307

>  <r_i_glide_intrahb_reward>  (366) 
-0

>  <i_i_glide_confnum>  (366) 
2

>  <i_i_glide_posenum>  (366) 
3

>  <r_i_glide_eff_state_penalty>  (366) 
0

>  <ligand_id>  (366) 
111

>  <original_smiles>  (366) 
C=C(C)C1CCC2(C)C(CC3(C)C4CC(OC(C)=O)C56COC7(C)C8C(C)COC8C7(C)C3CCC4C5(C)CCC26)C1(C)C

>  <smiles>  (366) 
[H]C([H])=C(C([H])([H])[H])C1([H])C([H])([H])C([H])([H])C2(C([H])([H])[H])C([H])(C([H])([H])C3(C([H])([H])[H])C4([H])C([H])([H])C([H])(OC(=O)C([H])([H])[H])C56C([H])([H])OC7(C([H])([H])[H])C8([H])C([H])(OC([H])([H])C8([H])C([H])([H])[H])C7(C([H])([H])[H])C3([H])C([H])([H])C([H])([H])C4([H])C5(C([H])([H])[H])C([H])([H])C([H])([H])C26[H])C1(C([H])([H])[H])C([H])([H])[H]

$$$$
112:0:0
     RDKit          3D

 36 39  0  0  1  0  0  0  0  0999 V2000
    3.2323    0.8109   -5.3639 C   0  0  0  0  0  0  0  0  0  0  0  0
    3.6084   -0.2532   -4.3452 C   0  0  0  0  0  0  0  0  0  0  0  0
    4.1426    0.0163   -3.1570 N   0  0  0  0  0  0  0  0  0  0  0  0
    4.3462   -1.0899   -2.4596 C   0  0  0  0  0  0  0  0  0  0  0  0
    4.8041   -1.0311   -1.1454 N   0  0  0  0  0  0  0  0  0  0  0  0
    5.1473   -2.2072   -0.3316 C   0  0  2  0  0  0  0  0  0  0  0  0
    5.5600   -1.7378    1.0920 C   0  0  0  0  0  0  0  0  0  0  0  0
    5.9321   -2.9608    1.9679 C   0  0  1  0  0  0  0  0  0  0  0  0
    4.7301   -3.9180    2.0857 C   0  0  0  0  0  0  0  0  0  0  0  0
    4.3462   -4.3963    0.6821 C   0  0  2  0  0  0  0  0  0  0  0  0
    5.5349   -5.1128   -0.0001 C   0  0  0  0  0  0  0  0  0  0  0  0
    6.7421   -4.1545   -0.0748 C   0  0  2  0  0  0  0  0  0  0  0  0
    7.1220   -3.7003    1.3290 C   0  0  0  0  0  0  0  0  0  0  0  0
    6.3762   -2.9372   -0.9473 C   0  0  0  0  0  0  0  0  0  0  0  0
    3.9341   -3.1810   -0.1521 C   0  0  0  0  0  0  0  0  0  0  0  0
    3.9662   -2.5113   -3.4052 S   0  0  0  0  0  0  0  0  0  0  0  0
    3.4431   -1.5338   -4.6575 N   0  0  0  0  0  0  0  0  0  0  0  0
    3.4351    1.8129   -4.9941 H   0  0  0  0  0  0  0  0  0  0  0  0
    2.1789    0.7131   -5.5830 H   0  0  0  0  0  0  0  0  0  0  0  0
    3.8040    0.6069   -6.2606 H   0  0  0  0  0  0  0  0  0  0  0  0
    6.4111   -1.0462    1.0638 H   0  0  0  0  0  0  0  0  0  0  0  0
    4.7408   -1.1978    1.5742 H   0  0  0  0  0  0  0  0  0  0  0  0
    6.2079   -2.6140    2.9601 H   0  0  0  0  0  0  0  0  0  0  0  0
    4.9648   -4.7758    2.7239 H   0  0  0  0  0  0  0  0  0  0  0  0
    3.8834   -3.3960    2.5334 H   0  0  0  0  0  0  0  0  0  0  0  0
    3.5006   -5.0776    0.7381 H   0  0  0  0  0  0  0  0  0  0  0  0
    5.8057   -6.0169    0.5487 H   0  0  0  0  0  0  0  0  0  0  0  0
    5.2443   -5.4379   -1.0008 H   0  0  0  0  0  0  0  0  0  0  0  0
    7.6292   -4.6453   -0.4645 H   0  0  0  0  0  0  0  0  0  0  0  0
    7.9966   -3.0551    1.2700 H   0  0  0  0  0  0  0  0  0  0  0  0
    7.4107   -4.5679    1.9289 H   0  0  0  0  0  0  0  0  0  0  0  0
    6.1835   -3.2852   -1.9568 H   0  0  0  0  0  0  0  0  0  0  0  0
    7.2327   -2.2658   -1.0228 H   0  0  0  0  0  0  0  0  0  0  0  0
    3.0872   -2.6567    0.2941 H   0  0  0  0  0  0  0  0  0  0  0  0
    3.5687   -3.6502   -1.0602 H   0  0  0  0  0  0  0  0  0  0  0  0
    4.9163   -0.0938   -0.7410 H   0  0  0  0  0  0  0  0  0  0  0  0
  1  2  1  0
  1 18  1  0
  1 19  1  0
  1 20  1  0
  2 17  2  0
  2  3  1  0
  3  4  2  0
  4  5  1  0
  4 16  1  0
  6  5  1  6
  5 36  1  0
  6 14  1  0
  6 15  1  0
  6  7  1  0
  7  8  1  0
  7 21  1  0
  7 22  1  0
  8 13  1  0
  8  9  1  0
  8 23  1  1
  9 10  1  0
  9 24  1  0
  9 25  1  0
 10 11  1  0
 10 15  1  0
 10 26  1  1
 11 12  1  0
 11 27  1  0
 11 28  1  0
 12 13  1  0
 12 14  1  0
 12 29  1  6
 13 30  1  0
 13 31  1  0
 14 32  1  0
 14 33  1  0
 15 34  1  0
 15 35  1  0
 16 17  1  0
M  END
>  <i_m_ct_stereo_status>  (367) 
1

>  <s_m_source_file>  (367) 
/var/tmp/pbs.5076255.sched01/tmpj3mqheq3/1200r5s1sfv.sdf

>  <i_m_source_file_index>  (367) 
34

>  <i_lp_mmshare_version>  (367) 
48012

>  <i_f3d_flags>  (367) 
0

>  <s_epik_input>  (367) 
W0NIM11jMW4vYyhzW25IXTEpPU4vQzIzW0NIMl1bQ0BIXTRbQ0gyXVtDQEBIXShbQ0gyXTMpW0NIMl1bQ0BIXShbQ0gyXTQpW0NIMl0y

>  <s_epik_cmdline>  (367) 
J2VwaWtfcHl0aG9uJywgJy1waHQnLCAnMi4wJywgJy1waCcsICc3LjAnLCAnLXRuJywgJzgnLCAnLW1hJywgJzIwMCcsICctaW1hZScsICc8aW5maWxlLm1hZT4nLCAnLW9tYWUnLCAnPG91dGZpbGUubWFlPic=

>  <r_lp_tautomer_probability>  (367) 
1

>  <r_epik_Ionization_Penalty>  (367) 
8.32671e-05

>  <r_epik_Ionization_Penalty_Charging>  (367) 
0

>  <r_epik_Ionization_Penalty_Neutral>  (367) 
8.32671e-05

>  <r_epik_State_Penalty>  (367) 
-0

>  <r_epik_Charging_Adjusted_Penalty>  (367) 
0

>  <i_epik_Tot_Q>  (367) 
0

>  <i_epik_Tot_abs_Q>  (367) 
0

>  <s_lp_Force_Field>  (367) 
OPLS3e

>  <r_lp_Energy>  (367) 
0.744585

>  <b_lp_Chiralities_Consistent>  (367) 
1

>  <s_lp_Variant>  (367) 
112:0-1

>  <s_i_glide_gridfile>  (367) 
pfpi4k_grid

>  <i_i_glide_lignum>  (367) 
34

>  <i_i_glide_rotatable_bonds>  (367) 
2

>  <r_i_docking_score>  (367) 
-4.18351

>  <r_i_glide_ligand_efficiency>  (367) 
-0.246089

>  <r_i_glide_ligand_efficiency_sa>  (367) 
-0.632764

>  <r_i_glide_ligand_efficiency_ln>  (367) 
-1.09138

>  <r_i_glide_gscore>  (367) 
-4.18351

>  <r_i_glide_lipo>  (367) 
-0.814461

>  <r_i_glide_hbond>  (367) 
-0.476627

>  <r_i_glide_metal>  (367) 
-0

>  <r_i_glide_rewards>  (367) 
-2.10614

>  <r_i_glide_evdw>  (367) 
-21.0342

>  <r_i_glide_ecoul>  (367) 
-1.68912

>  <r_i_glide_erotb>  (367) 
0.562404

>  <r_i_glide_esite>  (367) 
-0.0436018

>  <r_i_glide_emodel>  (367) 
-27.8261

>  <r_i_glide_energy>  (367) 
-22.7234

>  <r_i_glide_einternal>  (367) 
1.53877

>  <r_i_glide_intrahb_reward>  (367) 
-0

>  <i_i_glide_confnum>  (367) 
5

>  <i_i_glide_posenum>  (367) 
1

>  <r_i_glide_eff_state_penalty>  (367) 
0

>  <ligand_id>  (367) 
112

>  <original_smiles>  (367) 
Cc1nc(=NC23CC4CC(CC(C4)C2)C3)s[nH]1

>  <smiles>  (367) 
[H]N(c1nc(C([H])([H])[H])ns1)C12C([H])([H])C3([H])C([H])([H])C([H])(C([H])([H])C([H])(C3([H])[H])C1([H])[H])C2([H])[H]

$$$$
112:0:1
     RDKit          3D

 36 39  0  0  1  0  0  0  0  0999 V2000
    3.3442    0.5624   -5.0357 C   0  0  0  0  0  0  0  0  0  0  0  0
    3.6594   -0.5156   -4.0339 C   0  0  0  0  0  0  0  0  0  0  0  0
    4.2198   -0.2936   -2.8298 N   0  0  0  0  0  0  0  0  0  0  0  0
    4.3123   -1.4228   -2.1333 C   0  0  0  0  0  0  0  0  0  0  0  0
    4.8244   -1.3923   -0.8427 N   0  0  0  0  0  0  0  0  0  0  0  0
    4.8175   -2.5587    0.0494 C   0  0  2  0  0  0  0  0  0  0  0  0
    5.3781   -2.1432    1.4384 C   0  0  0  0  0  0  0  0  0  0  0  0
    5.4079   -3.3572    2.3964 C   0  0  1  0  0  0  0  0  0  0  0  0
    3.9758   -3.8948    2.5901 C   0  0  0  0  0  0  0  0  0  0  0  0
    3.4160   -4.3282    1.2268 C   0  0  2  0  0  0  0  0  0  0  0  0
    4.3121   -5.4248    0.6110 C   0  0  0  0  0  0  0  0  0  0  0  0
    5.7502   -4.8902    0.4490 C   0  0  2  0  0  0  0  0  0  0  0  0
    6.3087   -4.4640    1.8111 C   0  0  0  0  0  0  0  0  0  0  0  0
    5.7518   -3.6848   -0.5013 C   0  0  0  0  0  0  0  0  0  0  0  0
    3.3695   -3.1101    0.2883 C   0  0  0  0  0  0  0  0  0  0  0  0
    3.7550   -2.8029   -3.0440 S   0  0  0  0  0  0  0  0  0  0  0  0
    3.3878   -1.7990   -4.3402 N   0  0  0  0  0  0  0  0  0  0  0  0
    3.5924    1.5547   -4.6633 H   0  0  0  0  0  0  0  0  0  0  0  0
    2.2835    0.5287   -5.2990 H   0  0  0  0  0  0  0  0  0  0  0  0
    3.9124    0.3821   -5.9447 H   0  0  0  0  0  0  0  0  0  0  0  0
    6.3884   -1.7402    1.3361 H   0  0  0  0  0  0  0  0  0  0  0  0
    4.7681   -1.3505    1.8805 H   0  0  0  0  0  0  0  0  0  0  0  0
    5.8091   -3.0443    3.3586 H   0  0  0  0  0  0  0  0  0  0  0  0
    3.9679   -4.7345    3.2869 H   0  0  0  0  0  0  0  0  0  0  0  0
    3.3425   -3.1141    3.0125 H   0  0  0  0  0  0  0  0  0  0  0  0
    2.4075   -4.7220    1.3541 H   0  0  0  0  0  0  0  0  0  0  0  0
    4.3162   -6.3195    1.2347 H   0  0  0  0  0  0  0  0  0  0  0  0
    3.9114   -5.7305   -0.3554 H   0  0  0  0  0  0  0  0  0  0  0  0
    6.3752   -5.6775    0.0313 H   0  0  0  0  0  0  0  0  0  0  0  0
    7.3280   -4.0975    1.6853 H   0  0  0  0  0  0  0  0  0  0  0  0
    6.3554   -5.3250    2.4795 H   0  0  0  0  0  0  0  0  0  0  0  0
    5.4505   -4.0884   -1.4640 H   0  0  0  0  0  0  0  0  0  0  0  0
    6.7644   -3.2961   -0.6406 H   0  0  0  0  0  0  0  0  0  0  0  0
    2.7161   -2.3357    0.7004 H   0  0  0  0  0  0  0  0  0  0  0  0
    2.8734   -3.4547   -0.6141 H   0  0  0  0  0  0  0  0  0  0  0  0
    5.0654   -0.4758   -0.4692 H   0  0  0  0  0  0  0  0  0  0  0  0
  1  2  1  0
  1 18  1  0
  1 19  1  0
  1 20  1  0
  2 17  2  0
  2  3  1  0
  3  4  2  0
  4  5  1  0
  4 16  1  0
  6  5  1  6
  5 36  1  0
  6 14  1  0
  6 15  1  0
  6  7  1  0
  7  8  1  0
  7 21  1  0
  7 22  1  0
  8 13  1  0
  8  9  1  0
  8 23  1  1
  9 10  1  0
  9 24  1  0
  9 25  1  0
 10 11  1  0
 10 15  1  0
 10 26  1  1
 11 12  1  0
 11 27  1  0
 11 28  1  0
 12 13  1  0
 12 14  1  0
 12 29  1  6
 13 30  1  0
 13 31  1  0
 14 32  1  0
 14 33  1  0
 15 34  1  0
 15 35  1  0
 16 17  1  0
M  END
>  <i_m_ct_stereo_status>  (368) 
1

>  <s_m_source_file>  (368) 
/var/tmp/pbs.5076255.sched01/tmpj3mqheq3/1200r5s1sfv.sdf

>  <i_m_source_file_index>  (368) 
34

>  <i_lp_mmshare_version>  (368) 
48012

>  <i_f3d_flags>  (368) 
0

>  <s_epik_input>  (368) 
W0NIM11jMW4vYyhzW25IXTEpPU4vQzIzW0NIMl1bQ0BIXTRbQ0gyXVtDQEBIXShbQ0gyXTMpW0NIMl1bQ0BIXShbQ0gyXTQpW0NIMl0y

>  <s_epik_cmdline>  (368) 
J2VwaWtfcHl0aG9uJywgJy1waHQnLCAnMi4wJywgJy1waCcsICc3LjAnLCAnLXRuJywgJzgnLCAnLW1hJywgJzIwMCcsICctaW1hZScsICc8aW5maWxlLm1hZT4nLCAnLW9tYWUnLCAnPG91dGZpbGUubWFlPic=

>  <r_lp_tautomer_probability>  (368) 
1

>  <r_epik_Ionization_Penalty>  (368) 
8.32671e-05

>  <r_epik_Ionization_Penalty_Charging>  (368) 
0

>  <r_epik_Ionization_Penalty_Neutral>  (368) 
8.32671e-05

>  <r_epik_State_Penalty>  (368) 
-0

>  <r_epik_Charging_Adjusted_Penalty>  (368) 
0

>  <i_epik_Tot_Q>  (368) 
0

>  <i_epik_Tot_abs_Q>  (368) 
0

>  <s_lp_Force_Field>  (368) 
OPLS3e

>  <r_lp_Energy>  (368) 
0.744585

>  <b_lp_Chiralities_Consistent>  (368) 
1

>  <s_lp_Variant>  (368) 
112:0-1

>  <s_i_glide_gridfile>  (368) 
pfpi4k_grid

>  <i_i_glide_lignum>  (368) 
34

>  <i_i_glide_rotatable_bonds>  (368) 
2

>  <r_i_docking_score>  (368) 
-3.80357

>  <r_i_glide_ligand_efficiency>  (368) 
-0.223739

>  <r_i_glide_ligand_efficiency_sa>  (368) 
-0.575297

>  <r_i_glide_ligand_efficiency_ln>  (368) 
-0.992267

>  <r_i_glide_gscore>  (368) 
-3.80357

>  <r_i_glide_lipo>  (368) 
-0.548637

>  <r_i_glide_hbond>  (368) 
-0.292405

>  <r_i_glide_metal>  (368) 
-0

>  <r_i_glide_rewards>  (368) 
-2.05946

>  <r_i_glide_evdw>  (368) 
-24.598

>  <r_i_glide_ecoul>  (368) 
-1.31764

>  <r_i_glide_erotb>  (368) 
0.562404

>  <r_i_glide_esite>  (368) 
-0.0379213

>  <r_i_glide_emodel>  (368) 
-30.669

>  <r_i_glide_energy>  (368) 
-25.9157

>  <r_i_glide_einternal>  (368) 
1.64562

>  <r_i_glide_intrahb_reward>  (368) 
-0

>  <i_i_glide_confnum>  (368) 
5

>  <i_i_glide_posenum>  (368) 
19

>  <r_i_glide_eff_state_penalty>  (368) 
0

>  <ligand_id>  (368) 
112

>  <original_smiles>  (368) 
Cc1nc(=NC23CC4CC(CC(C4)C2)C3)s[nH]1

>  <smiles>  (368) 
[H]N(c1nc(C([H])([H])[H])ns1)C12C([H])([H])C3([H])C([H])([H])C([H])(C([H])([H])C([H])(C3([H])[H])C1([H])[H])C2([H])[H]

$$$$
112:0:2
     RDKit          3D

 36 39  0  0  1  0  0  0  0  0999 V2000
    0.6409    2.5134    3.1454 C   0  0  0  0  0  0  0  0  0  0  0  0
    1.3236    1.2522    2.6967 C   0  0  0  0  0  0  0  0  0  0  0  0
    2.4431    1.2530    1.9489 N   0  0  0  0  0  0  0  0  0  0  0  0
    2.8630    0.0089    1.7072 C   0  0  0  0  0  0  0  0  0  0  0  0
    3.9912   -0.2062    0.9125 N   0  0  0  0  0  0  0  0  0  0  0  0
    4.4642   -1.5392    0.5103 C   0  0  2  0  0  0  0  0  0  0  0  0
    5.6704   -1.3897   -0.4622 C   0  0  0  0  0  0  0  0  0  0  0  0
    6.2013   -2.7844   -0.8853 C   0  0  1  0  0  0  0  0  0  0  0  0
    6.6636   -3.5481    0.3739 C   0  0  0  0  0  0  0  0  0  0  0  0
    5.4708   -3.7184    1.3289 C   0  0  2  0  0  0  0  0  0  0  0  0
    4.3326   -4.4891    0.6271 C   0  0  0  0  0  0  0  0  0  0  0  0
    3.8957   -3.7285   -0.6426 C   0  0  2  0  0  0  0  0  0  0  0  0
    5.0823   -3.5781   -1.5997 C   0  0  0  0  0  0  0  0  0  0  0  0
    3.3674   -2.3416   -0.2639 C   0  0  0  0  0  0  0  0  0  0  0  0
    4.9632   -2.3342    1.7538 C   0  0  0  0  0  0  0  0  0  0  0  0
    1.8337   -1.1715    2.4861 S   0  0  0  0  0  0  0  0  0  0  0  0
    0.8298    0.0602    3.0710 N   0  0  0  0  0  0  0  0  0  0  0  0
    1.1478    3.4080    2.7935 H   0  0  0  0  0  0  0  0  0  0  0  0
    0.6229    2.5233    4.2343 H   0  0  0  0  0  0  0  0  0  0  0  0
   -0.3819    2.5147    2.7709 H   0  0  0  0  0  0  0  0  0  0  0  0
    5.3703   -0.8338   -1.3546 H   0  0  0  0  0  0  0  0  0  0  0  0
    6.4738   -0.8186    0.0122 H   0  0  0  0  0  0  0  0  0  0  0  0
    7.0445   -2.6670   -1.5676 H   0  0  0  0  0  0  0  0  0  0  0  0
    7.0732   -4.5237    0.1076 H   0  0  0  0  0  0  0  0  0  0  0  0
    7.4563   -2.9900    0.8743 H   0  0  0  0  0  0  0  0  0  0  0  0
    5.7853   -4.2635    2.2181 H   0  0  0  0  0  0  0  0  0  0  0  0
    4.6558   -5.4995    0.3689 H   0  0  0  0  0  0  0  0  0  0  0  0
    3.4865   -4.6034    1.3070 H   0  0  0  0  0  0  0  0  0  0  0  0
    3.0939   -4.2748   -1.1306 H   0  0  0  0  0  0  0  0  0  0  0  0
    4.7629   -3.0539   -2.5007 H   0  0  0  0  0  0  0  0  0  0  0  0
    5.4180   -4.5684   -1.9129 H   0  0  0  0  0  0  0  0  0  0  0  0
    2.4662   -2.5357    0.3051 H   0  0  0  0  0  0  0  0  0  0  0  0
    3.0490   -1.7924   -1.1558 H   0  0  0  0  0  0  0  0  0  0  0  0
    5.7496   -1.7796    2.2717 H   0  0  0  0  0  0  0  0  0  0  0  0
    4.1815   -2.4936    2.4890 H   0  0  0  0  0  0  0  0  0  0  0  0
    4.4696    0.6142    0.5475 H   0  0  0  0  0  0  0  0  0  0  0  0
  1  2  1  0
  1 18  1  0
  1 19  1  0
  1 20  1  0
  2 17  2  0
  2  3  1  0
  3  4  2  0
  4  5  1  0
  4 16  1  0
  6  5  1  1
  5 36  1  0
  6 14  1  0
  6 15  1  0
  6  7  1  0
  7  8  1  0
  7 21  1  0
  7 22  1  0
  8 13  1  0
  8  9  1  0
  8 23  1  6
  9 10  1  0
  9 24  1  0
  9 25  1  0
 10 11  1  0
 10 15  1  0
 10 26  1  1
 11 12  1  0
 11 27  1  0
 11 28  1  0
 12 13  1  0
 12 14  1  0
 12 29  1  6
 13 30  1  0
 13 31  1  0
 14 32  1  0
 14 33  1  0
 15 34  1  0
 15 35  1  0
 16 17  1  0
M  END
>  <i_m_ct_stereo_status>  (369) 
1

>  <s_m_source_file>  (369) 
/var/tmp/pbs.5076255.sched01/tmpj3mqheq3/1200r5s1sfv.sdf

>  <i_m_source_file_index>  (369) 
34

>  <i_lp_mmshare_version>  (369) 
48012

>  <i_f3d_flags>  (369) 
0

>  <s_epik_input>  (369) 
W0NIM11jMW4vYyhzW25IXTEpPU4vQzIzW0NIMl1bQ0BIXTRbQ0gyXVtDQEBIXShbQ0gyXTMpW0NIMl1bQ0BIXShbQ0gyXTQpW0NIMl0y

>  <s_epik_cmdline>  (369) 
J2VwaWtfcHl0aG9uJywgJy1waHQnLCAnMi4wJywgJy1waCcsICc3LjAnLCAnLXRuJywgJzgnLCAnLW1hJywgJzIwMCcsICctaW1hZScsICc8aW5maWxlLm1hZT4nLCAnLW9tYWUnLCAnPG91dGZpbGUubWFlPic=

>  <r_lp_tautomer_probability>  (369) 
1

>  <r_epik_Ionization_Penalty>  (369) 
8.32671e-05

>  <r_epik_Ionization_Penalty_Charging>  (369) 
0

>  <r_epik_Ionization_Penalty_Neutral>  (369) 
8.32671e-05

>  <r_epik_State_Penalty>  (369) 
-0

>  <r_epik_Charging_Adjusted_Penalty>  (369) 
0

>  <i_epik_Tot_Q>  (369) 
0

>  <i_epik_Tot_abs_Q>  (369) 
0

>  <s_lp_Force_Field>  (369) 
OPLS3e

>  <r_lp_Energy>  (369) 
0.744585

>  <b_lp_Chiralities_Consistent>  (369) 
1

>  <s_lp_Variant>  (369) 
112:0-1

>  <s_i_glide_gridfile>  (369) 
pfpi4k_grid

>  <i_i_glide_lignum>  (369) 
34

>  <i_i_glide_rotatable_bonds>  (369) 
2

>  <r_i_docking_score>  (369) 
-2.60337

>  <r_i_glide_ligand_efficiency>  (369) 
-0.153139

>  <r_i_glide_ligand_efficiency_sa>  (369) 
-0.393764

>  <r_i_glide_ligand_efficiency_ln>  (369) 
-0.679161

>  <r_i_glide_gscore>  (369) 
-2.60337

>  <r_i_glide_lipo>  (369) 
-0.282138

>  <r_i_glide_hbond>  (369) 
-0.0341865

>  <r_i_glide_metal>  (369) 
-0

>  <r_i_glide_rewards>  (369) 
-1.7088

>  <r_i_glide_evdw>  (369) 
-19.3705

>  <r_i_glide_ecoul>  (369) 
-0.970215

>  <r_i_glide_erotb>  (369) 
0.562404

>  <r_i_glide_esite>  (369) 
-0.0265899

>  <r_i_glide_emodel>  (369) 
-23.2826

>  <r_i_glide_energy>  (369) 
-20.3408

>  <r_i_glide_einternal>  (369) 
1.50132

>  <r_i_glide_intrahb_reward>  (369) 
-0

>  <i_i_glide_confnum>  (369) 
3

>  <i_i_glide_posenum>  (369) 
21

>  <r_i_glide_eff_state_penalty>  (369) 
0

>  <ligand_id>  (369) 
112

>  <original_smiles>  (369) 
Cc1nc(=NC23CC4CC(CC(C4)C2)C3)s[nH]1

>  <smiles>  (369) 
[H]N(c1nc(C([H])([H])[H])ns1)C12C([H])([H])C3([H])C([H])([H])C([H])(C([H])([H])C([H])(C3([H])[H])C1([H])[H])C2([H])[H]

$$$$
113:0:0
     RDKit          3D

 29 32  0  0  1  0  0  0  0  0999 V2000
   -3.7852    3.3581    9.1208 C   0  0  0  0  0  0  0  0  0  0  0  0
   -2.2702    3.2530    8.9164 C   0  0  0  0  0  0  0  0  0  0  0  0
   -1.4813    3.9203   10.0550 C   0  0  0  0  0  0  0  0  0  0  0  0
   -1.9490    1.8945    8.8437 O   0  0  0  0  0  0  0  0  0  0  0  0
   -1.7590    1.6230    7.5103 C   0  0  2  0  0  0  0  0  0  0  0  0
   -0.9461    0.5117    7.2940 O   0  0  0  0  0  0  0  0  0  0  0  0
   -0.8692   -0.0728    5.9791 C   0  0  1  0  0  0  0  0  0  0  0  0
   -2.1372   -0.2663    5.3503 O   0  0  0  0  0  0  0  0  0  0  0  0
   -1.2651    0.7149    4.7424 C   0  0  1  0  0  0  0  0  0  0  0  0
   -1.7957    2.1289    4.7502 C   0  0  2  0  0  0  0  0  0  0  0  0
   -1.8197    2.8058    3.5232 O   0  0  0  0  0  0  0  0  0  0  0  0
   -1.6221    4.1175    3.6899 C   0  0  0  0  0  0  0  0  0  0  0  0
   -1.8363    5.0106    2.8839 O   0  0  0  0  0  0  0  0  0  0  0  0
   -1.2089    4.2732    4.9492 O   0  0  0  0  0  0  0  0  0  0  0  0
   -0.9104    3.0438    5.5561 C   0  0  1  0  0  0  0  0  0  0  0  0
   -1.0963    2.9286    7.0793 C   0  0  1  0  0  0  0  0  0  0  0  0
   -1.9175    3.8803    7.7053 O   0  0  0  0  0  0  0  0  0  0  0  0
   -4.3193    2.8700    8.3056 H   0  0  0  0  0  0  0  0  0  0  0  0
   -4.0893    4.4045    9.1640 H   0  0  0  0  0  0  0  0  0  0  0  0
   -4.0574    2.8746   10.0615 H   0  0  0  0  0  0  0  0  0  0  0  0
   -0.4074    3.8306    9.8866 H   0  0  0  0  0  0  0  0  0  0  0  0
   -1.7336    3.4613   11.0138 H   0  0  0  0  0  0  0  0  0  0  0  0
   -1.7342    4.9807   10.0988 H   0  0  0  0  0  0  0  0  0  0  0  0
   -2.7632    1.4854    7.0967 H   0  0  0  0  0  0  0  0  0  0  0  0
   -0.2273   -0.9509    5.8918 H   0  0  0  0  0  0  0  0  0  0  0  0
   -0.7647    0.4066    3.8271 H   0  0  0  0  0  0  0  0  0  0  0  0
   -2.8211    2.1467    5.1191 H   0  0  0  0  0  0  0  0  0  0  0  0
    0.1289    2.8175    5.3184 H   0  0  0  0  0  0  0  0  0  0  0  0
   -0.1137    2.9888    7.5505 H   0  0  0  0  0  0  0  0  0  0  0  0
  1  2  1  0
  1 18  1  0
  1 19  1  0
  1 20  1  0
  2 17  1  0
  2  3  1  0
  2  4  1  0
  3 21  1  0
  3 22  1  0
  3 23  1  0
  4  5  1  0
  5 16  1  0
  5  6  1  0
  5 24  1  6
  6  7  1  0
  7  9  1  0
  7  8  1  0
  7 25  1  6
  8  9  1  0
  9 10  1  0
  9 26  1  6
 10 15  1  0
 10 11  1  0
 10 27  1  1
 11 12  1  0
 12 13  2  0
 12 14  1  0
 14 15  1  0
 15 16  1  0
 15 28  1  1
 16 17  1  0
 16 29  1  1
M  END
>  <i_m_ct_stereo_status>  (370) 
1

>  <s_m_source_file>  (370) 
/var/tmp/pbs.5076255.sched01/tmpj3mqheq3/1200r5s1sfv.sdf

>  <i_m_source_file_index>  (370) 
35

>  <i_lp_mmshare_version>  (370) 
48012

>  <i_f3d_flags>  (370) 
0

>  <s_epik_input>  (370) 
W0NIM11DKE8xKShbQ0gzXSlPW0NAQEhdKFtDQEhdMTIpW0NASF0zW0NASF0oW0NASF00W0NAQEhdKE8yKU80KU9DKD1PKU8z

>  <s_epik_cmdline>  (370) 
J2VwaWtfcHl0aG9uJywgJy1waHQnLCAnMi4wJywgJy1waCcsICc3LjAnLCAnLXRuJywgJzgnLCAnLW1hJywgJzIwMCcsICctaW1hZScsICc8aW5maWxlLm1hZT4nLCAnLW9tYWUnLCAnPG91dGZpbGUubWFlPic=

>  <r_lp_tautomer_probability>  (370) 
1

>  <r_epik_Ionization_Penalty>  (370) 
4.60454e-15

>  <r_epik_Ionization_Penalty_Charging>  (370) 
0

>  <r_epik_Ionization_Penalty_Neutral>  (370) 
4.60454e-15

>  <r_epik_State_Penalty>  (370) 
-0

>  <r_epik_Charging_Adjusted_Penalty>  (370) 
0

>  <i_epik_Tot_Q>  (370) 
0

>  <i_epik_Tot_abs_Q>  (370) 
0

>  <s_epik_Chemistry_Notes>  (370) 
This compound has an ester and may undergo hydrolysis at high or low pH. This compound contains an acetal/aminal-like group ( X-CH(R)-Y where X, Y are N, S, or O) that may be acid/base labile, releasing an aldehyde.

>  <s_lp_Force_Field>  (370) 
OPLS3e

>  <r_lp_Energy>  (370) 
12.3044

>  <b_lp_Chiralities_Consistent>  (370) 
1

>  <s_lp_Variant>  (370) 
113:0-1

>  <s_i_glide_gridfile>  (370) 
pfpi4k_grid

>  <i_i_glide_lignum>  (370) 
35

>  <i_i_glide_rotatable_bonds>  (370) 
0

>  <r_i_docking_score>  (370) 
-3.95176

>  <r_i_glide_ligand_efficiency>  (370) 
-0.232457

>  <r_i_glide_ligand_efficiency_sa>  (370) 
-0.597711

>  <r_i_glide_ligand_efficiency_ln>  (370) 
-1.03093

>  <r_i_glide_gscore>  (370) 
-3.95176

>  <r_i_glide_lipo>  (370) 
-0.0973731

>  <r_i_glide_hbond>  (370) 
-0.273311

>  <r_i_glide_metal>  (370) 
-0

>  <r_i_glide_rewards>  (370) 
-1.7441

>  <r_i_glide_evdw>  (370) 
-18.842

>  <r_i_glide_ecoul>  (370) 
-4.56969

>  <r_i_glide_erotb>  (370) 
0

>  <r_i_glide_esite>  (370) 
-0.209418

>  <r_i_glide_emodel>  (370) 
-29.3844

>  <r_i_glide_energy>  (370) 
-23.4117

>  <r_i_glide_einternal>  (370) 
0

>  <r_i_glide_intrahb_reward>  (370) 
-0

>  <i_i_glide_confnum>  (370) 
1

>  <i_i_glide_posenum>  (370) 
15

>  <r_i_glide_eff_state_penalty>  (370) 
0

>  <ligand_id>  (370) 
113

>  <original_smiles>  (370) 
CC1(C)OC2OC3OC3C3OC(=O)OC3C2O1

>  <smiles>  (370) 
[H]C([H])([H])C1(C([H])([H])[H])OC2([H])OC3([H])OC3([H])C3([H])OC(=O)OC3([H])C2([H])O1

$$$$
113:0:1
     RDKit          3D

 29 32  0  0  1  0  0  0  0  0999 V2000
    3.4634   -0.6645   -3.2908 C   0  0  0  0  0  0  0  0  0  0  0  0
    3.6741   -2.1612   -3.0149 C   0  0  0  0  0  0  0  0  0  0  0  0
    2.8120   -3.0561   -3.9127 C   0  0  0  0  0  0  0  0  0  0  0  0
    5.0232   -2.4338   -3.2506 O   0  0  0  0  0  0  0  0  0  0  0  0
    5.6095   -2.5078   -2.0076 C   0  0  2  0  0  0  0  0  0  0  0  0
    6.7943   -3.2435   -2.0010 O   0  0  0  0  0  0  0  0  0  0  0  0
    7.6720   -3.1989   -0.8580 C   0  0  1  0  0  0  0  0  0  0  0  0
    7.8996   -1.8943   -0.3385 O   0  0  0  0  0  0  0  0  0  0  0  0
    7.1397   -2.7762    0.5002 C   0  0  1  0  0  0  0  0  0  0  0  0
    5.7429   -2.2727    0.7827 C   0  0  2  0  0  0  0  0  0  0  0  0
    5.3544   -2.1860    2.1341 O   0  0  0  0  0  0  0  0  0  0  0  0
    4.0544   -2.4421    2.2890 C   0  0  0  0  0  0  0  0  0  0  0  0
    3.3726   -2.2556    3.3118 O   0  0  0  0  0  0  0  0  0  0  0  0
    3.6359   -2.9524    1.1306 O   0  0  0  0  0  0  0  0  0  0  0  0
    4.7191   -3.2452    0.2716 C   0  0  1  0  0  0  0  0  0  0  0  0
    4.4776   -3.1850   -1.2426 C   0  0  1  0  0  0  0  0  0  0  0  0
    3.3610   -2.4500   -1.6788 O   0  0  0  0  0  0  0  0  0  0  0  0
    4.1107   -0.0590   -2.6561 H   0  0  0  0  0  0  0  0  0  0  0  0
    2.4326   -0.3840   -3.0913 H   0  0  0  0  0  0  0  0  0  0  0  0
    3.6992   -0.4413   -4.3330 H   0  0  0  0  0  0  0  0  0  0  0  0
    2.9956   -4.1091   -3.7048 H   0  0  0  0  0  0  0  0  0  0  0  0
    3.0377   -2.8684   -4.9580 H   0  0  0  0  0  0  0  0  0  0  0  0
    1.7559   -2.8428   -3.7363 H   0  0  0  0  0  0  0  0  0  0  0  0
    5.7856   -1.4758   -1.7069 H   0  0  0  0  0  0  0  0  0  0  0  0
    8.5875   -3.7987   -0.9477 H   0  0  0  0  0  0  0  0  0  0  0  0
    7.6675   -3.2238    1.3398 H   0  0  0  0  0  0  0  0  0  0  0  0
    5.6161   -1.2730    0.3686 H   0  0  0  0  0  0  0  0  0  0  0  0
    5.0464   -4.2532    0.5267 H   0  0  0  0  0  0  0  0  0  0  0  0
    4.3639   -4.2034   -1.6165 H   0  0  0  0  0  0  0  0  0  0  0  0
  1  2  1  0
  1 18  1  0
  1 19  1  0
  1 20  1  0
  2 17  1  0
  2  3  1  0
  2  4  1  0
  3 21  1  0
  3 22  1  0
  3 23  1  0
  4  5  1  0
  5 16  1  0
  5  6  1  0
  5 24  1  1
  6  7  1  0
  7  9  1  0
  7  8  1  0
  7 25  1  1
  8  9  1  0
  9 10  1  0
  9 26  1  1
 10 15  1  0
 10 11  1  0
 10 27  1  6
 11 12  1  0
 12 13  2  0
 12 14  1  0
 14 15  1  0
 15 16  1  0
 15 28  1  1
 16 17  1  0
 16 29  1  6
M  END
>  <i_m_ct_stereo_status>  (371) 
1

>  <s_m_source_file>  (371) 
/var/tmp/pbs.5076255.sched01/tmpj3mqheq3/1200r5s1sfv.sdf

>  <i_m_source_file_index>  (371) 
35

>  <i_lp_mmshare_version>  (371) 
48012

>  <i_f3d_flags>  (371) 
0

>  <s_epik_input>  (371) 
W0NIM11DKE8xKShbQ0gzXSlPW0NAQEhdKFtDQEhdMTIpW0NASF0zW0NASF0oW0NASF00W0NAQEhdKE8yKU80KU9DKD1PKU8z

>  <s_epik_cmdline>  (371) 
J2VwaWtfcHl0aG9uJywgJy1waHQnLCAnMi4wJywgJy1waCcsICc3LjAnLCAnLXRuJywgJzgnLCAnLW1hJywgJzIwMCcsICctaW1hZScsICc8aW5maWxlLm1hZT4nLCAnLW9tYWUnLCAnPG91dGZpbGUubWFlPic=

>  <r_lp_tautomer_probability>  (371) 
1

>  <r_epik_Ionization_Penalty>  (371) 
4.60454e-15

>  <r_epik_Ionization_Penalty_Charging>  (371) 
0

>  <r_epik_Ionization_Penalty_Neutral>  (371) 
4.60454e-15

>  <r_epik_State_Penalty>  (371) 
-0

>  <r_epik_Charging_Adjusted_Penalty>  (371) 
0

>  <i_epik_Tot_Q>  (371) 
0

>  <i_epik_Tot_abs_Q>  (371) 
0

>  <s_epik_Chemistry_Notes>  (371) 
This compound has an ester and may undergo hydrolysis at high or low pH. This compound contains an acetal/aminal-like group ( X-CH(R)-Y where X, Y are N, S, or O) that may be acid/base labile, releasing an aldehyde.

>  <s_lp_Force_Field>  (371) 
OPLS3e

>  <r_lp_Energy>  (371) 
12.3044

>  <b_lp_Chiralities_Consistent>  (371) 
1

>  <s_lp_Variant>  (371) 
113:0-1

>  <s_i_glide_gridfile>  (371) 
pfpi4k_grid

>  <i_i_glide_lignum>  (371) 
35

>  <i_i_glide_rotatable_bonds>  (371) 
0

>  <r_i_docking_score>  (371) 
-3.81447

>  <r_i_glide_ligand_efficiency>  (371) 
-0.22438

>  <r_i_glide_ligand_efficiency_sa>  (371) 
-0.576945

>  <r_i_glide_ligand_efficiency_ln>  (371) 
-0.995109

>  <r_i_glide_gscore>  (371) 
-3.81447

>  <r_i_glide_lipo>  (371) 
-0.475235

>  <r_i_glide_hbond>  (371) 
-0.136081

>  <r_i_glide_metal>  (371) 
-0

>  <r_i_glide_rewards>  (371) 
-1.95375

>  <r_i_glide_evdw>  (371) 
-23.1079

>  <r_i_glide_ecoul>  (371) 
-0.601002

>  <r_i_glide_erotb>  (371) 
0

>  <r_i_glide_esite>  (371) 
-0.00385438

>  <r_i_glide_emodel>  (371) 
-29.4538

>  <r_i_glide_energy>  (371) 
-23.7089

>  <r_i_glide_einternal>  (371) 
0

>  <r_i_glide_intrahb_reward>  (371) 
-0

>  <i_i_glide_confnum>  (371) 
2

>  <i_i_glide_posenum>  (371) 
8

>  <r_i_glide_eff_state_penalty>  (371) 
0

>  <ligand_id>  (371) 
113

>  <original_smiles>  (371) 
CC1(C)OC2OC3OC3C3OC(=O)OC3C2O1

>  <smiles>  (371) 
[H]C([H])([H])C1(C([H])([H])[H])OC2([H])OC3([H])OC3([H])C3([H])OC(=O)OC3([H])C2([H])O1

$$$$
113:0:2
     RDKit          3D

 29 32  0  0  1  0  0  0  0  0999 V2000
    4.5032   -0.6212    0.5498 C   0  0  0  0  0  0  0  0  0  0  0  0
    4.7429   -1.6709   -0.5458 C   0  0  0  0  0  0  0  0  0  0  0  0
    4.6761   -1.0733   -1.9590 C   0  0  0  0  0  0  0  0  0  0  0  0
    6.0135   -2.2226   -0.3258 O   0  0  0  0  0  0  0  0  0  0  0  0
    5.7846   -3.4444    0.2705 C   0  0  2  0  0  0  0  0  0  0  0  0
    6.8325   -4.3502    0.0887 O   0  0  0  0  0  0  0  0  0  0  0  0
    6.8700   -5.5597    0.8847 C   0  0  1  0  0  0  0  0  0  0  0  0
    6.5861   -5.3672    2.2655 O   0  0  0  0  0  0  0  0  0  0  0  0
    5.6072   -6.1183    1.5244 C   0  0  1  0  0  0  0  0  0  0  0  0
    4.2446   -5.4623    1.4942 C   0  0  2  0  0  0  0  0  0  0  0  0
    3.1365   -6.2491    1.8758 O   0  0  0  0  0  0  0  0  0  0  0  0
    2.0362   -5.9186    1.1989 C   0  0  0  0  0  0  0  0  0  0  0  0
    0.8654   -6.2583    1.4360 O   0  0  0  0  0  0  0  0  0  0  0  0
    2.4405   -5.1226    0.2082 O   0  0  0  0  0  0  0  0  0  0  0  0
    3.8488   -5.1154    0.0860 C   0  0  1  0  0  0  0  0  0  0  0  0
    4.5173   -3.8556   -0.4793 C   0  0  1  0  0  0  0  0  0  0  0  0
    3.7641   -2.6699   -0.4492 O   0  0  0  0  0  0  0  0  0  0  0  0
    4.5745   -1.0733    1.5388 H   0  0  0  0  0  0  0  0  0  0  0  0
    3.5194   -0.1664    0.4373 H   0  0  0  0  0  0  0  0  0  0  0  0
    5.2666    0.1529    0.4791 H   0  0  0  0  0  0  0  0  0  0  0  0
    4.8537   -1.8431   -2.7098 H   0  0  0  0  0  0  0  0  0  0  0  0
    5.4137   -0.2781   -2.0745 H   0  0  0  0  0  0  0  0  0  0  0  0
    3.6812   -0.6558   -2.1277 H   0  0  0  0  0  0  0  0  0  0  0  0
    5.6187   -3.2294    1.3279 H   0  0  0  0  0  0  0  0  0  0  0  0
    7.7367   -6.2050    0.7060 H   0  0  0  0  0  0  0  0  0  0  0  0
    5.6097   -7.1962    1.6664 H   0  0  0  0  0  0  0  0  0  0  0  0
    4.2401   -4.5899    2.1479 H   0  0  0  0  0  0  0  0  0  0  0  0
    4.1113   -5.9575   -0.5546 H   0  0  0  0  0  0  0  0  0  0  0  0
    4.7745   -4.0446   -1.5227 H   0  0  0  0  0  0  0  0  0  0  0  0
  1  2  1  0
  1 18  1  0
  1 19  1  0
  1 20  1  0
  2 17  1  0
  2  3  1  0
  2  4  1  0
  3 21  1  0
  3 22  1  0
  3 23  1  0
  4  5  1  0
  5 16  1  0
  5  6  1  0
  5 24  1  1
  6  7  1  0
  7  9  1  0
  7  8  1  0
  7 25  1  1
  8  9  1  0
  9 10  1  0
  9 26  1  1
 10 15  1  0
 10 11  1  0
 10 27  1  1
 11 12  1  0
 12 13  2  0
 12 14  1  0
 14 15  1  0
 15 16  1  0
 15 28  1  6
 16 17  1  0
 16 29  1  6
M  END
>  <i_m_ct_stereo_status>  (372) 
1

>  <s_m_source_file>  (372) 
/var/tmp/pbs.5076255.sched01/tmpj3mqheq3/1200r5s1sfv.sdf

>  <i_m_source_file_index>  (372) 
35

>  <i_lp_mmshare_version>  (372) 
48012

>  <i_f3d_flags>  (372) 
0

>  <s_epik_input>  (372) 
W0NIM11DKE8xKShbQ0gzXSlPW0NAQEhdKFtDQEhdMTIpW0NASF0zW0NASF0oW0NASF00W0NAQEhdKE8yKU80KU9DKD1PKU8z

>  <s_epik_cmdline>  (372) 
J2VwaWtfcHl0aG9uJywgJy1waHQnLCAnMi4wJywgJy1waCcsICc3LjAnLCAnLXRuJywgJzgnLCAnLW1hJywgJzIwMCcsICctaW1hZScsICc8aW5maWxlLm1hZT4nLCAnLW9tYWUnLCAnPG91dGZpbGUubWFlPic=

>  <r_lp_tautomer_probability>  (372) 
1

>  <r_epik_Ionization_Penalty>  (372) 
4.60454e-15

>  <r_epik_Ionization_Penalty_Charging>  (372) 
0

>  <r_epik_Ionization_Penalty_Neutral>  (372) 
4.60454e-15

>  <r_epik_State_Penalty>  (372) 
-0

>  <r_epik_Charging_Adjusted_Penalty>  (372) 
0

>  <i_epik_Tot_Q>  (372) 
0

>  <i_epik_Tot_abs_Q>  (372) 
0

>  <s_epik_Chemistry_Notes>  (372) 
This compound has an ester and may undergo hydrolysis at high or low pH. This compound contains an acetal/aminal-like group ( X-CH(R)-Y where X, Y are N, S, or O) that may be acid/base labile, releasing an aldehyde.

>  <s_lp_Force_Field>  (372) 
OPLS3e

>  <r_lp_Energy>  (372) 
12.3044

>  <b_lp_Chiralities_Consistent>  (372) 
1

>  <s_lp_Variant>  (372) 
113:0-1

>  <s_i_glide_gridfile>  (372) 
pfpi4k_grid

>  <i_i_glide_lignum>  (372) 
35

>  <i_i_glide_rotatable_bonds>  (372) 
0

>  <r_i_docking_score>  (372) 
-3.79962

>  <r_i_glide_ligand_efficiency>  (372) 
-0.223507

>  <r_i_glide_ligand_efficiency_sa>  (372) 
-0.574699

>  <r_i_glide_ligand_efficiency_ln>  (372) 
-0.991236

>  <r_i_glide_gscore>  (372) 
-3.79962

>  <r_i_glide_lipo>  (372) 
-0.224853

>  <r_i_glide_hbond>  (372) 
-0.16

>  <r_i_glide_metal>  (372) 
-0

>  <r_i_glide_rewards>  (372) 
-1.95216

>  <r_i_glide_evdw>  (372) 
-20.0325

>  <r_i_glide_ecoul>  (372) 
-2.61419

>  <r_i_glide_erotb>  (372) 
0

>  <r_i_glide_esite>  (372) 
-0.0688491

>  <r_i_glide_emodel>  (372) 
-28.3983

>  <r_i_glide_energy>  (372) 
-22.6467

>  <r_i_glide_einternal>  (372) 
0

>  <r_i_glide_intrahb_reward>  (372) 
-0

>  <i_i_glide_confnum>  (372) 
2

>  <i_i_glide_posenum>  (372) 
34

>  <r_i_glide_eff_state_penalty>  (372) 
0

>  <ligand_id>  (372) 
113

>  <original_smiles>  (372) 
CC1(C)OC2OC3OC3C3OC(=O)OC3C2O1

>  <smiles>  (372) 
[H]C([H])([H])C1(C([H])([H])[H])OC2([H])OC3([H])OC3([H])C3([H])OC(=O)OC3([H])C2([H])O1

$$$$
115:0:0
     RDKit          3D

 37 40  0  0  1  0  0  0  0  0999 V2000
    0.1674   -8.4689    4.3899 C   0  0  0  0  0  0  0  0  0  0  0  0
    0.2131   -8.3815    5.8042 C   0  0  0  0  0  0  0  0  0  0  0  0
    0.2398   -7.0421    6.0717 C   0  0  0  0  0  0  0  0  0  0  0  0
    0.2717   -6.3296    7.2077 N   0  0  0  0  0  0  0  0  0  0  0  0
    0.2914   -5.0026    7.0876 C   0  0  0  0  0  0  0  0  0  0  0  0
    0.2800   -4.2914    5.8524 C   0  0  0  0  0  0  0  0  0  0  0  0
    0.2971   -2.8175    5.7952 C   0  0  0  0  0  0  0  0  0  0  0  0
    0.2944   -1.9090    6.8907 C   0  0  0  0  0  0  0  0  0  0  0  0
    0.2873   -0.6480    6.4775 N   0  0  0  0  0  0  0  0  0  0  0  0
    0.3400   -0.7198    5.1258 N   0  0  0  0  0  0  0  0  0  0  0  0
    0.3762    0.5079    4.3317 C   0  0  0  0  0  0  0  0  0  0  0  0
   -0.9674    0.7171    3.6054 C   0  0  0  0  0  0  0  0  0  0  0  0
   -0.9135    1.9006    2.6343 C   0  0  0  0  0  0  0  0  0  0  0  0
    0.2105    1.7412    1.6750 N   0  0  0  0  0  0  0  0  0  0  0  0
    1.5179    1.6766    2.3713 C   0  0  0  0  0  0  0  0  0  0  0  0
    1.5511    0.4769    3.3225 C   0  0  0  0  0  0  0  0  0  0  0  0
    0.3210   -2.0290    4.6839 C   0  0  0  0  0  0  0  0  0  0  0  0
    0.2557   -5.0493    4.6997 C   0  0  0  0  0  0  0  0  0  0  0  0
    0.2223   -6.4050    4.8119 N   0  0  0  0  0  0  0  0  0  0  0  0
    0.1600   -7.2998    3.7818 N   0  0  0  0  0  0  0  0  0  0  0  0
    0.1345   -9.3780    3.8015 H   0  0  0  0  0  0  0  0  0  0  0  0
    0.2230   -9.1936    6.5143 H   0  0  0  0  0  0  0  0  0  0  0  0
    0.3249   -4.4505    8.0217 H   0  0  0  0  0  0  0  0  0  0  0  0
    0.2934   -2.1021    7.9561 H   0  0  0  0  0  0  0  0  0  0  0  0
    0.5340    1.3594    5.0066 H   0  0  0  0  0  0  0  0  0  0  0  0
   -1.2033   -0.1767    3.0429 H   0  0  0  0  0  0  0  0  0  0  0  0
   -1.7807    0.8507    4.3205 H   0  0  0  0  0  0  0  0  0  0  0  0
   -1.8513    1.9937    2.0854 H   0  0  0  0  0  0  0  0  0  0  0  0
   -0.7771    2.8330    3.1754 H   0  0  0  0  0  0  0  0  0  0  0  0
    0.0687    0.9289    1.0899 H   0  0  0  0  0  0  0  0  0  0  0  0
    2.3204    1.6064    1.6378 H   0  0  0  0  0  0  0  0  0  0  0  0
    1.6777    2.6015    2.9178 H   0  0  0  0  0  0  0  0  0  0  0  0
    2.5029    0.4392    3.8558 H   0  0  0  0  0  0  0  0  0  0  0  0
    1.5035   -0.4257    2.7194 H   0  0  0  0  0  0  0  0  0  0  0  0
    0.3317   -2.2738    3.6381 H   0  0  0  0  0  0  0  0  0  0  0  0
    0.2452   -4.6481    3.6930 H   0  0  0  0  0  0  0  0  0  0  0  0
    0.2198    2.5687    1.0684 H   0  0  0  0  0  0  0  0  0  0  0  0
  1 20  2  0
  1  2  1  0
  1 21  1  0
  2  3  2  0
  2 22  1  0
  3 19  1  0
  3  4  1  0
  4  5  2  0
  5  6  1  0
  5 23  1  0
  6  7  1  0
  6 18  2  0
  7 17  2  0
  7  8  1  0
  8  9  2  0
  8 24  1  0
  9 10  1  0
 10 11  1  0
 10 17  1  0
 11 16  1  0
 11 12  1  0
 11 25  1  0
 12 13  1  0
 12 26  1  0
 12 27  1  0
 13 14  1  0
 13 28  1  0
 13 29  1  0
 14 15  1  0
 14 30  1  0
 14 37  1  0
 15 16  1  0
 15 31  1  0
 15 32  1  0
 16 33  1  0
 16 34  1  0
 17 35  1  0
 18 19  1  0
 18 36  1  0
 19 20  1  0
M  CHG  1  14   1
M  END
>  <i_m_ct_stereo_status>  (373) 
1

>  <s_m_source_file>  (373) 
/var/tmp/pbs.5076255.sched01/tmpj3mqheq3/1200r5s1sfv.sdf

>  <i_m_source_file_index>  (373) 
37

>  <i_lp_mmshare_version>  (373) 
48012

>  <i_f3d_flags>  (373) 
0

>  <s_epik_input>  (373) 
W2NIXTFbY0hdbm4oYzEyKVtjSF1jKFtjSF1uMiktYzNbY0hdbm4oW2NIXTMpW0NIXTRbQ0gyXVtDSDJdW05IXVtDSDJdW0NIMl00

>  <s_epik_cmdline>  (373) 
J2VwaWtfcHl0aG9uJywgJy1waHQnLCAnMi4wJywgJy1waCcsICc3LjAnLCAnLXRuJywgJzgnLCAnLW1hJywgJzIwMCcsICctaW1hZScsICc8aW5maWxlLm1hZT4nLCAnLW9tYWUnLCAnPG91dGZpbGUubWFlPic=

>  <r_lp_tautomer_probability>  (373) 
1

>  <r_epik_Ionization_Penalty>  (373) 
0.00192089

>  <r_epik_Ionization_Penalty_Charging>  (373) 
0.00191238

>  <r_epik_Ionization_Penalty_Neutral>  (373) 
8.50994e-06

>  <r_epik_State_Penalty>  (373) 
-0

>  <r_epik_Charging_Adjusted_Penalty>  (373) 
0.00191238

>  <i_epik_Tot_Q>  (373) 
1

>  <i_epik_Tot_abs_Q>  (373) 
1

>  <s_lp_Force_Field>  (373) 
OPLS3e

>  <r_lp_Energy>  (373) 
16.8911

>  <b_lp_Chiralities_Consistent>  (373) 
1

>  <s_lp_Variant>  (373) 
115:0-1

>  <s_i_glide_gridfile>  (373) 
pfpi4k_grid

>  <i_i_glide_lignum>  (373) 
37

>  <i_i_glide_rotatable_bonds>  (373) 
2

>  <r_i_docking_score>  (373) 
-3.73759

>  <r_i_glide_ligand_efficiency>  (373) 
-0.18688

>  <r_i_glide_ligand_efficiency_sa>  (373) 
-0.50727

>  <r_i_glide_ligand_efficiency_ln>  (373) 
-0.935397

>  <r_i_glide_gscore>  (373) 
-3.73759

>  <r_i_glide_lipo>  (373) 
-0.0175692

>  <r_i_glide_hbond>  (373) 
-0.252411

>  <r_i_glide_metal>  (373) 
-0

>  <r_i_glide_rewards>  (373) 
-1.57278

>  <r_i_glide_evdw>  (373) 
-18.7805

>  <r_i_glide_ecoul>  (373) 
-8.85126

>  <r_i_glide_erotb>  (373) 
0.492619

>  <r_i_glide_esite>  (373) 
-0.120734

>  <r_i_glide_emodel>  (373) 
-37.1585

>  <r_i_glide_energy>  (373) 
-27.6318

>  <r_i_glide_einternal>  (373) 
0.667446

>  <r_i_glide_intrahb_reward>  (373) 
-0

>  <i_i_glide_confnum>  (373) 
6

>  <i_i_glide_posenum>  (373) 
4

>  <r_i_glide_eff_state_penalty>  (373) 
0

>  <ligand_id>  (373) 
115

>  <original_smiles>  (373) 
c1cc2ncc(-c3cnn(C4CCNCC4)c3)cn2n1

>  <smiles>  (373) 
[H]c1nn(C2([H])C([H])([H])C([H])([H])[N+]([H])([H])C([H])([H])C2([H])[H])c([H])c1-c1c([H])nc2c([H])c([H])nn2c1[H]

$$$$
115:0:1
     RDKit          3D

 37 40  0  0  1  0  0  0  0  0999 V2000
    4.8755   -1.3869   -1.0980 C   0  0  0  0  0  0  0  0  0  0  0  0
    5.5047   -2.5904   -1.5071 C   0  0  0  0  0  0  0  0  0  0  0  0
    4.8787   -3.5709   -0.7825 C   0  0  0  0  0  0  0  0  0  0  0  0
    5.0168   -4.9039   -0.7144 N   0  0  0  0  0  0  0  0  0  0  0  0
    4.2156   -5.5588    0.1202 C   0  0  0  0  0  0  0  0  0  0  0  0
    3.2300   -4.9552    0.9517 C   0  0  0  0  0  0  0  0  0  0  0  0
    2.3806   -5.7499    1.8624 C   0  0  0  0  0  0  0  0  0  0  0  0
    1.4182   -5.2773    2.7965 C   0  0  0  0  0  0  0  0  0  0  0  0
    0.8107   -6.2764    3.4219 N   0  0  0  0  0  0  0  0  0  0  0  0
    1.4046   -7.4035    2.9555 N   0  0  0  0  0  0  0  0  0  0  0  0
    0.9987   -8.7082    3.4818 C   0  0  0  0  0  0  0  0  0  0  0  0
    1.1650   -8.7824    5.0201 C   0  0  0  0  0  0  0  0  0  0  0  0
    0.8666  -10.1924    5.5582 C   0  0  0  0  0  0  0  0  0  0  0  0
    1.7131  -11.2010    4.8803 N   0  0  0  0  0  0  0  0  0  0  0  0
    1.4755  -11.2249    3.4251 C   0  0  0  0  0  0  0  0  0  0  0  0
    1.7958   -9.8553    2.8167 C   0  0  0  0  0  0  0  0  0  0  0  0
    2.3504   -7.1067    1.9885 C   0  0  0  0  0  0  0  0  0  0  0  0
    3.1076   -3.5806    0.8686 C   0  0  0  0  0  0  0  0  0  0  0  0
    3.9268   -2.9051    0.0149 N   0  0  0  0  0  0  0  0  0  0  0  0
    3.9514   -1.5537   -0.1804 N   0  0  0  0  0  0  0  0  0  0  0  0
    5.0822   -0.3874   -1.4505 H   0  0  0  0  0  0  0  0  0  0  0  0
    6.2917   -2.7304   -2.2325 H   0  0  0  0  0  0  0  0  0  0  0  0
    4.3623   -6.6340    0.1394 H   0  0  0  0  0  0  0  0  0  0  0  0
    1.1255   -4.2630    3.0245 H   0  0  0  0  0  0  0  0  0  0  0  0
   -0.0605   -8.8390    3.2439 H   0  0  0  0  0  0  0  0  0  0  0  0
    2.1821   -8.5009    5.2896 H   0  0  0  0  0  0  0  0  0  0  0  0
    0.5092   -8.0622    5.5129 H   0  0  0  0  0  0  0  0  0  0  0  0
    1.0391  -10.2433    6.6324 H   0  0  0  0  0  0  0  0  0  0  0  0
   -0.1829  -10.4368    5.4006 H   0  0  0  0  0  0  0  0  0  0  0  0
    2.6828  -10.9704    5.0567 H   0  0  0  0  0  0  0  0  0  0  0  0
    2.0986  -11.9889    2.9601 H   0  0  0  0  0  0  0  0  0  0  0  0
    0.4390  -11.4910    3.2213 H   0  0  0  0  0  0  0  0  0  0  0  0
    1.5971   -9.8720    1.7441 H   0  0  0  0  0  0  0  0  0  0  0  0
    2.8634   -9.6748    2.9379 H   0  0  0  0  0  0  0  0  0  0  0  0
    2.9181   -7.8690    1.4800 H   0  0  0  0  0  0  0  0  0  0  0  0
    2.4053   -2.9871    1.4434 H   0  0  0  0  0  0  0  0  0  0  0  0
    1.5321  -12.1119    5.2949 H   0  0  0  0  0  0  0  0  0  0  0  0
  1 20  2  0
  1  2  1  0
  1 21  1  0
  2  3  2  0
  2 22  1  0
  3 19  1  0
  3  4  1  0
  4  5  2  0
  5  6  1  0
  5 23  1  0
  6  7  1  0
  6 18  2  0
  7 17  2  0
  7  8  1  0
  8  9  2  0
  8 24  1  0
  9 10  1  0
 10 11  1  0
 10 17  1  0
 11 16  1  0
 11 12  1  0
 11 25  1  0
 12 13  1  0
 12 26  1  0
 12 27  1  0
 13 14  1  0
 13 28  1  0
 13 29  1  0
 14 15  1  0
 14 30  1  0
 14 37  1  0
 15 16  1  0
 15 31  1  0
 15 32  1  0
 16 33  1  0
 16 34  1  0
 17 35  1  0
 18 19  1  0
 18 36  1  0
 19 20  1  0
M  CHG  1  14   1
M  END
>  <i_m_ct_stereo_status>  (374) 
1

>  <s_m_source_file>  (374) 
/var/tmp/pbs.5076255.sched01/tmpj3mqheq3/1200r5s1sfv.sdf

>  <i_m_source_file_index>  (374) 
37

>  <i_lp_mmshare_version>  (374) 
48012

>  <i_f3d_flags>  (374) 
0

>  <s_epik_input>  (374) 
W2NIXTFbY0hdbm4oYzEyKVtjSF1jKFtjSF1uMiktYzNbY0hdbm4oW2NIXTMpW0NIXTRbQ0gyXVtDSDJdW05IXVtDSDJdW0NIMl00

>  <s_epik_cmdline>  (374) 
J2VwaWtfcHl0aG9uJywgJy1waHQnLCAnMi4wJywgJy1waCcsICc3LjAnLCAnLXRuJywgJzgnLCAnLW1hJywgJzIwMCcsICctaW1hZScsICc8aW5maWxlLm1hZT4nLCAnLW9tYWUnLCAnPG91dGZpbGUubWFlPic=

>  <r_lp_tautomer_probability>  (374) 
1

>  <r_epik_Ionization_Penalty>  (374) 
0.00192089

>  <r_epik_Ionization_Penalty_Charging>  (374) 
0.00191238

>  <r_epik_Ionization_Penalty_Neutral>  (374) 
8.50994e-06

>  <r_epik_State_Penalty>  (374) 
-0

>  <r_epik_Charging_Adjusted_Penalty>  (374) 
0.00191238

>  <i_epik_Tot_Q>  (374) 
1

>  <i_epik_Tot_abs_Q>  (374) 
1

>  <s_lp_Force_Field>  (374) 
OPLS3e

>  <r_lp_Energy>  (374) 
16.8911

>  <b_lp_Chiralities_Consistent>  (374) 
1

>  <s_lp_Variant>  (374) 
115:0-1

>  <s_i_glide_gridfile>  (374) 
pfpi4k_grid

>  <i_i_glide_lignum>  (374) 
37

>  <i_i_glide_rotatable_bonds>  (374) 
2

>  <r_i_docking_score>  (374) 
-3.50071

>  <r_i_glide_ligand_efficiency>  (374) 
-0.175036

>  <r_i_glide_ligand_efficiency_sa>  (374) 
-0.47512

>  <r_i_glide_ligand_efficiency_ln>  (374) 
-0.876113

>  <r_i_glide_gscore>  (374) 
-3.50071

>  <r_i_glide_lipo>  (374) 
-0.267337

>  <r_i_glide_hbond>  (374) 
-0.0187487

>  <r_i_glide_metal>  (374) 
-0

>  <r_i_glide_rewards>  (374) 
-1.6285

>  <r_i_glide_evdw>  (374) 
-23.0798

>  <r_i_glide_ecoul>  (374) 
-5.62148

>  <r_i_glide_erotb>  (374) 
0.492619

>  <r_i_glide_esite>  (374) 
-0.0815384

>  <r_i_glide_emodel>  (374) 
-36.9254

>  <r_i_glide_energy>  (374) 
-28.7013

>  <r_i_glide_einternal>  (374) 
1.94836

>  <r_i_glide_intrahb_reward>  (374) 
-0

>  <i_i_glide_confnum>  (374) 
3

>  <i_i_glide_posenum>  (374) 
14

>  <r_i_glide_eff_state_penalty>  (374) 
0

>  <ligand_id>  (374) 
115

>  <original_smiles>  (374) 
c1cc2ncc(-c3cnn(C4CCNCC4)c3)cn2n1

>  <smiles>  (374) 
[H]c1nn(C2([H])C([H])([H])C([H])([H])[N+]([H])([H])C([H])([H])C2([H])[H])c([H])c1-c1c([H])nc2c([H])c([H])nn2c1[H]

$$$$
115:0:2
     RDKit          3D

 37 40  0  0  1  0  0  0  0  0999 V2000
    8.0866   -3.0174   -1.0494 C   0  0  0  0  0  0  0  0  0  0  0  0
    6.9559   -2.9990   -1.8999 C   0  0  0  0  0  0  0  0  0  0  0  0
    5.9812   -2.3555   -1.1908 C   0  0  0  0  0  0  0  0  0  0  0  0
    4.7108   -2.0187   -1.4622 N   0  0  0  0  0  0  0  0  0  0  0  0
    4.0468   -1.3638   -0.5134 C   0  0  0  0  0  0  0  0  0  0  0  0
    4.5868   -0.9878    0.7509 C   0  0  0  0  0  0  0  0  0  0  0  0
    3.7916   -0.2595    1.7554 C   0  0  0  0  0  0  0  0  0  0  0  0
    4.0986   -0.0636    3.1303 C   0  0  0  0  0  0  0  0  0  0  0  0
    3.1649    0.6507    3.7384 N   0  0  0  0  0  0  0  0  0  0  0  0
    2.2232    0.8951    2.7926 N   0  0  0  0  0  0  0  0  0  0  0  0
    1.0348    1.6813    3.1263 C   0  0  0  0  0  0  0  0  0  0  0  0
    0.5748    1.4488    4.5903 C   0  0  0  0  0  0  0  0  0  0  0  0
   -0.7479    2.1596    4.9038 C   0  0  0  0  0  0  0  0  0  0  0  0
   -1.7898    1.7391    3.9457 N   0  0  0  0  0  0  0  0  0  0  0  0
   -1.4226    2.0653    2.5554 C   0  0  0  0  0  0  0  0  0  0  0  0
   -0.1288    1.3509    2.1635 C   0  0  0  0  0  0  0  0  0  0  0  0
    2.5992    0.3751    1.5687 C   0  0  0  0  0  0  0  0  0  0  0  0
    5.8994   -1.3357    1.0013 C   0  0  0  0  0  0  0  0  0  0  0  0
    6.5849   -2.0076    0.0362 N   0  0  0  0  0  0  0  0  0  0  0  0
    7.8928   -2.4100    0.0997 N   0  0  0  0  0  0  0  0  0  0  0  0
    9.0521   -3.4467   -1.2703 H   0  0  0  0  0  0  0  0  0  0  0  0
    6.8837   -3.4167   -2.8931 H   0  0  0  0  0  0  0  0  0  0  0  0
    3.0177   -1.1169   -0.7555 H   0  0  0  0  0  0  0  0  0  0  0  0
    4.9482   -0.4030    3.7035 H   0  0  0  0  0  0  0  0  0  0  0  0
    1.2944    2.7364    3.0071 H   0  0  0  0  0  0  0  0  0  0  0  0
    0.4601    0.3784    4.7610 H   0  0  0  0  0  0  0  0  0  0  0  0
    1.3362    1.7934    5.2925 H   0  0  0  0  0  0  0  0  0  0  0  0
   -1.0735    1.9330    5.9186 H   0  0  0  0  0  0  0  0  0  0  0  0
   -0.6205    3.2402    4.8419 H   0  0  0  0  0  0  0  0  0  0  0  0
   -1.9146    0.7373    3.9999 H   0  0  0  0  0  0  0  0  0  0  0  0
   -2.2296    1.7552    1.8898 H   0  0  0  0  0  0  0  0  0  0  0  0
   -1.3096    3.1457    2.4579 H   0  0  0  0  0  0  0  0  0  0  0  0
    0.1198    1.6458    1.1440 H   0  0  0  0  0  0  0  0  0  0  0  0
   -0.2935    0.2743    2.1497 H   0  0  0  0  0  0  0  0  0  0  0  0
    1.9911    0.4921    0.6858 H   0  0  0  0  0  0  0  0  0  0  0  0
    6.4381   -1.1002    1.9124 H   0  0  0  0  0  0  0  0  0  0  0  0
   -2.6743    2.1774    4.1633 H   0  0  0  0  0  0  0  0  0  0  0  0
  1 20  2  0
  1  2  1  0
  1 21  1  0
  2  3  2  0
  2 22  1  0
  3 19  1  0
  3  4  1  0
  4  5  2  0
  5  6  1  0
  5 23  1  0
  6  7  1  0
  6 18  2  0
  7 17  2  0
  7  8  1  0
  8  9  2  0
  8 24  1  0
  9 10  1  0
 10 11  1  0
 10 17  1  0
 11 16  1  0
 11 12  1  0
 11 25  1  0
 12 13  1  0
 12 26  1  0
 12 27  1  0
 13 14  1  0
 13 28  1  0
 13 29  1  0
 14 15  1  0
 14 30  1  0
 14 37  1  0
 15 16  1  0
 15 31  1  0
 15 32  1  0
 16 33  1  0
 16 34  1  0
 17 35  1  0
 18 19  1  0
 18 36  1  0
 19 20  1  0
M  CHG  1  14   1
M  END
>  <i_m_ct_stereo_status>  (375) 
1

>  <s_m_source_file>  (375) 
/var/tmp/pbs.5076255.sched01/tmpj3mqheq3/1200r5s1sfv.sdf

>  <i_m_source_file_index>  (375) 
37

>  <i_lp_mmshare_version>  (375) 
48012

>  <i_f3d_flags>  (375) 
0

>  <s_epik_input>  (375) 
W2NIXTFbY0hdbm4oYzEyKVtjSF1jKFtjSF1uMiktYzNbY0hdbm4oW2NIXTMpW0NIXTRbQ0gyXVtDSDJdW05IXVtDSDJdW0NIMl00

>  <s_epik_cmdline>  (375) 
J2VwaWtfcHl0aG9uJywgJy1waHQnLCAnMi4wJywgJy1waCcsICc3LjAnLCAnLXRuJywgJzgnLCAnLW1hJywgJzIwMCcsICctaW1hZScsICc8aW5maWxlLm1hZT4nLCAnLW9tYWUnLCAnPG91dGZpbGUubWFlPic=

>  <r_lp_tautomer_probability>  (375) 
1

>  <r_epik_Ionization_Penalty>  (375) 
0.00192089

>  <r_epik_Ionization_Penalty_Charging>  (375) 
0.00191238

>  <r_epik_Ionization_Penalty_Neutral>  (375) 
8.50994e-06

>  <r_epik_State_Penalty>  (375) 
-0

>  <r_epik_Charging_Adjusted_Penalty>  (375) 
0.00191238

>  <i_epik_Tot_Q>  (375) 
1

>  <i_epik_Tot_abs_Q>  (375) 
1

>  <s_lp_Force_Field>  (375) 
OPLS3e

>  <r_lp_Energy>  (375) 
16.8911

>  <b_lp_Chiralities_Consistent>  (375) 
1

>  <s_lp_Variant>  (375) 
115:0-1

>  <s_i_glide_gridfile>  (375) 
pfpi4k_grid

>  <i_i_glide_lignum>  (375) 
37

>  <i_i_glide_rotatable_bonds>  (375) 
2

>  <r_i_docking_score>  (375) 
-3.45308

>  <r_i_glide_ligand_efficiency>  (375) 
-0.172654

>  <r_i_glide_ligand_efficiency_sa>  (375) 
-0.468655

>  <r_i_glide_ligand_efficiency_ln>  (375) 
-0.864193

>  <r_i_glide_gscore>  (375) 
-3.45308

>  <r_i_glide_lipo>  (375) 
-0.259558

>  <r_i_glide_hbond>  (375) 
0

>  <r_i_glide_metal>  (375) 
-0

>  <r_i_glide_rewards>  (375) 
-1.57278

>  <r_i_glide_evdw>  (375) 
-26.7932

>  <r_i_glide_ecoul>  (375) 
-4.6668

>  <r_i_glide_erotb>  (375) 
0.492619

>  <r_i_glide_esite>  (375) 
-0.0736782

>  <r_i_glide_emodel>  (375) 
-39.3996

>  <r_i_glide_energy>  (375) 
-31.46

>  <r_i_glide_einternal>  (375) 
2.24308

>  <r_i_glide_intrahb_reward>  (375) 
-0

>  <i_i_glide_confnum>  (375) 
5

>  <i_i_glide_posenum>  (375) 
3

>  <r_i_glide_eff_state_penalty>  (375) 
0

>  <ligand_id>  (375) 
115

>  <original_smiles>  (375) 
c1cc2ncc(-c3cnn(C4CCNCC4)c3)cn2n1

>  <smiles>  (375) 
[H]c1nn(C2([H])C([H])([H])C([H])([H])[N+]([H])([H])C([H])([H])C2([H])[H])c([H])c1-c1c([H])nc2c([H])c([H])nn2c1[H]

$$$$
116:0:0
     RDKit          3D

 23 24  0  0  1  0  0  0  0  0999 V2000
    2.1670   -2.7901   -3.7630 C   0  0  0  0  0  0  0  0  0  0  0  0
    3.5567   -3.0039   -3.5502 O   0  0  0  0  0  0  0  0  0  0  0  0
    4.2352   -2.1041   -2.7544 C   0  0  0  0  0  0  0  0  0  0  0  0
    5.3823   -2.3354   -2.1996 C   0  0  0  0  0  0  0  0  0  0  0  0
    5.4811   -2.2322   -0.9941 N   0  0  0  0  0  0  0  0  0  0  0  0
    4.1802   -1.8898   -0.4580 C   0  0  1  0  0  0  0  0  0  0  0  0
    3.4916   -3.1248    0.1242 C   0  0  0  0  0  0  0  0  0  0  0  0
    2.7286   -3.1101    1.2291 C   0  0  0  0  0  0  0  0  0  0  0  0
    2.4820   -1.8502    1.9581 C   0  0  0  0  0  0  0  0  0  0  0  0
    1.8530   -1.8208    3.0120 O   0  0  0  0  0  0  0  0  0  0  0  0
    2.9979   -0.5378    1.3471 C   0  0  0  0  0  0  0  0  0  0  0  0
    4.3051   -0.7490    0.5701 C   0  0  0  0  0  0  0  0  0  0  0  0
    3.5048   -1.5266   -1.7097 N   0  0  0  0  0  0  0  0  0  0  0  0
    1.8119   -3.6348   -4.3430 H   0  0  0  0  0  0  0  0  0  0  0  0
    2.0521   -1.8690   -4.3223 H   0  0  0  0  0  0  0  0  0  0  0  0
    1.5555   -2.7185   -2.8554 H   0  0  0  0  0  0  0  0  0  0  0  0
    3.6009   -4.0464   -0.4356 H   0  0  0  0  0  0  0  0  0  0  0  0
    2.2105   -4.0076    1.5479 H   0  0  0  0  0  0  0  0  0  0  0  0
    2.2365   -0.1482    0.6720 H   0  0  0  0  0  0  0  0  0  0  0  0
    3.1437    0.2103    2.1237 H   0  0  0  0  0  0  0  0  0  0  0  0
    5.0920   -0.9827    1.2855 H   0  0  0  0  0  0  0  0  0  0  0  0
    4.6172    0.1614    0.0721 H   0  0  0  0  0  0  0  0  0  0  0  0
    2.4806   -1.5672   -1.6879 H   0  0  0  0  0  0  0  0  0  0  0  0
  1  2  1  0
  1 14  1  0
  1 15  1  0
  1 16  1  0
  2  3  1  0
  3 13  1  0
  3  4  2  0
  4  5  2  0
  5  6  1  0
  6 12  1  0
  6  7  1  0
  6 13  1  6
  7  8  2  0
  7 17  1  0
  8  9  1  0
  8 18  1  0
  9 10  2  0
  9 11  1  0
 11 12  1  0
 11 19  1  0
 11 20  1  0
 12 21  1  0
 12 22  1  0
 13 23  1  0
M  END
>  <i_m_ct_stereo_status>  (376) 
1

>  <s_m_source_file>  (376) 
/var/tmp/pbs.5076255.sched01/tmpj3mqheq3/1200r5s1sfv.sdf

>  <i_m_source_file_index>  (376) 
38

>  <i_lp_mmshare_version>  (376) 
48012

>  <i_f3d_flags>  (376) 
0

>  <s_epik_input>  (376) 
W0NIM11PQyhbTkhdMSk9Qz1OW0NAXTEyW0NIXT1bQ0hdQyg9TylbQ0gyXVtDSDJdMg==

>  <s_epik_cmdline>  (376) 
J2VwaWtfcHl0aG9uJywgJy1waHQnLCAnMi4wJywgJy1waCcsICc3LjAnLCAnLXRuJywgJzgnLCAnLW1hJywgJzIwMCcsICctaW1hZScsICc8aW5maWxlLm1hZT4nLCAnLW9tYWUnLCAnPG91dGZpbGUubWFlPic=

>  <r_lp_tautomer_probability>  (376) 
1

>  <r_epik_Ionization_Penalty>  (376) 
1.38002e-05

>  <r_epik_Ionization_Penalty_Charging>  (376) 
0

>  <r_epik_Ionization_Penalty_Neutral>  (376) 
1.38002e-05

>  <r_epik_State_Penalty>  (376) 
-0

>  <r_epik_Charging_Adjusted_Penalty>  (376) 
0

>  <i_epik_Tot_Q>  (376) 
0

>  <i_epik_Tot_abs_Q>  (376) 
0

>  <s_epik_Chemistry_Notes>  (376) 
This compound has an imine and may undergo hydrolysis.

>  <s_lp_Force_Field>  (376) 
OPLS3e

>  <r_lp_Energy>  (376) 
16.6081

>  <b_lp_Chiralities_Consistent>  (376) 
1

>  <s_lp_Variant>  (376) 
116:0-1

>  <s_i_glide_gridfile>  (376) 
pfpi4k_grid

>  <i_i_glide_lignum>  (376) 
38

>  <i_i_glide_rotatable_bonds>  (376) 
1

>  <r_i_docking_score>  (376) 
-4.38427

>  <r_i_glide_ligand_efficiency>  (376) 
-0.337251

>  <r_i_glide_ligand_efficiency_sa>  (376) 
-0.792991

>  <r_i_glide_ligand_efficiency_ln>  (376) 
-1.22983

>  <r_i_glide_gscore>  (376) 
-4.38427

>  <r_i_glide_lipo>  (376) 
-0.397061

>  <r_i_glide_hbond>  (376) 
-0.159166

>  <r_i_glide_metal>  (376) 
-0

>  <r_i_glide_rewards>  (376) 
-2.19417

>  <r_i_glide_evdw>  (376) 
-19.064

>  <r_i_glide_ecoul>  (376) 
-3.55319

>  <r_i_glide_erotb>  (376) 
0

>  <r_i_glide_esite>  (376) 
-0.147689

>  <r_i_glide_emodel>  (376) 
-28.4677

>  <r_i_glide_energy>  (376) 
-22.6172

>  <r_i_glide_einternal>  (376) 
0.0665119

>  <r_i_glide_intrahb_reward>  (376) 
-0

>  <i_i_glide_confnum>  (376) 
1

>  <i_i_glide_posenum>  (376) 
11

>  <r_i_glide_eff_state_penalty>  (376) 
0

>  <ligand_id>  (376) 
116

>  <original_smiles>  (376) 
COC1=C=NC2(C=CC(=O)CC2)N1

>  <smiles>  (376) 
[H]C1=C([H])C2(N=C=C(OC([H])([H])[H])N2[H])C([H])([H])C([H])([H])C1=O

$$$$
116:0:1
     RDKit          3D

 23 24  0  0  1  0  0  0  0  0999 V2000
    2.2875   -2.6758   -3.7812 C   0  0  0  0  0  0  0  0  0  0  0  0
    3.6462   -3.0799   -3.6407 O   0  0  0  0  0  0  0  0  0  0  0  0
    4.4783   -2.3015   -2.8598 C   0  0  0  0  0  0  0  0  0  0  0  0
    5.5485   -2.7217   -2.2575 C   0  0  0  0  0  0  0  0  0  0  0  0
    5.6415   -2.5706   -1.0609 N   0  0  0  0  0  0  0  0  0  0  0  0
    4.4172   -1.9630   -0.5787 C   0  0  1  0  0  0  0  0  0  0  0  0
    3.5161   -3.0363    0.0394 C   0  0  0  0  0  0  0  0  0  0  0  0
    3.2258   -3.1456    1.3454 C   0  0  0  0  0  0  0  0  0  0  0  0
    3.8725   -2.2540    2.3206 C   0  0  0  0  0  0  0  0  0  0  0  0
    3.5588   -2.2413    3.5057 O   0  0  0  0  0  0  0  0  0  0  0  0
    4.9942   -1.3307    1.8195 C   0  0  0  0  0  0  0  0  0  0  0  0
    4.7200   -0.8077    0.3982 C   0  0  0  0  0  0  0  0  0  0  0  0
    3.8604   -1.5350   -1.8660 N   0  0  0  0  0  0  0  0  0  0  0  0
    1.7589   -3.4376   -4.3425 H   0  0  0  0  0  0  0  0  0  0  0  0
    2.2750   -1.7347   -4.3209 H   0  0  0  0  0  0  0  0  0  0  0  0
    1.7483   -2.5375   -2.8415 H   0  0  0  0  0  0  0  0  0  0  0  0
    3.0254   -3.6968   -0.6628 H   0  0  0  0  0  0  0  0  0  0  0  0
    2.5100   -3.8841    1.6915 H   0  0  0  0  0  0  0  0  0  0  0  0
    5.1202   -0.4979    2.5036 H   0  0  0  0  0  0  0  0  0  0  0  0
    5.9262   -1.8979    1.8198 H   0  0  0  0  0  0  0  0  0  0  0  0
    5.5639   -0.2230    0.0371 H   0  0  0  0  0  0  0  0  0  0  0  0
    3.8682   -0.1272    0.4312 H   0  0  0  0  0  0  0  0  0  0  0  0
    2.8476   -1.4373   -1.8685 H   0  0  0  0  0  0  0  0  0  0  0  0
  1  2  1  0
  1 14  1  0
  1 15  1  0
  1 16  1  0
  2  3  1  0
  3 13  1  0
  3  4  2  0
  4  5  2  0
  5  6  1  0
  6 12  1  0
  6  7  1  0
  6 13  1  6
  7  8  2  0
  7 17  1  0
  8  9  1  0
  8 18  1  0
  9 10  2  0
  9 11  1  0
 11 12  1  0
 11 19  1  0
 11 20  1  0
 12 21  1  0
 12 22  1  0
 13 23  1  0
M  END
>  <i_m_ct_stereo_status>  (377) 
1

>  <s_m_source_file>  (377) 
/var/tmp/pbs.5076255.sched01/tmpj3mqheq3/1200r5s1sfv.sdf

>  <i_m_source_file_index>  (377) 
38

>  <i_lp_mmshare_version>  (377) 
48012

>  <i_f3d_flags>  (377) 
0

>  <s_epik_input>  (377) 
W0NIM11PQyhbTkhdMSk9Qz1OW0NAXTEyW0NIXT1bQ0hdQyg9TylbQ0gyXVtDSDJdMg==

>  <s_epik_cmdline>  (377) 
J2VwaWtfcHl0aG9uJywgJy1waHQnLCAnMi4wJywgJy1waCcsICc3LjAnLCAnLXRuJywgJzgnLCAnLW1hJywgJzIwMCcsICctaW1hZScsICc8aW5maWxlLm1hZT4nLCAnLW9tYWUnLCAnPG91dGZpbGUubWFlPic=

>  <r_lp_tautomer_probability>  (377) 
1

>  <r_epik_Ionization_Penalty>  (377) 
1.38002e-05

>  <r_epik_Ionization_Penalty_Charging>  (377) 
0

>  <r_epik_Ionization_Penalty_Neutral>  (377) 
1.38002e-05

>  <r_epik_State_Penalty>  (377) 
-0

>  <r_epik_Charging_Adjusted_Penalty>  (377) 
0

>  <i_epik_Tot_Q>  (377) 
0

>  <i_epik_Tot_abs_Q>  (377) 
0

>  <s_epik_Chemistry_Notes>  (377) 
This compound has an imine and may undergo hydrolysis.

>  <s_lp_Force_Field>  (377) 
OPLS3e

>  <r_lp_Energy>  (377) 
16.6081

>  <b_lp_Chiralities_Consistent>  (377) 
1

>  <s_lp_Variant>  (377) 
116:0-1

>  <s_i_glide_gridfile>  (377) 
pfpi4k_grid

>  <i_i_glide_lignum>  (377) 
38

>  <i_i_glide_rotatable_bonds>  (377) 
1

>  <r_i_docking_score>  (377) 
-4.35531

>  <r_i_glide_ligand_efficiency>  (377) 
-0.335024

>  <r_i_glide_ligand_efficiency_sa>  (377) 
-0.787753

>  <r_i_glide_ligand_efficiency_ln>  (377) 
-1.2217

>  <r_i_glide_gscore>  (377) 
-4.35531

>  <r_i_glide_lipo>  (377) 
-0.607896

>  <r_i_glide_hbond>  (377) 
-0.0139684

>  <r_i_glide_metal>  (377) 
-0

>  <r_i_glide_rewards>  (377) 
-2.19417

>  <r_i_glide_evdw>  (377) 
-19.7034

>  <r_i_glide_ecoul>  (377) 
-3.1325

>  <r_i_glide_erotb>  (377) 
0

>  <r_i_glide_esite>  (377) 
-0.0842247

>  <r_i_glide_emodel>  (377) 
-28.6128

>  <r_i_glide_energy>  (377) 
-22.8359

>  <r_i_glide_einternal>  (377) 
0.309927

>  <r_i_glide_intrahb_reward>  (377) 
-0

>  <i_i_glide_confnum>  (377) 
2

>  <i_i_glide_posenum>  (377) 
32

>  <r_i_glide_eff_state_penalty>  (377) 
0

>  <ligand_id>  (377) 
116

>  <original_smiles>  (377) 
COC1=C=NC2(C=CC(=O)CC2)N1

>  <smiles>  (377) 
[H]C1=C([H])C2(N=C=C(OC([H])([H])[H])N2[H])C([H])([H])C([H])([H])C1=O

$$$$
116:0:2
     RDKit          3D

 23 24  0  0  1  0  0  0  0  0999 V2000
    3.5535   -0.4650   -4.2103 C   0  0  0  0  0  0  0  0  0  0  0  0
    3.1187   -1.0857   -3.0094 O   0  0  0  0  0  0  0  0  0  0  0  0
    4.0382   -1.0516   -1.9940 C   0  0  0  0  0  0  0  0  0  0  0  0
    5.1756   -1.6781   -1.9113 C   0  0  0  0  0  0  0  0  0  0  0  0
    5.3644   -2.4755   -1.0294 N   0  0  0  0  0  0  0  0  0  0  0  0
    4.1310   -2.5655   -0.2512 C   0  0  1  0  0  0  0  0  0  0  0  0
    3.3792   -3.8325   -0.6567 C   0  0  0  0  0  0  0  0  0  0  0  0
    2.6960   -4.6014    0.1965 C   0  0  0  0  0  0  0  0  0  0  0  0
    2.6231   -4.2460    1.6318 C   0  0  0  0  0  0  0  0  0  0  0  0
    2.0498   -4.9560    2.4463 O   0  0  0  0  0  0  0  0  0  0  0  0
    3.2311   -2.9070    2.0881 C   0  0  0  0  0  0  0  0  0  0  0  0
    4.4509   -2.5132    1.2516 C   0  0  0  0  0  0  0  0  0  0  0  0
    3.4269   -1.4009   -0.8048 N   0  0  0  0  0  0  0  0  0  0  0  0
    2.9203   -0.7952   -5.0387 H   0  0  0  0  0  0  0  0  0  0  0  0
    4.5946   -0.6963   -4.4646 H   0  0  0  0  0  0  0  0  0  0  0  0
    3.4308    0.6158   -4.0757 H   0  0  0  0  0  0  0  0  0  0  0  0
    3.3598   -4.0556   -1.7193 H   0  0  0  0  0  0  0  0  0  0  0  0
    2.1047   -5.4296   -0.1778 H   0  0  0  0  0  0  0  0  0  0  0  0
    2.4759   -2.1278    1.9857 H   0  0  0  0  0  0  0  0  0  0  0  0
    3.5071   -2.9530    3.1349 H   0  0  0  0  0  0  0  0  0  0  0  0
    5.2590   -3.2081    1.4801 H   0  0  0  0  0  0  0  0  0  0  0  0
    4.8277   -1.5302    1.5162 H   0  0  0  0  0  0  0  0  0  0  0  0
    2.3812   -1.3495   -0.7845 H   0  0  0  0  0  0  0  0  0  0  0  0
  1  2  1  0
  1 14  1  0
  1 15  1  0
  1 16  1  0
  2  3  1  0
  3 13  1  0
  3  4  2  0
  4  5  2  0
  5  6  1  0
  6 12  1  0
  6  7  1  0
  6 13  1  6
  7  8  2  0
  7 17  1  0
  8  9  1  0
  8 18  1  0
  9 10  2  0
  9 11  1  0
 11 12  1  0
 11 19  1  0
 11 20  1  0
 12 21  1  0
 12 22  1  0
 13 23  1  0
M  END
>  <i_m_ct_stereo_status>  (378) 
1

>  <s_m_source_file>  (378) 
/var/tmp/pbs.5076255.sched01/tmpj3mqheq3/1200r5s1sfv.sdf

>  <i_m_source_file_index>  (378) 
38

>  <i_lp_mmshare_version>  (378) 
48012

>  <i_f3d_flags>  (378) 
0

>  <s_epik_input>  (378) 
W0NIM11PQyhbTkhdMSk9Qz1OW0NAXTEyW0NIXT1bQ0hdQyg9TylbQ0gyXVtDSDJdMg==

>  <s_epik_cmdline>  (378) 
J2VwaWtfcHl0aG9uJywgJy1waHQnLCAnMi4wJywgJy1waCcsICc3LjAnLCAnLXRuJywgJzgnLCAnLW1hJywgJzIwMCcsICctaW1hZScsICc8aW5maWxlLm1hZT4nLCAnLW9tYWUnLCAnPG91dGZpbGUubWFlPic=

>  <r_lp_tautomer_probability>  (378) 
1

>  <r_epik_Ionization_Penalty>  (378) 
1.38002e-05

>  <r_epik_Ionization_Penalty_Charging>  (378) 
0

>  <r_epik_Ionization_Penalty_Neutral>  (378) 
1.38002e-05

>  <r_epik_State_Penalty>  (378) 
-0

>  <r_epik_Charging_Adjusted_Penalty>  (378) 
0

>  <i_epik_Tot_Q>  (378) 
0

>  <i_epik_Tot_abs_Q>  (378) 
0

>  <s_epik_Chemistry_Notes>  (378) 
This compound has an imine and may undergo hydrolysis.

>  <s_lp_Force_Field>  (378) 
OPLS3e

>  <r_lp_Energy>  (378) 
16.6081

>  <b_lp_Chiralities_Consistent>  (378) 
1

>  <s_lp_Variant>  (378) 
116:0-1

>  <s_i_glide_gridfile>  (378) 
pfpi4k_grid

>  <i_i_glide_lignum>  (378) 
38

>  <i_i_glide_rotatable_bonds>  (378) 
1

>  <r_i_docking_score>  (378) 
-4.15748

>  <r_i_glide_ligand_efficiency>  (378) 
-0.319807

>  <r_i_glide_ligand_efficiency_sa>  (378) 
-0.751972

>  <r_i_glide_ligand_efficiency_ln>  (378) 
-1.16621

>  <r_i_glide_gscore>  (378) 
-4.15748

>  <r_i_glide_lipo>  (378) 
-0.291544

>  <r_i_glide_hbond>  (378) 
-0.16

>  <r_i_glide_metal>  (378) 
-0

>  <r_i_glide_rewards>  (378) 
-2.19417

>  <r_i_glide_evdw>  (378) 
-15.5728

>  <r_i_glide_ecoul>  (378) 
-4.06022

>  <r_i_glide_erotb>  (378) 
0

>  <r_i_glide_esite>  (378) 
-0.124092

>  <r_i_glide_emodel>  (378) 
-24.2039

>  <r_i_glide_energy>  (378) 
-19.6331

>  <r_i_glide_einternal>  (378) 
1.5961

>  <r_i_glide_intrahb_reward>  (378) 
-0

>  <i_i_glide_confnum>  (378) 
1

>  <i_i_glide_posenum>  (378) 
21

>  <r_i_glide_eff_state_penalty>  (378) 
0

>  <ligand_id>  (378) 
116

>  <original_smiles>  (378) 
COC1=C=NC2(C=CC(=O)CC2)N1

>  <smiles>  (378) 
[H]C1=C([H])C2(N=C=C(OC([H])([H])[H])N2[H])C([H])([H])C([H])([H])C1=O

$$$$
