1:0:0
     RDKit          3D

 53 56  0  0  1  0  0  0  0  0999 V2000
    1.0559   -1.3789    3.0016 C   0  0  0  0  0  0  0  0  0  0  0  0
    1.7694   -2.2750    2.1629 O   0  0  0  0  0  0  0  0  0  0  0  0
    2.6762   -1.6891    1.2765 C   0  0  2  0  0  0  0  0  0  0  0  0
    3.0524   -2.4978    0.0267 C   0  0  0  0  0  0  0  0  0  0  0  0
    3.9513   -3.4954   -0.1276 C   0  0  0  0  0  0  0  0  0  0  0  0
    4.8805   -3.4912   -1.3337 C   0  0  1  0  0  0  0  0  0  0  0  0
    4.5975   -2.5286   -2.5015 C   0  0  0  0  0  0  0  0  0  0  0  0
    6.2169   -3.2010   -0.6022 C   0  0  0  0  0  0  0  0  0  0  0  0
    5.9349   -3.4082    0.9232 C   0  0  1  0  0  0  0  0  0  0  0  0
    5.7957   -2.0657    1.4108 O   0  0  0  0  0  0  0  0  0  0  0  0
    4.8855   -1.5467    2.3624 C   0  0  2  0  0  0  0  0  0  0  0  0
    5.6440   -0.3051    2.8370 C   0  0  0  0  0  0  0  0  0  0  0  0
    4.5983   -2.4196    3.6230 C   0  0  0  0  0  0  0  0  0  0  0  0
    4.7629   -3.9303    3.4721 C   0  0  0  0  0  0  0  0  0  0  0  0
    3.9452   -4.5226    2.3188 C   0  0  2  0  0  0  0  0  0  0  0  0
    3.3927   -5.9663    2.5813 C   0  0  1  0  0  0  0  0  0  0  0  0
    2.5802   -6.1091    3.8844 C   0  0  0  0  0  0  0  0  0  0  0  0
    2.4273   -6.2353    1.5742 O   0  0  0  0  0  0  0  0  0  0  0  0
    4.4878   -7.0476    2.4982 C   0  0  0  0  0  0  0  0  0  0  0  0
    5.6059   -6.6832    1.5184 C   0  0  0  0  0  0  0  0  0  0  0  0
    5.1166   -5.7364    0.4159 C   0  0  0  0  0  0  0  0  0  0  0  0
    4.6819   -4.3094    0.9407 C   0  0  1  0  0  0  0  0  0  0  0  0
    3.7182   -0.9419    1.8473 O   0  0  0  0  0  0  0  0  0  0  0  0
    0.4404   -1.9727    3.6780 H   0  0  0  0  0  0  0  0  0  0  0  0
    0.3955   -0.7225    2.4328 H   0  0  0  0  0  0  0  0  0  0  0  0
    1.7287   -0.7681    3.6049 H   0  0  0  0  0  0  0  0  0  0  0  0
    2.0959   -0.8692    0.8736 H   0  0  0  0  0  0  0  0  0  0  0  0
    2.8015   -1.9421   -0.8601 H   0  0  0  0  0  0  0  0  0  0  0  0
    4.8848   -4.4891   -1.7744 H   0  0  0  0  0  0  0  0  0  0  0  0
    3.6187   -2.7171   -2.9437 H   0  0  0  0  0  0  0  0  0  0  0  0
    5.3319   -2.6815   -3.2936 H   0  0  0  0  0  0  0  0  0  0  0  0
    4.6494   -1.4807   -2.2093 H   0  0  0  0  0  0  0  0  0  0  0  0
    7.0028   -3.8545   -0.9693 H   0  0  0  0  0  0  0  0  0  0  0  0
    6.5726   -2.1886   -0.7940 H   0  0  0  0  0  0  0  0  0  0  0  0
    6.7865   -3.8667    1.4222 H   0  0  0  0  0  0  0  0  0  0  0  0
    5.8096    0.3383    1.9722 H   0  0  0  0  0  0  0  0  0  0  0  0
    6.6154   -0.5832    3.2429 H   0  0  0  0  0  0  0  0  0  0  0  0
    5.0674    0.2400    3.5893 H   0  0  0  0  0  0  0  0  0  0  0  0
    5.2551   -2.0946    4.4278 H   0  0  0  0  0  0  0  0  0  0  0  0
    3.5953   -2.1888    3.9777 H   0  0  0  0  0  0  0  0  0  0  0  0
    5.8091   -4.2206    3.4230 H   0  0  0  0  0  0  0  0  0  0  0  0
    4.4086   -4.3324    4.4137 H   0  0  0  0  0  0  0  0  0  0  0  0
    3.0203   -4.0022    2.3068 H   0  0  0  0  0  0  0  0  0  0  0  0
    3.2276   -6.1310    4.7608 H   0  0  0  0  0  0  0  0  0  0  0  0
    2.0182   -7.0449    3.8857 H   0  0  0  0  0  0  0  0  0  0  0  0
    1.8682   -5.2898    4.0050 H   0  0  0  0  0  0  0  0  0  0  0  0
    2.8724   -6.2014    0.7409 H   0  0  0  0  0  0  0  0  0  0  0  0
    4.9321   -7.2127    3.4820 H   0  0  0  0  0  0  0  0  0  0  0  0
    4.0336   -7.9993    2.2125 H   0  0  0  0  0  0  0  0  0  0  0  0
    6.4237   -6.2119    2.0658 H   0  0  0  0  0  0  0  0  0  0  0  0
    6.0136   -7.5996    1.0896 H   0  0  0  0  0  0  0  0  0  0  0  0
    5.9451   -5.6916   -0.2864 H   0  0  0  0  0  0  0  0  0  0  0  0
    4.3126   -6.2131   -0.1495 H   0  0  0  0  0  0  0  0  0  0  0  0
  1  2  1  0
  1 24  1  0
  1 25  1  0
  1 26  1  0
  2  3  1  0
  3 23  1  0
  3  4  1  0
  3 27  1  6
  4  5  2  3
  4 28  1  0
  5 22  1  0
  5  6  1  0
  6  7  1  0
  6  8  1  0
  6 29  1  6
  7 30  1  0
  7 31  1  0
  7 32  1  0
  8  9  1  0
  8 33  1  0
  8 34  1  0
  9 22  1  0
  9 10  1  0
  9 35  1  1
 10 11  1  0
 11 12  1  1
 11 13  1  0
 11 23  1  0
 12 36  1  0
 12 37  1  0
 12 38  1  0
 13 14  1  0
 13 39  1  0
 13 40  1  0
 14 15  1  0
 14 41  1  0
 14 42  1  0
 15 22  1  0
 15 16  1  0
 15 43  1  6
 16 17  1  0
 16 18  1  6
 16 19  1  0
 17 44  1  0
 17 45  1  0
 17 46  1  0
 18 47  1  0
 19 20  1  0
 19 48  1  0
 19 49  1  0
 20 21  1  0
 20 50  1  0
 20 51  1  0
 22 21  1  6
 21 52  1  0
 21 53  1  0
M  END
>  <i_m_ct_stereo_status>  (1) 
1

>  <s_m_source_file>  (1) 
/var/tmp/pbs.5076255.sched01/tmp7me73ahx/0ll6f151o.sdf

>  <i_m_source_file_index>  (1) 
2

>  <i_lp_mmshare_version>  (1) 
48012

>  <i_f3d_flags>  (1) 
0

>  <s_epik_input>  (1) 
W0NIM11bQ0BIXTFbQ0gyXVtDQEhdMk9bQ0BAXShbQ0gzXSkoT1tDQEhdKE9bQ0gzXSkvW0NIXT1DLzFbQ0BAXTIzNClbQ0gyXVtDSDJdW0NAQEhdM1tDQEBdKFtDSDNdKShbT0hdKVtDSDJdW0NIMl1bQ0gyXTQ=

>  <s_epik_cmdline>  (1) 
J2VwaWtfcHl0aG9uJywgJy1waHQnLCAnMi4wJywgJy1waCcsICc3LjAnLCAnLXRuJywgJzgnLCAnLW1hJywgJzIwMCcsICctaW1hZScsICc8aW5maWxlLm1hZT4nLCAnLW9tYWUnLCAnPG91dGZpbGUubWFlPic=

>  <r_lp_tautomer_probability>  (1) 
1

>  <r_epik_Ionization_Penalty>  (1) 
3.66519e-07

>  <r_epik_Ionization_Penalty_Charging>  (1) 
0

>  <r_epik_Ionization_Penalty_Neutral>  (1) 
3.66519e-07

>  <r_epik_State_Penalty>  (1) 
-0

>  <r_epik_Charging_Adjusted_Penalty>  (1) 
0

>  <i_epik_Tot_Q>  (1) 
0

>  <i_epik_Tot_abs_Q>  (1) 
0

>  <s_epik_Chemistry_Notes>  (1) 
This compound contains an acetal/aminal-like group ( X-CH(R)-Y where X, Y are N, S, or O) that may be acid/base labile, releasing an aldehyde.

>  <s_lp_Force_Field>  (1) 
OPLS3e

>  <r_lp_Energy>  (1) 
82.017

>  <b_lp_Chiralities_Consistent>  (1) 
1

>  <s_lp_Variant>  (1) 
1:0-1

>  <s_i_glide_gridfile>  (1) 
pfpi4k_grid

>  <i_i_glide_lignum>  (1) 
2

>  <i_i_glide_rotatable_bonds>  (1) 
2

>  <r_i_docking_score>  (1) 
-2.96844

>  <r_i_glide_ligand_efficiency>  (1) 
-0.129062

>  <r_i_glide_ligand_efficiency_sa>  (1) 
-0.367036

>  <r_i_glide_ligand_efficiency_ln>  (1) 
-0.717795

>  <r_i_glide_gscore>  (1) 
-2.96844

>  <r_i_glide_lipo>  (1) 
-0.686812

>  <r_i_glide_hbond>  (1) 
0

>  <r_i_glide_metal>  (1) 
-0

>  <r_i_glide_rewards>  (1) 
-1.31094

>  <r_i_glide_evdw>  (1) 
-16.7313

>  <r_i_glide_ecoul>  (1) 
-0.53428

>  <r_i_glide_erotb>  (1) 
0

>  <r_i_glide_esite>  (1) 
-0.053982

>  <r_i_glide_emodel>  (1) 
-20.598

>  <r_i_glide_energy>  (1) 
-17.2656

>  <r_i_glide_einternal>  (1) 
0.66185

>  <r_i_glide_intrahb_reward>  (1) 
-0

>  <i_i_glide_confnum>  (1) 
2

>  <i_i_glide_posenum>  (1) 
24

>  <r_i_glide_eff_state_penalty>  (1) 
0

>  <ligand_id>  (1) 
1

>  <original_smiles>  (1) 
COC1C=C2C(C)CC3OC(C)(CCC4C(C)(O)CCCC234)O1

>  <smiles>  (1) 
[H]OC1(C([H])([H])[H])C([H])([H])C([H])([H])C([H])([H])C23C4=C([H])C([H])(OC([H])([H])[H])OC(C([H])([H])[H])(OC2([H])C([H])([H])C4([H])C([H])([H])[H])C([H])([H])C([H])([H])C13[H]

$$$$
1:0:1
     RDKit          3D

 53 56  0  0  1  0  0  0  0  0999 V2000
   -0.3319   -3.4260    5.5156 C   0  0  0  0  0  0  0  0  0  0  0  0
   -0.5989   -2.1747    4.8682 O   0  0  0  0  0  0  0  0  0  0  0  0
   -1.0474   -1.1178    5.6576 C   0  0  2  0  0  0  0  0  0  0  0  0
   -1.5006    0.1762    4.9545 C   0  0  0  0  0  0  0  0  0  0  0  0
   -0.7675    1.2264    4.4993 C   0  0  0  0  0  0  0  0  0  0  0  0
   -1.2113    2.6648    4.7823 C   0  0  1  0  0  0  0  0  0  0  0  0
   -2.6257    2.9259    5.3248 C   0  0  0  0  0  0  0  0  0  0  0  0
   -0.0881    3.0765    5.7638 C   0  0  0  0  0  0  0  0  0  0  0  0
    1.0060    1.9615    5.6707 C   0  0  1  0  0  0  0  0  0  0  0  0
    0.7310    1.1685    6.8223 O   0  0  0  0  0  0  0  0  0  0  0  0
    0.8465   -0.2210    6.9852 C   0  0  2  0  0  0  0  0  0  0  0  0
    1.0851   -0.3449    8.4882 C   0  0  0  0  0  0  0  0  0  0  0  0
    2.0644   -0.9381    6.2739 C   0  0  0  0  0  0  0  0  0  0  0  0
    2.6125   -0.2654    4.9971 C   0  0  0  0  0  0  0  0  0  0  0  0
    1.5144   -0.0132    3.9588 C   0  0  2  0  0  0  0  0  0  0  0  0
    1.9856   -0.1713    2.4698 C   0  0  1  0  0  0  0  0  0  0  0  0
    2.6199   -1.5314    2.1242 C   0  0  0  0  0  0  0  0  0  0  0  0
    0.8010   -0.1570    1.6993 O   0  0  0  0  0  0  0  0  0  0  0  0
    2.9158    0.9700    2.0252 C   0  0  0  0  0  0  0  0  0  0  0  0
    2.6093    2.2893    2.7364 C   0  0  0  0  0  0  0  0  0  0  0  0
    1.1453    2.3681    3.1825 C   0  0  0  0  0  0  0  0  0  0  0  0
    0.7486    1.3169    4.2911 C   0  0  1  0  0  0  0  0  0  0  0  0
   -0.3664   -0.9414    6.8796 O   0  0  0  0  0  0  0  0  0  0  0  0
    0.0842   -4.0671    4.7272 H   0  0  0  0  0  0  0  0  0  0  0  0
   -1.2403   -3.8952    5.9129 H   0  0  0  0  0  0  0  0  0  0  0  0
    0.3868   -3.3771    6.3146 H   0  0  0  0  0  0  0  0  0  0  0  0
   -2.0167   -1.4979    5.9738 H   0  0  0  0  0  0  0  0  0  0  0  0
   -2.5298    0.4205    5.1952 H   0  0  0  0  0  0  0  0  0  0  0  0
   -1.1437    3.2258    3.8570 H   0  0  0  0  0  0  0  0  0  0  0  0
   -3.3735    2.5835    4.6138 H   0  0  0  0  0  0  0  0  0  0  0  0
   -2.7751    3.9925    5.4402 H   0  0  0  0  0  0  0  0  0  0  0  0
   -2.7960    2.4696    6.2983 H   0  0  0  0  0  0  0  0  0  0  0  0
    0.3041    4.0545    5.4994 H   0  0  0  0  0  0  0  0  0  0  0  0
   -0.4511    3.1668    6.7891 H   0  0  0  0  0  0  0  0  0  0  0  0
    2.0132    2.3849    5.7440 H   0  0  0  0  0  0  0  0  0  0  0  0
    0.2635    0.1028    9.0463 H   0  0  0  0  0  0  0  0  0  0  0  0
    2.0101    0.1563    8.7630 H   0  0  0  0  0  0  0  0  0  0  0  0
    1.1519   -1.4086    8.7736 H   0  0  0  0  0  0  0  0  0  0  0  0
    2.9015   -1.0210    7.0094 H   0  0  0  0  0  0  0  0  0  0  0  0
    1.8064   -1.9413    5.9721 H   0  0  0  0  0  0  0  0  0  0  0  0
    3.2528    0.5995    5.1717 H   0  0  0  0  0  0  0  0  0  0  0  0
    3.2519   -1.0357    4.6076 H   0  0  0  0  0  0  0  0  0  0  0  0
    0.8263   -0.8337    3.9747 H   0  0  0  0  0  0  0  0  0  0  0  0
    3.6323   -1.6307    2.5265 H   0  0  0  0  0  0  0  0  0  0  0  0
    2.7053   -1.6670    1.0411 H   0  0  0  0  0  0  0  0  0  0  0  0
    2.0220   -2.3612    2.5153 H   0  0  0  0  0  0  0  0  0  0  0  0
    0.9993   -0.3229    0.7609 H   0  0  0  0  0  0  0  0  0  0  0  0
    3.9591    0.7198    2.2285 H   0  0  0  0  0  0  0  0  0  0  0  0
    2.8372    1.1001    0.9506 H   0  0  0  0  0  0  0  0  0  0  0  0
    3.2540    2.4010    3.6105 H   0  0  0  0  0  0  0  0  0  0  0  0
    2.8378    3.1385    2.0859 H   0  0  0  0  0  0  0  0  0  0  0  0
    1.0067    3.3981    3.5117 H   0  0  0  0  0  0  0  0  0  0  0  0
    0.4935    2.2796    2.3052 H   0  0  0  0  0  0  0  0  0  0  0  0
  1  2  1  0
  1 24  1  0
  1 25  1  0
  1 26  1  0
  2  3  1  0
  3 23  1  0
  3  4  1  0
  3 27  1  1
  4  5  2  3
  4 28  1  0
  5 22  1  0
  5  6  1  0
  6  7  1  0
  6  8  1  0
  6 29  1  6
  7 30  1  0
  7 31  1  0
  7 32  1  0
  8  9  1  0
  8 33  1  0
  8 34  1  0
  9 22  1  0
  9 10  1  0
  9 35  1  6
 10 11  1  0
 11 12  1  1
 11 13  1  0
 11 23  1  0
 12 36  1  0
 12 37  1  0
 12 38  1  0
 13 14  1  0
 13 39  1  0
 13 40  1  0
 14 15  1  0
 14 41  1  0
 14 42  1  0
 15 22  1  0
 15 16  1  0
 15 43  1  1
 16 17  1  0
 16 18  1  6
 16 19  1  0
 17 44  1  0
 17 45  1  0
 17 46  1  0
 18 47  1  0
 19 20  1  0
 19 48  1  0
 19 49  1  0
 20 21  1  0
 20 50  1  0
 20 51  1  0
 22 21  1  6
 21 52  1  0
 21 53  1  0
M  END
>  <i_m_ct_stereo_status>  (2) 
1

>  <s_m_source_file>  (2) 
/var/tmp/pbs.5076255.sched01/tmp7me73ahx/0ll6f151o.sdf

>  <i_m_source_file_index>  (2) 
2

>  <i_lp_mmshare_version>  (2) 
48012

>  <i_f3d_flags>  (2) 
0

>  <s_epik_input>  (2) 
W0NIM11bQ0BIXTFbQ0gyXVtDQEhdMk9bQ0BAXShbQ0gzXSkoT1tDQEhdKE9bQ0gzXSkvW0NIXT1DLzFbQ0BAXTIzNClbQ0gyXVtDSDJdW0NAQEhdM1tDQEBdKFtDSDNdKShbT0hdKVtDSDJdW0NIMl1bQ0gyXTQ=

>  <s_epik_cmdline>  (2) 
J2VwaWtfcHl0aG9uJywgJy1waHQnLCAnMi4wJywgJy1waCcsICc3LjAnLCAnLXRuJywgJzgnLCAnLW1hJywgJzIwMCcsICctaW1hZScsICc8aW5maWxlLm1hZT4nLCAnLW9tYWUnLCAnPG91dGZpbGUubWFlPic=

>  <r_lp_tautomer_probability>  (2) 
1

>  <r_epik_Ionization_Penalty>  (2) 
3.66519e-07

>  <r_epik_Ionization_Penalty_Charging>  (2) 
0

>  <r_epik_Ionization_Penalty_Neutral>  (2) 
3.66519e-07

>  <r_epik_State_Penalty>  (2) 
-0

>  <r_epik_Charging_Adjusted_Penalty>  (2) 
0

>  <i_epik_Tot_Q>  (2) 
0

>  <i_epik_Tot_abs_Q>  (2) 
0

>  <s_epik_Chemistry_Notes>  (2) 
This compound contains an acetal/aminal-like group ( X-CH(R)-Y where X, Y are N, S, or O) that may be acid/base labile, releasing an aldehyde.

>  <s_lp_Force_Field>  (2) 
OPLS3e

>  <r_lp_Energy>  (2) 
82.017

>  <b_lp_Chiralities_Consistent>  (2) 
1

>  <s_lp_Variant>  (2) 
1:0-1

>  <s_i_glide_gridfile>  (2) 
pfpi4k_grid

>  <i_i_glide_lignum>  (2) 
2

>  <i_i_glide_rotatable_bonds>  (2) 
2

>  <r_i_docking_score>  (2) 
-2.49548

>  <r_i_glide_ligand_efficiency>  (2) 
-0.108499

>  <r_i_glide_ligand_efficiency_sa>  (2) 
-0.308558

>  <r_i_glide_ligand_efficiency_ln>  (2) 
-0.603431

>  <r_i_glide_gscore>  (2) 
-2.49548

>  <r_i_glide_lipo>  (2) 
-0.051087

>  <r_i_glide_hbond>  (2) 
-0.162314

>  <r_i_glide_metal>  (2) 
-0

>  <r_i_glide_rewards>  (2) 
-1.21064

>  <r_i_glide_evdw>  (2) 
-12.7747

>  <r_i_glide_ecoul>  (2) 
-2.4864

>  <r_i_glide_erotb>  (2) 
0

>  <r_i_glide_esite>  (2) 
-0.0597477

>  <r_i_glide_emodel>  (2) 
-16.8655

>  <r_i_glide_energy>  (2) 
-15.2611

>  <r_i_glide_einternal>  (2) 
1.55536

>  <r_i_glide_intrahb_reward>  (2) 
-0

>  <i_i_glide_confnum>  (2) 
1

>  <i_i_glide_posenum>  (2) 
29

>  <r_i_glide_eff_state_penalty>  (2) 
0

>  <ligand_id>  (2) 
1

>  <original_smiles>  (2) 
COC1C=C2C(C)CC3OC(C)(CCC4C(C)(O)CCCC234)O1

>  <smiles>  (2) 
[H]OC1(C([H])([H])[H])C([H])([H])C([H])([H])C([H])([H])C23C4=C([H])C([H])(OC([H])([H])[H])OC(C([H])([H])[H])(OC2([H])C([H])([H])C4([H])C([H])([H])[H])C([H])([H])C([H])([H])C13[H]

$$$$
1:0:2
     RDKit          3D

 53 56  0  0  1  0  0  0  0  0999 V2000
   -1.3318   -2.9308    6.3953 C   0  0  0  0  0  0  0  0  0  0  0  0
   -1.1073   -1.9595    5.3849 O   0  0  0  0  0  0  0  0  0  0  0  0
   -1.5183   -0.6554    5.6662 C   0  0  2  0  0  0  0  0  0  0  0  0
   -1.6622    0.3062    4.4975 C   0  0  0  0  0  0  0  0  0  0  0  0
   -0.7489    1.0541    3.8441 C   0  0  0  0  0  0  0  0  0  0  0  0
   -1.0695    2.5048    3.5090 C   0  0  1  0  0  0  0  0  0  0  0  0
   -2.5190    3.0200    3.6342 C   0  0  0  0  0  0  0  0  0  0  0  0
   -0.0811    3.2021    4.4776 C   0  0  0  0  0  0  0  0  0  0  0  0
    0.8782    2.0800    5.0005 C   0  0  1  0  0  0  0  0  0  0  0  0
    0.3502    1.7868    6.3064 O   0  0  0  0  0  0  0  0  0  0  0  0
    0.2147    0.5414    6.9602 C   0  0  2  0  0  0  0  0  0  0  0  0
    0.2013    0.9857    8.4319 C   0  0  0  0  0  0  0  0  0  0  0  0
    1.3869   -0.4771    6.7988 C   0  0  0  0  0  0  0  0  0  0  0  0
    2.2322   -0.3786    5.5301 C   0  0  0  0  0  0  0  0  0  0  0  0
    1.4064   -0.4303    4.2423 C   0  0  2  0  0  0  0  0  0  0  0  0
    2.1215   -1.1415    3.0435 C   0  0  1  0  0  0  0  0  0  0  0  0
    2.6338   -2.5624    3.3504 C   0  0  0  0  0  0  0  0  0  0  0  0
    1.1131   -1.3822    2.0793 O   0  0  0  0  0  0  0  0  0  0  0  0
    3.2332   -0.2814    2.4131 C   0  0  0  0  0  0  0  0  0  0  0  0
    2.9534    1.2130    2.5368 C   0  0  0  0  0  0  0  0  0  0  0  0
    1.4581    1.5215    2.6128 C   0  0  0  0  0  0  0  0  0  0  0  0
    0.7733    0.9751    3.9235 C   0  0  1  0  0  0  0  0  0  0  0  0
   -1.0546   -0.0814    6.8617 O   0  0  0  0  0  0  0  0  0  0  0  0
   -0.8712   -3.8658    6.0769 H   0  0  0  0  0  0  0  0  0  0  0  0
   -2.3945   -3.1144    6.5521 H   0  0  0  0  0  0  0  0  0  0  0  0
   -0.8737   -2.6519    7.3429 H   0  0  0  0  0  0  0  0  0  0  0  0
   -2.5730   -0.8036    5.8957 H   0  0  0  0  0  0  0  0  0  0  0  0
   -2.6593    0.6802    4.4675 H   0  0  0  0  0  0  0  0  0  0  0  0
   -0.7888    2.6871    2.4715 H   0  0  0  0  0  0  0  0  0  0  0  0
   -3.1980    2.4779    2.9784 H   0  0  0  0  0  0  0  0  0  0  0  0
   -2.5653    4.0610    3.3152 H   0  0  0  0  0  0  0  0  0  0  0  0
   -2.9015    2.9715    4.6521 H   0  0  0  0  0  0  0  0  0  0  0  0
    0.4570    3.9919    3.9539 H   0  0  0  0  0  0  0  0  0  0  0  0
   -0.6006    3.6830    5.3081 H   0  0  0  0  0  0  0  0  0  0  0  0
    1.8954    2.4536    5.1126 H   0  0  0  0  0  0  0  0  0  0  0  0
   -0.6376    1.6642    8.6044 H   0  0  0  0  0  0  0  0  0  0  0  0
    1.1264    1.5155    8.6695 H   0  0  0  0  0  0  0  0  0  0  0  0
    0.0972    0.1252    9.0941 H   0  0  0  0  0  0  0  0  0  0  0  0
    2.0582   -0.3820    7.6533 H   0  0  0  0  0  0  0  0  0  0  0  0
    0.9829   -1.4839    6.8836 H   0  0  0  0  0  0  0  0  0  0  0  0
    2.8995    0.4780    5.5549 H   0  0  0  0  0  0  0  0  0  0  0  0
    2.8851   -1.2414    5.5776 H   0  0  0  0  0  0  0  0  0  0  0  0
    0.6284   -1.1389    4.4095 H   0  0  0  0  0  0  0  0  0  0  0  0
    3.5409   -2.5454    3.9543 H   0  0  0  0  0  0  0  0  0  0  0  0
    2.8781   -3.0950    2.4290 H   0  0  0  0  0  0  0  0  0  0  0  0
    1.8796   -3.1468    3.8818 H   0  0  0  0  0  0  0  0  0  0  0  0
    1.4043   -1.0913    1.2204 H   0  0  0  0  0  0  0  0  0  0  0  0
    4.1889   -0.4892    2.8935 H   0  0  0  0  0  0  0  0  0  0  0  0
    3.3593   -0.5534    1.3661 H   0  0  0  0  0  0  0  0  0  0  0  0
    3.4537    1.6139    3.4170 H   0  0  0  0  0  0  0  0  0  0  0  0
    3.3920    1.7334    1.6860 H   0  0  0  0  0  0  0  0  0  0  0  0
    1.3943    2.6029    2.5170 H   0  0  0  0  0  0  0  0  0  0  0  0
    0.9552    1.1376    1.7235 H   0  0  0  0  0  0  0  0  0  0  0  0
  1  2  1  0
  1 24  1  0
  1 25  1  0
  1 26  1  0
  2  3  1  0
  3 23  1  0
  3  4  1  0
  3 27  1  1
  4  5  2  3
  4 28  1  0
  5 22  1  0
  5  6  1  0
  6  7  1  0
  6  8  1  0
  6 29  1  6
  7 30  1  0
  7 31  1  0
  7 32  1  0
  8  9  1  0
  8 33  1  0
  8 34  1  0
  9 22  1  0
  9 10  1  0
  9 35  1  1
 10 11  1  0
 11 12  1  1
 11 13  1  0
 11 23  1  0
 12 36  1  0
 12 37  1  0
 12 38  1  0
 13 14  1  0
 13 39  1  0
 13 40  1  0
 14 15  1  0
 14 41  1  0
 14 42  1  0
 15 22  1  0
 15 16  1  0
 15 43  1  1
 16 17  1  0
 16 18  1  6
 16 19  1  0
 17 44  1  0
 17 45  1  0
 17 46  1  0
 18 47  1  0
 19 20  1  0
 19 48  1  0
 19 49  1  0
 20 21  1  0
 20 50  1  0
 20 51  1  0
 22 21  1  6
 21 52  1  0
 21 53  1  0
M  END
>  <i_m_ct_stereo_status>  (3) 
1

>  <s_m_source_file>  (3) 
/var/tmp/pbs.5076255.sched01/tmp7me73ahx/0ll6f151o.sdf

>  <i_m_source_file_index>  (3) 
2

>  <i_lp_mmshare_version>  (3) 
48012

>  <i_f3d_flags>  (3) 
0

>  <s_epik_input>  (3) 
W0NIM11bQ0BIXTFbQ0gyXVtDQEhdMk9bQ0BAXShbQ0gzXSkoT1tDQEhdKE9bQ0gzXSkvW0NIXT1DLzFbQ0BAXTIzNClbQ0gyXVtDSDJdW0NAQEhdM1tDQEBdKFtDSDNdKShbT0hdKVtDSDJdW0NIMl1bQ0gyXTQ=

>  <s_epik_cmdline>  (3) 
J2VwaWtfcHl0aG9uJywgJy1waHQnLCAnMi4wJywgJy1waCcsICc3LjAnLCAnLXRuJywgJzgnLCAnLW1hJywgJzIwMCcsICctaW1hZScsICc8aW5maWxlLm1hZT4nLCAnLW9tYWUnLCAnPG91dGZpbGUubWFlPic=

>  <r_lp_tautomer_probability>  (3) 
1

>  <r_epik_Ionization_Penalty>  (3) 
3.66519e-07

>  <r_epik_Ionization_Penalty_Charging>  (3) 
0

>  <r_epik_Ionization_Penalty_Neutral>  (3) 
3.66519e-07

>  <r_epik_State_Penalty>  (3) 
-0

>  <r_epik_Charging_Adjusted_Penalty>  (3) 
0

>  <i_epik_Tot_Q>  (3) 
0

>  <i_epik_Tot_abs_Q>  (3) 
0

>  <s_epik_Chemistry_Notes>  (3) 
This compound contains an acetal/aminal-like group ( X-CH(R)-Y where X, Y are N, S, or O) that may be acid/base labile, releasing an aldehyde.

>  <s_lp_Force_Field>  (3) 
OPLS3e

>  <r_lp_Energy>  (3) 
82.017

>  <b_lp_Chiralities_Consistent>  (3) 
1

>  <s_lp_Variant>  (3) 
1:0-1

>  <s_i_glide_gridfile>  (3) 
pfpi4k_grid

>  <i_i_glide_lignum>  (3) 
2

>  <i_i_glide_rotatable_bonds>  (3) 
2

>  <r_i_docking_score>  (3) 
-2.2869

>  <r_i_glide_ligand_efficiency>  (3) 
-0.0994306

>  <r_i_glide_ligand_efficiency_sa>  (3) 
-0.282768

>  <r_i_glide_ligand_efficiency_ln>  (3) 
-0.552994

>  <r_i_glide_gscore>  (3) 
-2.2869

>  <r_i_glide_lipo>  (3) 
0

>  <r_i_glide_hbond>  (3) 
-0.215397

>  <r_i_glide_metal>  (3) 
-0

>  <r_i_glide_rewards>  (3) 
-1.21064

>  <r_i_glide_evdw>  (3) 
-13.945

>  <r_i_glide_ecoul>  (3) 
-0.521488

>  <r_i_glide_erotb>  (3) 
0

>  <r_i_glide_esite>  (3) 
-0.0853926

>  <r_i_glide_emodel>  (3) 
-16.1655

>  <r_i_glide_energy>  (3) 
-14.4665

>  <r_i_glide_einternal>  (3) 
1.66557

>  <r_i_glide_intrahb_reward>  (3) 
-0

>  <i_i_glide_confnum>  (3) 
1

>  <i_i_glide_posenum>  (3) 
19

>  <r_i_glide_eff_state_penalty>  (3) 
0

>  <ligand_id>  (3) 
1

>  <original_smiles>  (3) 
COC1C=C2C(C)CC3OC(C)(CCC4C(C)(O)CCCC234)O1

>  <smiles>  (3) 
[H]OC1(C([H])([H])[H])C([H])([H])C([H])([H])C([H])([H])C23C4=C([H])C([H])(OC([H])([H])[H])OC(C([H])([H])[H])(OC2([H])C([H])([H])C4([H])C([H])([H])[H])C([H])([H])C([H])([H])C13[H]

$$$$
1:1:0
     RDKit          3D

 53 56  0  0  1  0  0  0  0  0999 V2000
    0.8586   -1.1541    3.1595 C   0  0  0  0  0  0  0  0  0  0  0  0
    1.6839   -2.2820    2.8387 O   0  0  0  0  0  0  0  0  0  0  0  0
    2.9816   -1.9387    2.4842 C   0  0  2  0  0  0  0  0  0  0  0  0
    3.0912   -1.3139    1.1275 C   0  0  0  0  0  0  0  0  0  0  0  0
    4.2673   -1.1571    0.5032 C   0  0  0  0  0  0  0  0  0  0  0  0
    5.5977   -0.8124    1.1965 C   0  0  1  0  0  0  0  0  0  0  0  0
    5.6543   -0.4848    2.6894 C   0  0  0  0  0  0  0  0  0  0  0  0
    6.5475   -1.9322    0.7739 C   0  0  0  0  0  0  0  0  0  0  0  0
    5.6764   -2.8772   -0.0656 C   0  0  1  0  0  0  0  0  0  0  0  0
    5.2620   -3.9362    0.8367 O   0  0  0  0  0  0  0  0  0  0  0  0
    4.0917   -4.0087    1.6391 C   0  0  2  0  0  0  0  0  0  0  0  0
    4.3725   -5.2909    2.4529 C   0  0  0  0  0  0  0  0  0  0  0  0
    2.8328   -4.2953    0.7378 C   0  0  0  0  0  0  0  0  0  0  0  0
    3.1774   -4.2266   -0.7477 C   0  0  0  0  0  0  0  0  0  0  0  0
    3.4499   -2.8522   -1.4423 C   0  0  2  0  0  0  0  0  0  0  0  0
    3.7195   -3.0135   -2.9906 C   0  0  1  0  0  0  0  0  0  0  0  0
    4.9308   -3.8739   -3.3831 C   0  0  0  0  0  0  0  0  0  0  0  0
    2.6028   -3.6335   -3.5654 O   0  0  0  0  0  0  0  0  0  0  0  0
    3.7330   -1.6678   -3.7345 C   0  0  0  0  0  0  0  0  0  0  0  0
    4.2194   -0.5525   -2.8281 C   0  0  0  0  0  0  0  0  0  0  0  0
    5.2244   -1.0524   -1.7889 C   0  0  0  0  0  0  0  0  0  0  0  0
    4.5921   -1.9988   -0.7218 C   0  0  1  0  0  0  0  0  0  0  0  0
    3.9126   -3.0166    2.6425 O   0  0  0  0  0  0  0  0  0  0  0  0
   -0.1717   -1.4654    3.3313 H   0  0  0  0  0  0  0  0  0  0  0  0
    0.8418   -0.4120    2.3623 H   0  0  0  0  0  0  0  0  0  0  0  0
    1.1969   -0.6635    4.0717 H   0  0  0  0  0  0  0  0  0  0  0  0
    3.3008   -1.2150    3.2397 H   0  0  0  0  0  0  0  0  0  0  0  0
    2.2657   -1.6340    0.5097 H   0  0  0  0  0  0  0  0  0  0  0  0
    5.9355    0.1113    0.7130 H   0  0  0  0  0  0  0  0  0  0  0  0
    4.9288    0.2849    2.9618 H   0  0  0  0  0  0  0  0  0  0  0  0
    6.6309   -0.1001    2.9535 H   0  0  0  0  0  0  0  0  0  0  0  0
    5.5205   -1.3614    3.3214 H   0  0  0  0  0  0  0  0  0  0  0  0
    7.3475   -1.5109    0.1668 H   0  0  0  0  0  0  0  0  0  0  0  0
    7.0143   -2.4459    1.6062 H   0  0  0  0  0  0  0  0  0  0  0  0
    6.2978   -3.3651   -0.8126 H   0  0  0  0  0  0  0  0  0  0  0  0
    5.2473   -5.1172    3.0879 H   0  0  0  0  0  0  0  0  0  0  0  0
    4.6014   -6.1134    1.7799 H   0  0  0  0  0  0  0  0  0  0  0  0
    3.5269   -5.5570    3.0834 H   0  0  0  0  0  0  0  0  0  0  0  0
    2.5190   -5.3184    0.9306 H   0  0  0  0  0  0  0  0  0  0  0  0
    1.9599   -3.7115    0.9893 H   0  0  0  0  0  0  0  0  0  0  0  0
    3.9622   -4.9388   -0.9685 H   0  0  0  0  0  0  0  0  0  0  0  0
    2.2570   -4.6164   -1.2012 H   0  0  0  0  0  0  0  0  0  0  0  0
    2.5307   -2.2884   -1.4156 H   0  0  0  0  0  0  0  0  0  0  0  0
    5.8868   -3.4693   -3.0521 H   0  0  0  0  0  0  0  0  0  0  0  0
    5.0116   -3.9785   -4.4690 H   0  0  0  0  0  0  0  0  0  0  0  0
    4.8902   -4.8908   -2.9924 H   0  0  0  0  0  0  0  0  0  0  0  0
    2.5898   -4.5275   -3.2527 H   0  0  0  0  0  0  0  0  0  0  0  0
    4.3740   -1.7287   -4.6205 H   0  0  0  0  0  0  0  0  0  0  0  0
    2.7485   -1.3998   -4.1219 H   0  0  0  0  0  0  0  0  0  0  0  0
    4.5960    0.2855   -3.4270 H   0  0  0  0  0  0  0  0  0  0  0  0
    3.3346   -0.1916   -2.3339 H   0  0  0  0  0  0  0  0  0  0  0  0
    6.0742   -1.5305   -2.2444 H   0  0  0  0  0  0  0  0  0  0  0  0
    5.6452   -0.1945   -1.3171 H   0  0  0  0  0  0  0  0  0  0  0  0
  1  2  1  0
  1 24  1  0
  1 25  1  0
  1 26  1  0
  2  3  1  0
  3 23  1  0
  3  4  1  0
  3 27  1  1
  4  5  2  3
  4 28  1  0
  5 22  1  0
  5  6  1  0
  6  7  1  0
  6  8  1  0
  6 29  1  6
  7 30  1  0
  7 31  1  0
  7 32  1  0
  8  9  1  0
  8 33  1  0
  8 34  1  0
  9 22  1  0
  9 10  1  0
  9 35  1  6
 10 11  1  0
 11 12  1  1
 11 13  1  0
 11 23  1  0
 12 36  1  0
 12 37  1  0
 12 38  1  0
 13 14  1  0
 13 39  1  0
 13 40  1  0
 14 15  1  0
 14 41  1  0
 14 42  1  0
 15 22  1  0
 15 16  1  0
 15 43  1  6
 16 17  1  0
 16 18  1  6
 16 19  1  0
 17 44  1  0
 17 45  1  0
 17 46  1  0
 18 47  1  0
 19 20  1  0
 19 48  1  0
 19 49  1  0
 20 21  1  0
 20 50  1  0
 20 51  1  0
 22 21  1  6
 21 52  1  0
 21 53  1  0
M  END
>  <i_m_ct_stereo_status>  (4) 
1

>  <s_m_source_file>  (4) 
/var/tmp/pbs.5076255.sched01/tmp7me73ahx/0ll6f151o.sdf

>  <i_m_source_file_index>  (4) 
3

>  <i_lp_mmshare_version>  (4) 
48012

>  <i_f3d_flags>  (4) 
0

>  <s_epik_input>  (4) 
W0NIM11bQ0BIXTFbQ0gyXVtDQEhdMk9bQ0BAXShbQ0gzXSkoT1tDQEhdKE9bQ0gzXSkvW0NIXT1DLzFbQ0BAXTIzNClbQ0gyXVtDSDJdW0NAQEhdM1tDQEBdKFtDSDNdKShbT0hdKVtDSDJdW0NIMl1bQ0gyXTQ=

>  <s_epik_cmdline>  (4) 
J2VwaWtfcHl0aG9uJywgJy1waHQnLCAnMi4wJywgJy1waCcsICc3LjAnLCAnLXRuJywgJzgnLCAnLW1hJywgJzIwMCcsICctaW1hZScsICc8aW5maWxlLm1hZT4nLCAnLW9tYWUnLCAnPG91dGZpbGUubWFlPic=

>  <r_lp_tautomer_probability>  (4) 
1

>  <r_epik_Ionization_Penalty>  (4) 
3.66519e-07

>  <r_epik_Ionization_Penalty_Charging>  (4) 
0

>  <r_epik_Ionization_Penalty_Neutral>  (4) 
3.66519e-07

>  <r_epik_State_Penalty>  (4) 
-0

>  <r_epik_Charging_Adjusted_Penalty>  (4) 
0

>  <i_epik_Tot_Q>  (4) 
0

>  <i_epik_Tot_abs_Q>  (4) 
0

>  <s_epik_Chemistry_Notes>  (4) 
This compound contains an acetal/aminal-like group ( X-CH(R)-Y where X, Y are N, S, or O) that may be acid/base labile, releasing an aldehyde.

>  <s_lp_Force_Field>  (4) 
OPLS3e

>  <r_lp_Energy>  (4) 
81.886

>  <b_lp_Chiralities_Consistent>  (4) 
1

>  <s_lp_Variant>  (4) 
1:0-2

>  <s_i_glide_gridfile>  (4) 
pfpi4k_grid

>  <i_i_glide_lignum>  (4) 
3

>  <i_i_glide_rotatable_bonds>  (4) 
2

>  <r_i_docking_score>  (4) 
-3.8126

>  <r_i_glide_ligand_efficiency>  (4) 
-0.165765

>  <r_i_glide_ligand_efficiency_sa>  (4) 
-0.471414

>  <r_i_glide_ligand_efficiency_ln>  (4) 
-0.92192

>  <r_i_glide_gscore>  (4) 
-3.8126

>  <r_i_glide_lipo>  (4) 
-0.680168

>  <r_i_glide_hbond>  (4) 
-0.32

>  <r_i_glide_metal>  (4) 
-0

>  <r_i_glide_rewards>  (4) 
-1.2248

>  <r_i_glide_evdw>  (4) 
-19.3724

>  <r_i_glide_ecoul>  (4) 
-4.10516

>  <r_i_glide_erotb>  (4) 
0

>  <r_i_glide_esite>  (4) 
-0.00323539

>  <r_i_glide_emodel>  (4) 
-26.8158

>  <r_i_glide_energy>  (4) 
-23.4776

>  <r_i_glide_einternal>  (4) 
1.39575

>  <r_i_glide_intrahb_reward>  (4) 
-0

>  <i_i_glide_confnum>  (4) 
1

>  <i_i_glide_posenum>  (4) 
36

>  <r_i_glide_eff_state_penalty>  (4) 
0

>  <ligand_id>  (4) 
1

>  <original_smiles>  (4) 
COC1C=C2C(C)CC3OC(C)(CCC4C(C)(O)CCCC234)O1

>  <smiles>  (4) 
[H]OC1(C([H])([H])[H])C([H])([H])C([H])([H])C([H])([H])C23C4=C([H])C([H])(OC([H])([H])[H])OC(C([H])([H])[H])(OC2([H])C([H])([H])C4([H])C([H])([H])[H])C([H])([H])C([H])([H])C13[H]

$$$$
1:1:1
     RDKit          3D

 53 56  0  0  1  0  0  0  0  0999 V2000
    0.8811   -1.2039    3.1332 C   0  0  0  0  0  0  0  0  0  0  0  0
    1.6888   -2.3396    2.8043 O   0  0  0  0  0  0  0  0  0  0  0  0
    2.9967   -1.9990    2.4501 C   0  0  2  0  0  0  0  0  0  0  0  0
    3.1048   -1.3556    1.0894 C   0  0  0  0  0  0  0  0  0  0  0  0
    4.2725   -1.1953    0.4660 C   0  0  0  0  0  0  0  0  0  0  0  0
    5.6127   -0.8930    1.1605 C   0  0  1  0  0  0  0  0  0  0  0  0
    5.6980   -0.6030    2.6682 C   0  0  0  0  0  0  0  0  0  0  0  0
    6.5405   -2.0170    0.7138 C   0  0  0  0  0  0  0  0  0  0  0  0
    5.6555   -2.9231   -0.1414 C   0  0  1  0  0  0  0  0  0  0  0  0
    5.2376   -3.9958    0.7392 O   0  0  0  0  0  0  0  0  0  0  0  0
    4.0697   -4.0683    1.5499 C   0  0  2  0  0  0  0  0  0  0  0  0
    4.3340   -5.3718    2.3410 C   0  0  0  0  0  0  0  0  0  0  0  0
    2.8019   -4.3114    0.6480 C   0  0  0  0  0  0  0  0  0  0  0  0
    3.1264   -4.2128   -0.8537 C   0  0  0  0  0  0  0  0  0  0  0  0
    3.4162   -2.8338   -1.5284 C   0  0  2  0  0  0  0  0  0  0  0  0
    3.6682   -2.9652   -3.0943 C   0  0  1  0  0  0  0  0  0  0  0  0
    4.8821   -3.8516   -3.4794 C   0  0  0  0  0  0  0  0  0  0  0  0
    2.5652   -3.5137   -3.7757 O   0  0  0  0  0  0  0  0  0  0  0  0
    3.7287   -1.6056   -3.8045 C   0  0  0  0  0  0  0  0  0  0  0  0
    4.2070   -0.5182   -2.8796 C   0  0  0  0  0  0  0  0  0  0  0  0
    5.1993   -1.0511   -1.8353 C   0  0  0  0  0  0  0  0  0  0  0  0
    4.5676   -2.0215   -0.7923 C   0  0  1  0  0  0  0  0  0  0  0  0
    3.9082   -3.0881    2.5801 O   0  0  0  0  0  0  0  0  0  0  0  0
   -0.1496   -1.5102    3.3061 H   0  0  0  0  0  0  0  0  0  0  0  0
    0.8665   -0.4616    2.3392 H   0  0  0  0  0  0  0  0  0  0  0  0
    1.2261   -0.7240    4.0457 H   0  0  0  0  0  0  0  0  0  0  0  0
    3.3246   -1.2954    3.2130 H   0  0  0  0  0  0  0  0  0  0  0  0
    2.2632   -1.6405    0.4869 H   0  0  0  0  0  0  0  0  0  0  0  0
    5.9702    0.0337    0.7077 H   0  0  0  0  0  0  0  0  0  0  0  0
    4.9975    0.1837    2.9629 H   0  0  0  0  0  0  0  0  0  0  0  0
    6.7073   -0.2643    2.9209 H   0  0  0  0  0  0  0  0  0  0  0  0
    5.5402   -1.4855    3.2837 H   0  0  0  0  0  0  0  0  0  0  0  0
    7.3500   -1.5911    0.1132 H   0  0  0  0  0  0  0  0  0  0  0  0
    6.9997   -2.5569    1.5374 H   0  0  0  0  0  0  0  0  0  0  0  0
    6.2641   -3.4050   -0.9001 H   0  0  0  0  0  0  0  0  0  0  0  0
    5.2115   -5.2281    2.9745 H   0  0  0  0  0  0  0  0  0  0  0  0
    4.5420   -6.1871    1.6505 H   0  0  0  0  0  0  0  0  0  0  0  0
    3.4855   -5.6367    2.9693 H   0  0  0  0  0  0  0  0  0  0  0  0
    2.4738   -5.3375    0.8208 H   0  0  0  0  0  0  0  0  0  0  0  0
    1.9403   -3.7288    0.9263 H   0  0  0  0  0  0  0  0  0  0  0  0
    3.9323   -4.9185   -1.0686 H   0  0  0  0  0  0  0  0  0  0  0  0
    2.2151   -4.5943   -1.3233 H   0  0  0  0  0  0  0  0  0  0  0  0
    2.4984   -2.2624   -1.4676 H   0  0  0  0  0  0  0  0  0  0  0  0
    5.8431   -3.4709   -3.1312 H   0  0  0  0  0  0  0  0  0  0  0  0
    4.9671   -3.9370   -4.5656 H   0  0  0  0  0  0  0  0  0  0  0  0
    4.8046   -4.8742   -3.0985 H   0  0  0  0  0  0  0  0  0  0  0  0
    1.7859   -3.3773   -3.2821 H   0  0  0  0  0  0  0  0  0  0  0  0
    4.3579   -1.6713   -4.6910 H   0  0  0  0  0  0  0  0  0  0  0  0
    2.7446   -1.3014   -4.1707 H   0  0  0  0  0  0  0  0  0  0  0  0
    4.5739    0.3218   -3.4661 H   0  0  0  0  0  0  0  0  0  0  0  0
    3.2908   -0.1589   -2.4328 H   0  0  0  0  0  0  0  0  0  0  0  0
    6.0293   -1.5322   -2.3300 H   0  0  0  0  0  0  0  0  0  0  0  0
    5.6526   -0.2189   -1.3433 H   0  0  0  0  0  0  0  0  0  0  0  0
  1  2  1  0
  1 24  1  0
  1 25  1  0
  1 26  1  0
  2  3  1  0
  3 23  1  0
  3  4  1  0
  3 27  1  1
  4  5  2  3
  4 28  1  0
  5 22  1  0
  5  6  1  0
  6  7  1  0
  6  8  1  0
  6 29  1  6
  7 30  1  0
  7 31  1  0
  7 32  1  0
  8  9  1  0
  8 33  1  0
  8 34  1  0
  9 22  1  0
  9 10  1  0
  9 35  1  6
 10 11  1  0
 11 12  1  1
 11 13  1  0
 11 23  1  0
 12 36  1  0
 12 37  1  0
 12 38  1  0
 13 14  1  0
 13 39  1  0
 13 40  1  0
 14 15  1  0
 14 41  1  0
 14 42  1  0
 15 22  1  0
 15 16  1  0
 15 43  1  6
 16 17  1  0
 16 18  1  6
 16 19  1  0
 17 44  1  0
 17 45  1  0
 17 46  1  0
 18 47  1  0
 19 20  1  0
 19 48  1  0
 19 49  1  0
 20 21  1  0
 20 50  1  0
 20 51  1  0
 22 21  1  6
 21 52  1  0
 21 53  1  0
M  END
>  <i_m_ct_stereo_status>  (5) 
1

>  <s_m_source_file>  (5) 
/var/tmp/pbs.5076255.sched01/tmp7me73ahx/0ll6f151o.sdf

>  <i_m_source_file_index>  (5) 
3

>  <i_lp_mmshare_version>  (5) 
48012

>  <i_f3d_flags>  (5) 
0

>  <s_epik_input>  (5) 
W0NIM11bQ0BIXTFbQ0gyXVtDQEhdMk9bQ0BAXShbQ0gzXSkoT1tDQEhdKE9bQ0gzXSkvW0NIXT1DLzFbQ0BAXTIzNClbQ0gyXVtDSDJdW0NAQEhdM1tDQEBdKFtDSDNdKShbT0hdKVtDSDJdW0NIMl1bQ0gyXTQ=

>  <s_epik_cmdline>  (5) 
J2VwaWtfcHl0aG9uJywgJy1waHQnLCAnMi4wJywgJy1waCcsICc3LjAnLCAnLXRuJywgJzgnLCAnLW1hJywgJzIwMCcsICctaW1hZScsICc8aW5maWxlLm1hZT4nLCAnLW9tYWUnLCAnPG91dGZpbGUubWFlPic=

>  <r_lp_tautomer_probability>  (5) 
1

>  <r_epik_Ionization_Penalty>  (5) 
3.66519e-07

>  <r_epik_Ionization_Penalty_Charging>  (5) 
0

>  <r_epik_Ionization_Penalty_Neutral>  (5) 
3.66519e-07

>  <r_epik_State_Penalty>  (5) 
-0

>  <r_epik_Charging_Adjusted_Penalty>  (5) 
0

>  <i_epik_Tot_Q>  (5) 
0

>  <i_epik_Tot_abs_Q>  (5) 
0

>  <s_epik_Chemistry_Notes>  (5) 
This compound contains an acetal/aminal-like group ( X-CH(R)-Y where X, Y are N, S, or O) that may be acid/base labile, releasing an aldehyde.

>  <s_lp_Force_Field>  (5) 
OPLS3e

>  <r_lp_Energy>  (5) 
81.886

>  <b_lp_Chiralities_Consistent>  (5) 
1

>  <s_lp_Variant>  (5) 
1:0-2

>  <s_i_glide_gridfile>  (5) 
pfpi4k_grid

>  <i_i_glide_lignum>  (5) 
3

>  <i_i_glide_rotatable_bonds>  (5) 
2

>  <r_i_docking_score>  (5) 
-3.13269

>  <r_i_glide_ligand_efficiency>  (5) 
-0.136204

>  <r_i_glide_ligand_efficiency_sa>  (5) 
-0.387345

>  <r_i_glide_ligand_efficiency_ln>  (5) 
-0.757512

>  <r_i_glide_gscore>  (5) 
-3.13269

>  <r_i_glide_lipo>  (5) 
-0.713116

>  <r_i_glide_hbond>  (5) 
-0.00490446

>  <r_i_glide_metal>  (5) 
-0

>  <r_i_glide_rewards>  (5) 
-1.22651

>  <r_i_glide_evdw>  (5) 
-20.6171

>  <r_i_glide_ecoul>  (5) 
-1.02954

>  <r_i_glide_erotb>  (5) 
0

>  <r_i_glide_esite>  (5) 
-0.00287365

>  <r_i_glide_emodel>  (5) 
-22.9152

>  <r_i_glide_energy>  (5) 
-21.6466

>  <r_i_glide_einternal>  (5) 
1.49299

>  <r_i_glide_intrahb_reward>  (5) 
-0

>  <i_i_glide_confnum>  (5) 
1

>  <i_i_glide_posenum>  (5) 
4

>  <r_i_glide_eff_state_penalty>  (5) 
0

>  <ligand_id>  (5) 
1

>  <original_smiles>  (5) 
COC1C=C2C(C)CC3OC(C)(CCC4C(C)(O)CCCC234)O1

>  <smiles>  (5) 
[H]OC1(C([H])([H])[H])C([H])([H])C([H])([H])C([H])([H])C23C4=C([H])C([H])(OC([H])([H])[H])OC(C([H])([H])[H])(OC2([H])C([H])([H])C4([H])C([H])([H])[H])C([H])([H])C([H])([H])C13[H]

$$$$
1:1:2
     RDKit          3D

 53 56  0  0  1  0  0  0  0  0999 V2000
    1.4968   -0.5737    3.1759 C   0  0  0  0  0  0  0  0  0  0  0  0
    2.0297   -1.8181    2.7065 O   0  0  0  0  0  0  0  0  0  0  0  0
    3.3376   -1.7333    2.2123 C   0  0  2  0  0  0  0  0  0  0  0  0
    3.3761   -1.0307    0.8842 C   0  0  0  0  0  0  0  0  0  0  0  0
    4.4797   -1.1036    0.1124 C   0  0  0  0  0  0  0  0  0  0  0  0
    5.9315   -1.0624    0.5899 C   0  0  1  0  0  0  0  0  0  0  0  0
    6.2413   -0.8711    2.0723 C   0  0  0  0  0  0  0  0  0  0  0  0
    6.5752   -2.3130   -0.0035 C   0  0  0  0  0  0  0  0  0  0  0  0
    5.4263   -3.0134   -0.7339 C   0  0  1  0  0  0  0  0  0  0  0  0
    4.9311   -4.0145    0.1812 O   0  0  0  0  0  0  0  0  0  0  0  0
    3.8615   -3.9245    1.1115 C   0  0  2  0  0  0  0  0  0  0  0  0
    3.9826   -5.2758    1.8332 C   0  0  0  0  0  0  0  0  0  0  0  0
    2.4818   -3.8690    0.3815 C   0  0  0  0  0  0  0  0  0  0  0  0
    2.6367   -3.7829   -1.1415 C   0  0  0  0  0  0  0  0  0  0  0  0
    3.1292   -2.4679   -1.7981 C   0  0  2  0  0  0  0  0  0  0  0  0
    3.1247   -2.5614   -3.3839 C   0  0  1  0  0  0  0  0  0  0  0  0
    4.0835   -3.6157   -3.9806 C   0  0  0  0  0  0  0  0  0  0  0  0
    1.8207   -2.8736   -3.8274 O   0  0  0  0  0  0  0  0  0  0  0  0
    3.3387   -1.2089   -4.0935 C   0  0  0  0  0  0  0  0  0  0  0  0
    4.1448   -0.2716   -3.2413 C   0  0  0  0  0  0  0  0  0  0  0  0
    5.1212   -1.0101   -2.2942 C   0  0  0  0  0  0  0  0  0  0  0  0
    4.4654   -1.8814   -1.1991 C   0  0  1  0  0  0  0  0  0  0  0  0
    4.0252   -2.9844    2.1790 O   0  0  0  0  0  0  0  0  0  0  0  0
    0.4484   -0.6744    3.4617 H   0  0  0  0  0  0  0  0  0  0  0  0
    1.5449    0.2167    2.4241 H   0  0  0  0  0  0  0  0  0  0  0  0
    2.0362   -0.2234    4.0575 H   0  0  0  0  0  0  0  0  0  0  0  0
    3.8751   -1.1289    2.9405 H   0  0  0  0  0  0  0  0  0  0  0  0
    2.4315   -1.1425    0.4066 H   0  0  0  0  0  0  0  0  0  0  0  0
    6.3815   -0.1904    0.1080 H   0  0  0  0  0  0  0  0  0  0  0  0
    5.7681    0.0252    2.4728 H   0  0  0  0  0  0  0  0  0  0  0  0
    7.3105   -0.7335    2.1754 H   0  0  0  0  0  0  0  0  0  0  0  0
    5.9969   -1.7344    2.6878 H   0  0  0  0  0  0  0  0  0  0  0  0
    7.3545   -2.0267   -0.7053 H   0  0  0  0  0  0  0  0  0  0  0  0
    7.0493   -2.9601    0.7347 H   0  0  0  0  0  0  0  0  0  0  0  0
    5.8270   -3.5670   -1.5831 H   0  0  0  0  0  0  0  0  0  0  0  0
    4.9437   -5.3262    2.3484 H   0  0  0  0  0  0  0  0  0  0  0  0
    3.9472   -6.0832    1.1011 H   0  0  0  0  0  0  0  0  0  0  0  0
    3.1827   -5.4100    2.5620 H   0  0  0  0  0  0  0  0  0  0  0  0
    1.9822   -4.8171    0.5859 H   0  0  0  0  0  0  0  0  0  0  0  0
    1.8123   -3.1255    0.7686 H   0  0  0  0  0  0  0  0  0  0  0  0
    3.2983   -4.5874   -1.4284 H   0  0  0  0  0  0  0  0  0  0  0  0
    1.6473   -3.9939   -1.5488 H   0  0  0  0  0  0  0  0  0  0  0  0
    2.3679   -1.7326   -1.6663 H   0  0  0  0  0  0  0  0  0  0  0  0
    5.1317   -3.4359   -3.7565 H   0  0  0  0  0  0  0  0  0  0  0  0
    3.9916   -3.6604   -5.0623 H   0  0  0  0  0  0  0  0  0  0  0  0
    3.8770   -4.6186   -3.6444 H   0  0  0  0  0  0  0  0  0  0  0  0
    1.7805   -2.6982   -4.7683 H   0  0  0  0  0  0  0  0  0  0  0  0
    3.8275   -1.3274   -5.0594 H   0  0  0  0  0  0  0  0  0  0  0  0
    2.3939   -0.6996   -4.3149 H   0  0  0  0  0  0  0  0  0  0  0  0
    4.6065    0.5015   -3.8472 H   0  0  0  0  0  0  0  0  0  0  0  0
    3.3880    0.2642   -2.7025 H   0  0  0  0  0  0  0  0  0  0  0  0
    5.7536   -1.7236   -2.8139 H   0  0  0  0  0  0  0  0  0  0  0  0
    5.7891   -0.2677   -1.8867 H   0  0  0  0  0  0  0  0  0  0  0  0
  1  2  1  0
  1 24  1  0
  1 25  1  0
  1 26  1  0
  2  3  1  0
  3 23  1  0
  3  4  1  0
  3 27  1  1
  4  5  2  3
  4 28  1  0
  5 22  1  0
  5  6  1  0
  6  7  1  0
  6  8  1  0
  6 29  1  6
  7 30  1  0
  7 31  1  0
  7 32  1  0
  8  9  1  0
  8 33  1  0
  8 34  1  0
  9 22  1  0
  9 10  1  0
  9 35  1  6
 10 11  1  0
 11 12  1  1
 11 13  1  0
 11 23  1  0
 12 36  1  0
 12 37  1  0
 12 38  1  0
 13 14  1  0
 13 39  1  0
 13 40  1  0
 14 15  1  0
 14 41  1  0
 14 42  1  0
 15 22  1  0
 15 16  1  0
 15 43  1  6
 16 17  1  0
 16 18  1  6
 16 19  1  0
 17 44  1  0
 17 45  1  0
 17 46  1  0
 18 47  1  0
 19 20  1  0
 19 48  1  0
 19 49  1  0
 20 21  1  0
 20 50  1  0
 20 51  1  0
 22 21  1  6
 21 52  1  0
 21 53  1  0
M  END
>  <i_m_ct_stereo_status>  (6) 
1

>  <s_m_source_file>  (6) 
/var/tmp/pbs.5076255.sched01/tmp7me73ahx/0ll6f151o.sdf

>  <i_m_source_file_index>  (6) 
3

>  <i_lp_mmshare_version>  (6) 
48012

>  <i_f3d_flags>  (6) 
0

>  <s_epik_input>  (6) 
W0NIM11bQ0BIXTFbQ0gyXVtDQEhdMk9bQ0BAXShbQ0gzXSkoT1tDQEhdKE9bQ0gzXSkvW0NIXT1DLzFbQ0BAXTIzNClbQ0gyXVtDSDJdW0NAQEhdM1tDQEBdKFtDSDNdKShbT0hdKVtDSDJdW0NIMl1bQ0gyXTQ=

>  <s_epik_cmdline>  (6) 
J2VwaWtfcHl0aG9uJywgJy1waHQnLCAnMi4wJywgJy1waCcsICc3LjAnLCAnLXRuJywgJzgnLCAnLW1hJywgJzIwMCcsICctaW1hZScsICc8aW5maWxlLm1hZT4nLCAnLW9tYWUnLCAnPG91dGZpbGUubWFlPic=

>  <r_lp_tautomer_probability>  (6) 
1

>  <r_epik_Ionization_Penalty>  (6) 
3.66519e-07

>  <r_epik_Ionization_Penalty_Charging>  (6) 
0

>  <r_epik_Ionization_Penalty_Neutral>  (6) 
3.66519e-07

>  <r_epik_State_Penalty>  (6) 
-0

>  <r_epik_Charging_Adjusted_Penalty>  (6) 
0

>  <i_epik_Tot_Q>  (6) 
0

>  <i_epik_Tot_abs_Q>  (6) 
0

>  <s_epik_Chemistry_Notes>  (6) 
This compound contains an acetal/aminal-like group ( X-CH(R)-Y where X, Y are N, S, or O) that may be acid/base labile, releasing an aldehyde.

>  <s_lp_Force_Field>  (6) 
OPLS3e

>  <r_lp_Energy>  (6) 
81.886

>  <b_lp_Chiralities_Consistent>  (6) 
1

>  <s_lp_Variant>  (6) 
1:0-2

>  <s_i_glide_gridfile>  (6) 
pfpi4k_grid

>  <i_i_glide_lignum>  (6) 
3

>  <i_i_glide_rotatable_bonds>  (6) 
2

>  <r_i_docking_score>  (6) 
-2.74407

>  <r_i_glide_ligand_efficiency>  (6) 
-0.119307

>  <r_i_glide_ligand_efficiency_sa>  (6) 
-0.339295

>  <r_i_glide_ligand_efficiency_ln>  (6) 
-0.663541

>  <r_i_glide_gscore>  (6) 
-2.74407

>  <r_i_glide_lipo>  (6) 
-0.656873

>  <r_i_glide_hbond>  (6) 
-0.32

>  <r_i_glide_metal>  (6) 
-0

>  <r_i_glide_rewards>  (6) 
-1.22409

>  <r_i_glide_evdw>  (6) 
-11.668

>  <r_i_glide_ecoul>  (6) 
0.303857

>  <r_i_glide_erotb>  (6) 
0

>  <r_i_glide_esite>  (6) 
-0.00528423

>  <r_i_glide_emodel>  (6) 
-12.8793

>  <r_i_glide_energy>  (6) 
-11.3642

>  <r_i_glide_einternal>  (6) 
2.05682

>  <r_i_glide_intrahb_reward>  (6) 
-0

>  <i_i_glide_confnum>  (6) 
1

>  <i_i_glide_posenum>  (6) 
13

>  <r_i_glide_eff_state_penalty>  (6) 
0

>  <ligand_id>  (6) 
1

>  <original_smiles>  (6) 
COC1C=C2C(C)CC3OC(C)(CCC4C(C)(O)CCCC234)O1

>  <smiles>  (6) 
[H]OC1(C([H])([H])[H])C([H])([H])C([H])([H])C([H])([H])C23C4=C([H])C([H])(OC([H])([H])[H])OC(C([H])([H])[H])(OC2([H])C([H])([H])C4([H])C([H])([H])[H])C([H])([H])C([H])([H])C13[H]

$$$$
2:0:0
     RDKit          3D

 36 39  0  0  1  0  0  0  0  0999 V2000
   -1.7856    0.5253    6.5867 O   0  0  0  0  0  0  0  0  0  0  0  0
   -1.6055   -0.3160    5.6762 C   0  0  0  0  0  0  0  0  0  0  0  0
   -2.1670   -1.4362    5.6613 O   0  0  0  0  0  0  0  0  0  0  0  0
   -0.6201    0.0149    4.5451 C   0  0  0  0  0  0  0  0  0  0  0  0
   -0.4988    1.4754    4.2571 N   0  0  0  0  0  0  0  0  0  0  0  0
   -1.6716    2.0751    3.5781 C   0  0  0  0  0  0  0  0  0  0  0  0
   -2.0271    3.4396    4.1628 C   0  0  0  0  0  0  0  0  0  0  0  0
   -0.8144    4.3763    4.0569 C   0  0  0  0  0  0  0  0  0  0  0  0
    0.5532    3.7282    4.4165 C   0  0  1  0  0  0  0  0  0  0  0  0
    0.4866    2.2278    4.6490 C   0  0  0  0  0  0  0  0  0  0  0  0
    1.6537    1.7950    5.4761 C   0  0  0  0  0  0  0  0  0  0  0  0
    2.4044    3.1433    5.5577 C   0  0  1  0  0  0  0  0  0  0  0  0
    2.9787    3.4550    4.1592 C   0  0  0  0  0  0  0  0  0  0  0  0
    1.7574    4.1641    3.5359 C   0  0  2  0  0  0  0  0  0  0  0  0
    1.9001    5.6579    3.8781 C   0  0  0  0  0  0  0  0  0  0  0  0
    1.7096    5.6465    5.4039 C   0  0  0  0  0  0  0  0  0  0  0  0
    1.2632    4.1921    5.6870 C   0  0  1  0  0  0  0  0  0  0  0  0
    0.3633   -0.4020    4.7543 H   0  0  0  0  0  0  0  0  0  0  0  0
   -0.9737   -0.4500    3.6258 H   0  0  0  0  0  0  0  0  0  0  0  0
   -1.4637    2.1150    2.5021 H   0  0  0  0  0  0  0  0  0  0  0  0
   -2.5220    1.4112    3.7317 H   0  0  0  0  0  0  0  0  0  0  0  0
   -2.8878    3.8540    3.6361 H   0  0  0  0  0  0  0  0  0  0  0  0
   -2.3286    3.3154    5.2071 H   0  0  0  0  0  0  0  0  0  0  0  0
   -0.7664    4.7125    3.0198 H   0  0  0  0  0  0  0  0  0  0  0  0
   -0.9839    5.2657    4.6622 H   0  0  0  0  0  0  0  0  0  0  0  0
    1.3173    1.4682    6.4599 H   0  0  0  0  0  0  0  0  0  0  0  0
    3.1546    3.1804    6.3462 H   0  0  0  0  0  0  0  0  0  0  0  0
    3.8499    4.1065    4.2086 H   0  0  0  0  0  0  0  0  0  0  0  0
    3.2685    2.5568    3.6122 H   0  0  0  0  0  0  0  0  0  0  0  0
    1.6464    3.9701    2.4724 H   0  0  0  0  0  0  0  0  0  0  0  0
    2.8589    6.0785    3.5773 H   0  0  0  0  0  0  0  0  0  0  0  0
    1.1201    6.2495    3.3920 H   0  0  0  0  0  0  0  0  0  0  0  0
    2.6280    5.9003    5.9355 H   0  0  0  0  0  0  0  0  0  0  0  0
    0.9441    6.3648    5.6984 H   0  0  0  0  0  0  0  0  0  0  0  0
    0.6901    4.0839    6.6107 H   0  0  0  0  0  0  0  0  0  0  0  0
    2.2340    1.0039    5.0012 H   0  0  0  0  0  0  0  0  0  0  0  0
  1  2  2  0
  2  3  1  0
  2  4  1  0
  4  5  1  0
  4 18  1  0
  4 19  1  0
  5 10  2  0
  5  6  1  0
  6  7  1  0
  6 20  1  0
  6 21  1  0
  7  8  1  0
  7 22  1  0
  7 23  1  0
  9  8  1  6
  8 24  1  0
  8 25  1  0
  9 14  1  0
  9 17  1  0
  9 10  1  0
 10 11  1  0
 11 12  1  0
 11 26  1  0
 11 36  1  0
 12 17  1  0
 12 13  1  0
 12 27  1  1
 13 14  1  0
 13 28  1  0
 13 29  1  0
 14 15  1  0
 14 30  1  6
 15 16  1  0
 15 31  1  0
 15 32  1  0
 16 17  1  0
 16 33  1  0
 16 34  1  0
 17 35  1  1
M  CHG  2   3  -1   5   1
M  END
>  <i_m_ct_stereo_status>  (7) 
1

>  <s_m_source_file>  (7) 
/var/tmp/pbs.5076255.sched01/tmp7me73ahx/0ll6f151o.sdf

>  <i_m_source_file_index>  (7) 
4

>  <i_lp_mmshare_version>  (7) 
48012

>  <i_f3d_flags>  (7) 
0

>  <s_epik_input>  (7) 
Tz1DKFtPSF0pW0NIMl1OKFtDSDJdW0NIMl1bQ0gyXTEpQyhbQ0BdMTIzKT1bQ0hdW0NAQEhdNFtDQEhdM1tDSDJdW0NIMl1bQ0BIXTJbQ0gyXTQ=

>  <s_epik_cmdline>  (7) 
J2VwaWtfcHl0aG9uJywgJy1waHQnLCAnMi4wJywgJy1waCcsICc3LjAnLCAnLXRuJywgJzgnLCAnLW1hJywgJzIwMCcsICctaW1hZScsICc8aW5maWxlLm1hZT4nLCAnLW9tYWUnLCAnPG91dGZpbGUubWFlPic=

>  <r_lp_tautomer_probability>  (7) 
1

>  <r_epik_Ionization_Penalty>  (7) 
0.000113953

>  <r_epik_Ionization_Penalty_Charging>  (7) 
0.000110766

>  <r_epik_Ionization_Penalty_Neutral>  (7) 
3.18715e-06

>  <r_epik_State_Penalty>  (7) 
-0

>  <r_epik_Charging_Adjusted_Penalty>  (7) 
0.000110766

>  <i_epik_Tot_Q>  (7) 
0

>  <i_epik_Tot_abs_Q>  (7) 
2

>  <s_epik_Chemistry_Notes>  (7) 
This compound has an imine and may undergo hydrolysis.

>  <s_lp_Force_Field>  (7) 
OPLS3e

>  <r_lp_Energy>  (7) 
51.7708

>  <b_lp_Chiralities_Consistent>  (7) 
1

>  <s_lp_Variant>  (7) 
2:0-1

>  <s_i_glide_gridfile>  (7) 
pfpi4k_grid

>  <i_i_glide_lignum>  (7) 
4

>  <i_i_glide_rotatable_bonds>  (7) 
2

>  <r_i_docking_score>  (7) 
-3.86197

>  <r_i_glide_ligand_efficiency>  (7) 
-0.227175

>  <r_i_glide_ligand_efficiency_sa>  (7) 
-0.58413

>  <r_i_glide_ligand_efficiency_ln>  (7) 
-1.0075

>  <r_i_glide_gscore>  (7) 
-3.86197

>  <r_i_glide_lipo>  (7) 
0

>  <r_i_glide_hbond>  (7) 
-0.217599

>  <r_i_glide_metal>  (7) 
-0

>  <r_i_glide_rewards>  (7) 
-1.81837

>  <r_i_glide_evdw>  (7) 
-15.1997

>  <r_i_glide_ecoul>  (7) 
-6.40051

>  <r_i_glide_erotb>  (7) 
0

>  <r_i_glide_esite>  (7) 
-0.105946

>  <r_i_glide_emodel>  (7) 
-30.3226

>  <r_i_glide_energy>  (7) 
-21.6002

>  <r_i_glide_einternal>  (7) 
0.581502

>  <r_i_glide_intrahb_reward>  (7) 
-0

>  <i_i_glide_confnum>  (7) 
1

>  <i_i_glide_posenum>  (7) 
4

>  <r_i_glide_eff_state_penalty>  (7) 
0

>  <ligand_id>  (7) 
2

>  <original_smiles>  (7) 
O=C(O)CN1CCCC23C1=CC1CC2CCC13

>  <smiles>  (7) 
[H]C([H])(C(=O)[O-])[N+]1=C2C([H])([H])C3([H])C([H])([H])C4([H])C([H])([H])C([H])([H])C3([H])C24C([H])([H])C([H])([H])C1([H])[H]

$$$$
2:0:1
     RDKit          3D

 36 39  0  0  1  0  0  0  0  0999 V2000
   -2.1853    0.1544    6.4813 O   0  0  0  0  0  0  0  0  0  0  0  0
   -1.3634   -0.1520    5.5897 C   0  0  0  0  0  0  0  0  0  0  0  0
   -1.4996   -1.1258    4.8169 O   0  0  0  0  0  0  0  0  0  0  0  0
   -0.0997    0.7342    5.4666 C   0  0  0  0  0  0  0  0  0  0  0  0
    0.6466    0.5146    4.2059 N   0  0  0  0  0  0  0  0  0  0  0  0
    0.0372    1.1282    3.0052 C   0  0  0  0  0  0  0  0  0  0  0  0
    1.0894    1.7226    2.0742 C   0  0  0  0  0  0  0  0  0  0  0  0
    2.0912    0.6368    1.6701 C   0  0  0  0  0  0  0  0  0  0  0  0
    2.5332   -0.3145    2.8144 C   0  0  1  0  0  0  0  0  0  0  0  0
    1.7881   -0.1042    4.1151 C   0  0  0  0  0  0  0  0  0  0  0  0
    2.5812   -0.6476    5.2533 C   0  0  0  0  0  0  0  0  0  0  0  0
    3.7525   -1.2577    4.4509 C   0  0  1  0  0  0  0  0  0  0  0  0
    3.2206   -2.4963    3.7006 C   0  0  0  0  0  0  0  0  0  0  0  0
    2.6883   -1.8144    2.4214 C   0  0  2  0  0  0  0  0  0  0  0  0
    3.8740   -1.7744    1.4389 C   0  0  0  0  0  0  0  0  0  0  0  0
    4.8317   -0.7946    2.1336 C   0  0  0  0  0  0  0  0  0  0  0  0
    3.9787   -0.2432    3.2979 C   0  0  1  0  0  0  0  0  0  0  0  0
   -0.4052    1.7801    5.4803 H   0  0  0  0  0  0  0  0  0  0  0  0
    0.5569    0.5971    6.3218 H   0  0  0  0  0  0  0  0  0  0  0  0
   -0.5716    0.3580    2.5203 H   0  0  0  0  0  0  0  0  0  0  0  0
   -0.6360    1.9274    3.3194 H   0  0  0  0  0  0  0  0  0  0  0  0
    0.5882    2.1403    1.1987 H   0  0  0  0  0  0  0  0  0  0  0  0
    1.5964    2.5511    2.5755 H   0  0  0  0  0  0  0  0  0  0  0  0
    1.6089    0.0442    0.8973 H   0  0  0  0  0  0  0  0  0  0  0  0
    2.9530    1.0972    1.1954 H   0  0  0  0  0  0  0  0  0  0  0  0
    2.9224    0.1582    5.9033 H   0  0  0  0  0  0  0  0  0  0  0  0
    4.6320   -1.4706    5.0575 H   0  0  0  0  0  0  0  0  0  0  0  0
    4.0140   -3.2117    3.4878 H   0  0  0  0  0  0  0  0  0  0  0  0
    2.4454   -3.0225    4.2547 H   0  0  0  0  0  0  0  0  0  0  0  0
    1.8003   -2.2941    2.0108 H   0  0  0  0  0  0  0  0  0  0  0  0
    4.3290   -2.7485    1.2681 H   0  0  0  0  0  0  0  0  0  0  0  0
    3.5635   -1.3861    0.4685 H   0  0  0  0  0  0  0  0  0  0  0  0
    5.7392   -1.2838    2.4929 H   0  0  0  0  0  0  0  0  0  0  0  0
    5.1258   -0.0027    1.4457 H   0  0  0  0  0  0  0  0  0  0  0  0
    4.2977    0.7395    3.6513 H   0  0  0  0  0  0  0  0  0  0  0  0
    2.0184   -1.3787    5.8333 H   0  0  0  0  0  0  0  0  0  0  0  0
  1  2  2  0
  2  3  1  0
  2  4  1  0
  4  5  1  0
  4 18  1  0
  4 19  1  0
  5 10  2  0
  5  6  1  0
  6  7  1  0
  6 20  1  0
  6 21  1  0
  7  8  1  0
  7 22  1  0
  7 23  1  0
  9  8  1  6
  8 24  1  0
  8 25  1  0
  9 14  1  0
  9 17  1  0
  9 10  1  0
 10 11  1  0
 11 12  1  0
 11 26  1  0
 11 36  1  0
 12 17  1  0
 12 13  1  0
 12 27  1  1
 13 14  1  0
 13 28  1  0
 13 29  1  0
 14 15  1  0
 14 30  1  6
 15 16  1  0
 15 31  1  0
 15 32  1  0
 16 17  1  0
 16 33  1  0
 16 34  1  0
 17 35  1  1
M  CHG  2   3  -1   5   1
M  END
>  <i_m_ct_stereo_status>  (8) 
1

>  <s_m_source_file>  (8) 
/var/tmp/pbs.5076255.sched01/tmp7me73ahx/0ll6f151o.sdf

>  <i_m_source_file_index>  (8) 
4

>  <i_lp_mmshare_version>  (8) 
48012

>  <i_f3d_flags>  (8) 
0

>  <s_epik_input>  (8) 
Tz1DKFtPSF0pW0NIMl1OKFtDSDJdW0NIMl1bQ0gyXTEpQyhbQ0BdMTIzKT1bQ0hdW0NAQEhdNFtDQEhdM1tDSDJdW0NIMl1bQ0BIXTJbQ0gyXTQ=

>  <s_epik_cmdline>  (8) 
J2VwaWtfcHl0aG9uJywgJy1waHQnLCAnMi4wJywgJy1waCcsICc3LjAnLCAnLXRuJywgJzgnLCAnLW1hJywgJzIwMCcsICctaW1hZScsICc8aW5maWxlLm1hZT4nLCAnLW9tYWUnLCAnPG91dGZpbGUubWFlPic=

>  <r_lp_tautomer_probability>  (8) 
1

>  <r_epik_Ionization_Penalty>  (8) 
0.000113953

>  <r_epik_Ionization_Penalty_Charging>  (8) 
0.000110766

>  <r_epik_Ionization_Penalty_Neutral>  (8) 
3.18715e-06

>  <r_epik_State_Penalty>  (8) 
-0

>  <r_epik_Charging_Adjusted_Penalty>  (8) 
0.000110766

>  <i_epik_Tot_Q>  (8) 
0

>  <i_epik_Tot_abs_Q>  (8) 
2

>  <s_epik_Chemistry_Notes>  (8) 
This compound has an imine and may undergo hydrolysis.

>  <s_lp_Force_Field>  (8) 
OPLS3e

>  <r_lp_Energy>  (8) 
51.7708

>  <b_lp_Chiralities_Consistent>  (8) 
1

>  <s_lp_Variant>  (8) 
2:0-1

>  <s_i_glide_gridfile>  (8) 
pfpi4k_grid

>  <i_i_glide_lignum>  (8) 
4

>  <i_i_glide_rotatable_bonds>  (8) 
2

>  <r_i_docking_score>  (8) 
-3.80937

>  <r_i_glide_ligand_efficiency>  (8) 
-0.22408

>  <r_i_glide_ligand_efficiency_sa>  (8) 
-0.576174

>  <r_i_glide_ligand_efficiency_ln>  (8) 
-0.993779

>  <r_i_glide_gscore>  (8) 
-3.80937

>  <r_i_glide_lipo>  (8) 
-0.125005

>  <r_i_glide_hbond>  (8) 
-0.2

>  <r_i_glide_metal>  (8) 
-0

>  <r_i_glide_rewards>  (8) 
-1.81837

>  <r_i_glide_evdw>  (8) 
-14.5025

>  <r_i_glide_ecoul>  (8) 
-5.82941

>  <r_i_glide_erotb>  (8) 
0

>  <r_i_glide_esite>  (8) 
-0.0664574

>  <r_i_glide_emodel>  (8) 
-29.0951

>  <r_i_glide_energy>  (8) 
-20.3319

>  <r_i_glide_einternal>  (8) 
0.192851

>  <r_i_glide_intrahb_reward>  (8) 
-0

>  <i_i_glide_confnum>  (8) 
2

>  <i_i_glide_posenum>  (8) 
6

>  <r_i_glide_eff_state_penalty>  (8) 
0

>  <ligand_id>  (8) 
2

>  <original_smiles>  (8) 
O=C(O)CN1CCCC23C1=CC1CC2CCC13

>  <smiles>  (8) 
[H]C([H])(C(=O)[O-])[N+]1=C2C([H])([H])C3([H])C([H])([H])C4([H])C([H])([H])C([H])([H])C3([H])C24C([H])([H])C([H])([H])C1([H])[H]

$$$$
2:0:2
     RDKit          3D

 36 39  0  0  1  0  0  0  0  0999 V2000
    1.3007   -2.0222    3.9625 O   0  0  0  0  0  0  0  0  0  0  0  0
    0.6193   -0.9866    3.8043 C   0  0  0  0  0  0  0  0  0  0  0  0
   -0.4690   -0.7498    4.3806 O   0  0  0  0  0  0  0  0  0  0  0  0
    1.1718    0.0442    2.8074 C   0  0  0  0  0  0  0  0  0  0  0  0
    0.6417    1.4204    3.0171 N   0  0  0  0  0  0  0  0  0  0  0  0
   -0.6829    1.6723    2.4062 C   0  0  0  0  0  0  0  0  0  0  0  0
   -1.5896    2.4811    3.3380 C   0  0  0  0  0  0  0  0  0  0  0  0
   -0.9081    3.8011    3.7252 C   0  0  0  0  0  0  0  0  0  0  0  0
    0.6130    3.6886    4.0488 C   0  0  1  0  0  0  0  0  0  0  0  0
    1.2060    2.3215    3.7713 C   0  0  0  0  0  0  0  0  0  0  0  0
    2.4540    2.1357    4.5709 C   0  0  0  0  0  0  0  0  0  0  0  0
    2.5457    3.5452    5.1932 C   0  0  1  0  0  0  0  0  0  0  0  0
    2.9174    4.5394    4.0712 C   0  0  0  0  0  0  0  0  0  0  0  0
    1.5012    4.8600    3.5410 C   0  0  2  0  0  0  0  0  0  0  0  0
    0.9884    6.0528    4.3640 C   0  0  0  0  0  0  0  0  0  0  0  0
    0.8319    5.4240    5.7585 C   0  0  0  0  0  0  0  0  0  0  0  0
    1.0619    3.9174    5.4869 C   0  0  1  0  0  0  0  0  0  0  0  0
    2.2601    0.0684    2.8288 H   0  0  0  0  0  0  0  0  0  0  0  0
    0.8882   -0.2536    1.7956 H   0  0  0  0  0  0  0  0  0  0  0  0
   -0.5097    2.1598    1.4456 H   0  0  0  0  0  0  0  0  0  0  0  0
   -1.1555    0.7130    2.1943 H   0  0  0  0  0  0  0  0  0  0  0  0
   -2.5515    2.6675    2.8568 H   0  0  0  0  0  0  0  0  0  0  0  0
   -1.8024    1.8876    4.2318 H   0  0  0  0  0  0  0  0  0  0  0  0
   -1.0180    4.4776    2.8806 H   0  0  0  0  0  0  0  0  0  0  0  0
   -1.4518    4.2629    4.5470 H   0  0  0  0  0  0  0  0  0  0  0  0
    2.2994    1.3739    5.3350 H   0  0  0  0  0  0  0  0  0  0  0  0
    3.2110    3.6027    6.0550 H   0  0  0  0  0  0  0  0  0  0  0  0
    3.4250    5.4239    4.4553 H   0  0  0  0  0  0  0  0  0  0  0  0
    3.5542    4.0896    3.3096 H   0  0  0  0  0  0  0  0  0  0  0  0
    1.4748    5.0378    2.4701 H   0  0  0  0  0  0  0  0  0  0  0  0
    1.6697    6.9027    4.3571 H   0  0  0  0  0  0  0  0  0  0  0  0
    0.0291    6.4035    3.9795 H   0  0  0  0  0  0  0  0  0  0  0  0
    1.5561    5.8220    6.4721 H   0  0  0  0  0  0  0  0  0  0  0  0
   -0.1671    5.6106    6.1538 H   0  0  0  0  0  0  0  0  0  0  0  0
    0.5995    3.2643    6.2319 H   0  0  0  0  0  0  0  0  0  0  0  0
    3.3149    1.8725    3.9558 H   0  0  0  0  0  0  0  0  0  0  0  0
  1  2  2  0
  2  3  1  0
  2  4  1  0
  4  5  1  0
  4 18  1  0
  4 19  1  0
  5 10  2  0
  5  6  1  0
  6  7  1  0
  6 20  1  0
  6 21  1  0
  7  8  1  0
  7 22  1  0
  7 23  1  0
  9  8  1  1
  8 24  1  0
  8 25  1  0
  9 14  1  0
  9 17  1  0
  9 10  1  0
 10 11  1  0
 11 12  1  0
 11 26  1  0
 11 36  1  0
 12 17  1  0
 12 13  1  0
 12 27  1  1
 13 14  1  0
 13 28  1  0
 13 29  1  0
 14 15  1  0
 14 30  1  6
 15 16  1  0
 15 31  1  0
 15 32  1  0
 16 17  1  0
 16 33  1  0
 16 34  1  0
 17 35  1  1
M  CHG  2   3  -1   5   1
M  END
>  <i_m_ct_stereo_status>  (9) 
1

>  <s_m_source_file>  (9) 
/var/tmp/pbs.5076255.sched01/tmp7me73ahx/0ll6f151o.sdf

>  <i_m_source_file_index>  (9) 
4

>  <i_lp_mmshare_version>  (9) 
48012

>  <i_f3d_flags>  (9) 
0

>  <s_epik_input>  (9) 
Tz1DKFtPSF0pW0NIMl1OKFtDSDJdW0NIMl1bQ0gyXTEpQyhbQ0BdMTIzKT1bQ0hdW0NAQEhdNFtDQEhdM1tDSDJdW0NIMl1bQ0BIXTJbQ0gyXTQ=

>  <s_epik_cmdline>  (9) 
J2VwaWtfcHl0aG9uJywgJy1waHQnLCAnMi4wJywgJy1waCcsICc3LjAnLCAnLXRuJywgJzgnLCAnLW1hJywgJzIwMCcsICctaW1hZScsICc8aW5maWxlLm1hZT4nLCAnLW9tYWUnLCAnPG91dGZpbGUubWFlPic=

>  <r_lp_tautomer_probability>  (9) 
1

>  <r_epik_Ionization_Penalty>  (9) 
0.000113953

>  <r_epik_Ionization_Penalty_Charging>  (9) 
0.000110766

>  <r_epik_Ionization_Penalty_Neutral>  (9) 
3.18715e-06

>  <r_epik_State_Penalty>  (9) 
-0

>  <r_epik_Charging_Adjusted_Penalty>  (9) 
0.000110766

>  <i_epik_Tot_Q>  (9) 
0

>  <i_epik_Tot_abs_Q>  (9) 
2

>  <s_epik_Chemistry_Notes>  (9) 
This compound has an imine and may undergo hydrolysis.

>  <s_lp_Force_Field>  (9) 
OPLS3e

>  <r_lp_Energy>  (9) 
51.7708

>  <b_lp_Chiralities_Consistent>  (9) 
1

>  <s_lp_Variant>  (9) 
2:0-1

>  <s_i_glide_gridfile>  (9) 
pfpi4k_grid

>  <i_i_glide_lignum>  (9) 
4

>  <i_i_glide_rotatable_bonds>  (9) 
2

>  <r_i_docking_score>  (9) 
-2.91125

>  <r_i_glide_ligand_efficiency>  (9) 
-0.17125

>  <r_i_glide_ligand_efficiency_sa>  (9) 
-0.440332

>  <r_i_glide_ligand_efficiency_ln>  (9) 
-0.759481

>  <r_i_glide_gscore>  (9) 
-2.91125

>  <r_i_glide_lipo>  (9) 
0

>  <r_i_glide_hbond>  (9) 
0

>  <r_i_glide_metal>  (9) 
-0

>  <r_i_glide_rewards>  (9) 
-1.81837

>  <r_i_glide_evdw>  (9) 
-16.6443

>  <r_i_glide_ecoul>  (9) 
-1.24669

>  <r_i_glide_erotb>  (9) 
0

>  <r_i_glide_esite>  (9) 
-0.0736656

>  <r_i_glide_emodel>  (9) 
-24.5327

>  <r_i_glide_energy>  (9) 
-17.891

>  <r_i_glide_einternal>  (9) 
0.319241

>  <r_i_glide_intrahb_reward>  (9) 
-0

>  <i_i_glide_confnum>  (9) 
1

>  <i_i_glide_posenum>  (9) 
31

>  <r_i_glide_eff_state_penalty>  (9) 
0

>  <ligand_id>  (9) 
2

>  <original_smiles>  (9) 
O=C(O)CN1CCCC23C1=CC1CC2CCC13

>  <smiles>  (9) 
[H]C([H])(C(=O)[O-])[N+]1=C2C([H])([H])C3([H])C([H])([H])C4([H])C([H])([H])C([H])([H])C3([H])C24C([H])([H])C([H])([H])C1([H])[H]

$$$$
3:0:0
     RDKit          3D

 21 23  0  0  1  0  0  0  0  0999 V2000
    0.4011    0.8143    1.8964 C   0  0  0  0  0  0  0  0  0  0  0  0
    0.3543    2.1463    2.4922 N   0  0  0  0  0  0  0  0  0  0  0  0
   -0.1465    2.3747    3.7841 C   0  0  0  0  0  0  0  0  0  0  0  0
   -0.7744    1.3326    4.4022 N   0  0  0  0  0  0  0  0  0  0  0  0
   -1.2312    1.5818    5.6571 C   0  0  0  0  0  0  0  0  0  0  0  0
   -1.8713    0.7074    6.4462 N   0  0  0  0  0  0  0  0  0  0  0  0
   -2.1530    1.3869    7.6520 N   0  0  0  0  0  0  0  0  0  0  0  0
   -1.6543    2.6195    7.5190 C   0  0  0  0  0  0  0  0  0  0  0  0
   -1.1083    2.7338    6.3166 N   0  0  0  0  0  0  0  0  0  0  0  0
   -0.4620    3.7797    5.6852 C   0  0  0  0  0  0  0  0  0  0  0  0
   -0.1873    5.0992    6.1968 C   0  0  0  0  0  0  0  0  0  0  0  0
    0.4837    5.8631    5.2514 C   0  0  0  0  0  0  0  0  0  0  0  0
    0.8407    5.0647    3.7217 S   0  0  0  0  0  0  0  0  0  0  0  0
    0.0502    3.6557    4.3677 C   0  0  0  0  0  0  0  0  0  0  0  0
    0.7959    0.8940    0.8816 H   0  0  0  0  0  0  0  0  0  0  0  0
   -0.5871    0.3590    1.8333 H   0  0  0  0  0  0  0  0  0  0  0  0
    1.0678    0.1669    2.4654 H   0  0  0  0  0  0  0  0  0  0  0  0
   -1.6892    3.3926    8.2730 H   0  0  0  0  0  0  0  0  0  0  0  0
   -0.4996    5.3789    7.1943 H   0  0  0  0  0  0  0  0  0  0  0  0
    0.8126    6.8841    5.3736 H   0  0  0  0  0  0  0  0  0  0  0  0
    0.5798    2.9529    1.8997 H   0  0  0  0  0  0  0  0  0  0  0  0
  1  2  1  0
  1 15  1  0
  1 16  1  0
  1 17  1  0
  2  3  1  0
  2 21  1  0
  3 14  1  0
  3  4  2  0
  4  5  1  0
  5  9  1  0
  5  6  2  0
  6  7  1  0
  7  8  2  0
  8  9  1  0
  8 18  1  0
  9 10  1  0
 10 14  2  0
 10 11  1  0
 11 12  2  0
 11 19  1  0
 12 13  1  0
 12 20  1  0
 13 14  1  0
M  END
>  <i_m_ct_stereo_status>  (10) 
1

>  <s_m_source_file>  (10) 
/var/tmp/pbs.5076255.sched01/tmp7me73ahx/0ll6f151o.sdf

>  <i_m_source_file_index>  (10) 
5

>  <i_lp_mmshare_version>  (10) 
48012

>  <i_f3d_flags>  (10) 
0

>  <s_epik_input>  (10) 
W0NIM10vTj1jKC9bbkhdMSljKHNbY0hdW2NIXTIpYzJuKGMxMylbY0hdbm4z

>  <s_epik_cmdline>  (10) 
J2VwaWtfcHl0aG9uJywgJy1waHQnLCAnMi4wJywgJy1waCcsICc3LjAnLCAnLXRuJywgJzgnLCAnLW1hJywgJzIwMCcsICctaW1hZScsICc8aW5maWxlLm1hZT4nLCAnLW9tYWUnLCAnPG91dGZpbGUubWFlPic=

>  <r_lp_tautomer_probability>  (10) 
1

>  <r_epik_Ionization_Penalty>  (10) 
3.10806e-05

>  <r_epik_Ionization_Penalty_Charging>  (10) 
0

>  <r_epik_Ionization_Penalty_Neutral>  (10) 
3.10806e-05

>  <r_epik_State_Penalty>  (10) 
-0

>  <r_epik_Charging_Adjusted_Penalty>  (10) 
0

>  <i_epik_Tot_Q>  (10) 
0

>  <i_epik_Tot_abs_Q>  (10) 
0

>  <s_lp_Force_Field>  (10) 
OPLS3e

>  <r_lp_Energy>  (10) 
13.7439

>  <b_lp_Chiralities_Consistent>  (10) 
1

>  <s_lp_Variant>  (10) 
3:0-1

>  <s_i_glide_gridfile>  (10) 
pfpi4k_grid

>  <i_i_glide_lignum>  (10) 
5

>  <i_i_glide_rotatable_bonds>  (10) 
1

>  <r_i_docking_score>  (10) 
-4.16873

>  <r_i_glide_ligand_efficiency>  (10) 
-0.297767

>  <r_i_glide_ligand_efficiency_sa>  (10) 
-0.71766

>  <r_i_glide_ligand_efficiency_ln>  (10) 
-1.14555

>  <r_i_glide_gscore>  (10) 
-4.16873

>  <r_i_glide_lipo>  (10) 
0

>  <r_i_glide_hbond>  (10) 
-0.16

>  <r_i_glide_metal>  (10) 
-0

>  <r_i_glide_rewards>  (10) 
-2.04672

>  <r_i_glide_evdw>  (10) 
-14.3326

>  <r_i_glide_ecoul>  (10) 
-6.43682

>  <r_i_glide_erotb>  (10) 
0

>  <r_i_glide_esite>  (10) 
-0.279865

>  <r_i_glide_emodel>  (10) 
-27.04

>  <r_i_glide_energy>  (10) 
-20.7694

>  <r_i_glide_einternal>  (10) 
0.474085

>  <r_i_glide_intrahb_reward>  (10) 
-0

>  <i_i_glide_confnum>  (10) 
1

>  <i_i_glide_posenum>  (10) 
31

>  <r_i_glide_eff_state_penalty>  (10) 
0

>  <ligand_id>  (10) 
3

>  <original_smiles>  (10) 
CN=c1[nH]c2nncn2c2ccsc12

>  <smiles>  (10) 
[H]c1sc2c(N([H])C([H])([H])[H])nc3nnc([H])n3c2c1[H]

$$$$
3:0:1
     RDKit          3D

 21 23  0  0  1  0  0  0  0  0999 V2000
    5.5747   -0.7083    2.1840 C   0  0  0  0  0  0  0  0  0  0  0  0
    5.0632   -0.8013    0.8169 N   0  0  0  0  0  0  0  0  0  0  0  0
    4.2336   -1.8651    0.4181 C   0  0  0  0  0  0  0  0  0  0  0  0
    3.8689   -2.7554    1.3830 N   0  0  0  0  0  0  0  0  0  0  0  0
    3.0735   -3.7798    0.9720 C   0  0  0  0  0  0  0  0  0  0  0  0
    2.5979   -4.7697    1.7440 N   0  0  0  0  0  0  0  0  0  0  0  0
    1.8365   -5.6054    0.8979 N   0  0  0  0  0  0  0  0  0  0  0  0
    1.8972   -5.0625   -0.3189 C   0  0  0  0  0  0  0  0  0  0  0  0
    2.6391   -3.9671   -0.2697 N   0  0  0  0  0  0  0  0  0  0  0  0
    3.0178   -3.0604   -1.2454 C   0  0  0  0  0  0  0  0  0  0  0  0
    2.6905   -3.0544   -2.6458 C   0  0  0  0  0  0  0  0  0  0  0  0
    3.2751   -1.9762   -3.2884 C   0  0  0  0  0  0  0  0  0  0  0  0
    4.2578   -0.9209   -2.2853 S   0  0  0  0  0  0  0  0  0  0  0  0
    3.8507   -1.9528   -0.9498 C   0  0  0  0  0  0  0  0  0  0  0  0
    6.1984    0.1699    2.2917 H   0  0  0  0  0  0  0  0  0  0  0  0
    6.2070   -1.5582    2.4367 H   0  0  0  0  0  0  0  0  0  0  0  0
    4.7765   -0.6219    2.9213 H   0  0  0  0  0  0  0  0  0  0  0  0
    1.4053   -5.4446   -1.1962 H   0  0  0  0  0  0  0  0  0  0  0  0
    2.0576   -3.8263   -3.0651 H   0  0  0  0  0  0  0  0  0  0  0  0
    3.1621   -1.7281   -4.3311 H   0  0  0  0  0  0  0  0  0  0  0  0
    5.2876   -0.0736    0.1530 H   0  0  0  0  0  0  0  0  0  0  0  0
  1  2  1  0
  1 15  1  0
  1 16  1  0
  1 17  1  0
  2  3  1  0
  2 21  1  0
  3 14  1  0
  3  4  2  0
  4  5  1  0
  5  9  1  0
  5  6  2  0
  6  7  1  0
  7  8  2  0
  8  9  1  0
  8 18  1  0
  9 10  1  0
 10 14  2  0
 10 11  1  0
 11 12  2  0
 11 19  1  0
 12 13  1  0
 12 20  1  0
 13 14  1  0
M  END
>  <i_m_ct_stereo_status>  (11) 
1

>  <s_m_source_file>  (11) 
/var/tmp/pbs.5076255.sched01/tmp7me73ahx/0ll6f151o.sdf

>  <i_m_source_file_index>  (11) 
5

>  <i_lp_mmshare_version>  (11) 
48012

>  <i_f3d_flags>  (11) 
0

>  <s_epik_input>  (11) 
W0NIM10vTj1jKC9bbkhdMSljKHNbY0hdW2NIXTIpYzJuKGMxMylbY0hdbm4z

>  <s_epik_cmdline>  (11) 
J2VwaWtfcHl0aG9uJywgJy1waHQnLCAnMi4wJywgJy1waCcsICc3LjAnLCAnLXRuJywgJzgnLCAnLW1hJywgJzIwMCcsICctaW1hZScsICc8aW5maWxlLm1hZT4nLCAnLW9tYWUnLCAnPG91dGZpbGUubWFlPic=

>  <r_lp_tautomer_probability>  (11) 
1

>  <r_epik_Ionization_Penalty>  (11) 
3.10806e-05

>  <r_epik_Ionization_Penalty_Charging>  (11) 
0

>  <r_epik_Ionization_Penalty_Neutral>  (11) 
3.10806e-05

>  <r_epik_State_Penalty>  (11) 
-0

>  <r_epik_Charging_Adjusted_Penalty>  (11) 
0

>  <i_epik_Tot_Q>  (11) 
0

>  <i_epik_Tot_abs_Q>  (11) 
0

>  <s_lp_Force_Field>  (11) 
OPLS3e

>  <r_lp_Energy>  (11) 
13.7439

>  <b_lp_Chiralities_Consistent>  (11) 
1

>  <s_lp_Variant>  (11) 
3:0-1

>  <s_i_glide_gridfile>  (11) 
pfpi4k_grid

>  <i_i_glide_lignum>  (11) 
5

>  <i_i_glide_rotatable_bonds>  (11) 
1

>  <r_i_docking_score>  (11) 
-3.74411

>  <r_i_glide_ligand_efficiency>  (11) 
-0.267437

>  <r_i_glide_ligand_efficiency_sa>  (11) 
-0.64456

>  <r_i_glide_ligand_efficiency_ln>  (11) 
-1.02887

>  <r_i_glide_gscore>  (11) 
-3.74411

>  <r_i_glide_lipo>  (11) 
-0.203998

>  <r_i_glide_hbond>  (11) 
-0.00476415

>  <r_i_glide_metal>  (11) 
-0

>  <r_i_glide_rewards>  (11) 
-2.00972

>  <r_i_glide_evdw>  (11) 
-17.939

>  <r_i_glide_ecoul>  (11) 
-2.63771

>  <r_i_glide_erotb>  (11) 
0

>  <r_i_glide_esite>  (11) 
-0.23302

>  <r_i_glide_emodel>  (11) 
-26.5978

>  <r_i_glide_energy>  (11) 
-20.5767

>  <r_i_glide_einternal>  (11) 
0.0583205

>  <r_i_glide_intrahb_reward>  (11) 
-0

>  <i_i_glide_confnum>  (11) 
2

>  <i_i_glide_posenum>  (11) 
24

>  <r_i_glide_eff_state_penalty>  (11) 
0

>  <ligand_id>  (11) 
3

>  <original_smiles>  (11) 
CN=c1[nH]c2nncn2c2ccsc12

>  <smiles>  (11) 
[H]c1sc2c(N([H])C([H])([H])[H])nc3nnc([H])n3c2c1[H]

$$$$
3:0:2
     RDKit          3D

 21 23  0  0  1  0  0  0  0  0999 V2000
   -2.7295    3.4343    9.1548 C   0  0  0  0  0  0  0  0  0  0  0  0
   -1.9012    3.8955    8.0438 N   0  0  0  0  0  0  0  0  0  0  0  0
   -1.6010    3.0686    6.9469 C   0  0  0  0  0  0  0  0  0  0  0  0
   -2.0682    1.7866    6.9828 N   0  0  0  0  0  0  0  0  0  0  0  0
   -1.7583    1.0201    5.9013 C   0  0  0  0  0  0  0  0  0  0  0  0
   -2.0996   -0.2645    5.7302 N   0  0  0  0  0  0  0  0  0  0  0  0
   -1.5714   -0.6564    4.4881 N   0  0  0  0  0  0  0  0  0  0  0  0
   -0.9524    0.4145    3.9812 C   0  0  0  0  0  0  0  0  0  0  0  0
   -1.0641    1.4181    4.8370 N   0  0  0  0  0  0  0  0  0  0  0  0
   -0.5993    2.7184    4.8044 C   0  0  0  0  0  0  0  0  0  0  0  0
    0.1649    3.3746    3.7738 C   0  0  0  0  0  0  0  0  0  0  0  0
    0.4339    4.6878    4.1198 C   0  0  0  0  0  0  0  0  0  0  0  0
   -0.1792    5.2157    5.6859 S   0  0  0  0  0  0  0  0  0  0  0  0
   -0.8426    3.6197    5.8742 C   0  0  0  0  0  0  0  0  0  0  0  0
   -2.8267    4.2280    9.8957 H   0  0  0  0  0  0  0  0  0  0  0  0
   -2.2923    2.5710    9.6579 H   0  0  0  0  0  0  0  0  0  0  0  0
   -3.7339    3.1746    8.8196 H   0  0  0  0  0  0  0  0  0  0  0  0
   -0.4425    0.4492    3.0288 H   0  0  0  0  0  0  0  0  0  0  0  0
    0.4491    2.8513    2.8686 H   0  0  0  0  0  0  0  0  0  0  0  0
    0.9820    5.3912    3.5081 H   0  0  0  0  0  0  0  0  0  0  0  0
   -1.5129    4.8262    8.0847 H   0  0  0  0  0  0  0  0  0  0  0  0
  1  2  1  0
  1 15  1  0
  1 16  1  0
  1 17  1  0
  2  3  1  0
  2 21  1  0
  3 14  1  0
  3  4  2  0
  4  5  1  0
  5  9  1  0
  5  6  2  0
  6  7  1  0
  7  8  2  0
  8  9  1  0
  8 18  1  0
  9 10  1  0
 10 14  2  0
 10 11  1  0
 11 12  2  0
 11 19  1  0
 12 13  1  0
 12 20  1  0
 13 14  1  0
M  END
>  <i_m_ct_stereo_status>  (12) 
1

>  <s_m_source_file>  (12) 
/var/tmp/pbs.5076255.sched01/tmp7me73ahx/0ll6f151o.sdf

>  <i_m_source_file_index>  (12) 
5

>  <i_lp_mmshare_version>  (12) 
48012

>  <i_f3d_flags>  (12) 
0

>  <s_epik_input>  (12) 
W0NIM10vTj1jKC9bbkhdMSljKHNbY0hdW2NIXTIpYzJuKGMxMylbY0hdbm4z

>  <s_epik_cmdline>  (12) 
J2VwaWtfcHl0aG9uJywgJy1waHQnLCAnMi4wJywgJy1waCcsICc3LjAnLCAnLXRuJywgJzgnLCAnLW1hJywgJzIwMCcsICctaW1hZScsICc8aW5maWxlLm1hZT4nLCAnLW9tYWUnLCAnPG91dGZpbGUubWFlPic=

>  <r_lp_tautomer_probability>  (12) 
1

>  <r_epik_Ionization_Penalty>  (12) 
3.10806e-05

>  <r_epik_Ionization_Penalty_Charging>  (12) 
0

>  <r_epik_Ionization_Penalty_Neutral>  (12) 
3.10806e-05

>  <r_epik_State_Penalty>  (12) 
-0

>  <r_epik_Charging_Adjusted_Penalty>  (12) 
0

>  <i_epik_Tot_Q>  (12) 
0

>  <i_epik_Tot_abs_Q>  (12) 
0

>  <s_lp_Force_Field>  (12) 
OPLS3e

>  <r_lp_Energy>  (12) 
13.7439

>  <b_lp_Chiralities_Consistent>  (12) 
1

>  <s_lp_Variant>  (12) 
3:0-1

>  <s_i_glide_gridfile>  (12) 
pfpi4k_grid

>  <i_i_glide_lignum>  (12) 
5

>  <i_i_glide_rotatable_bonds>  (12) 
1

>  <r_i_docking_score>  (12) 
-3.63377

>  <r_i_glide_ligand_efficiency>  (12) 
-0.259555

>  <r_i_glide_ligand_efficiency_sa>  (12) 
-0.625565

>  <r_i_glide_ligand_efficiency_ln>  (12) 
-0.998548

>  <r_i_glide_gscore>  (12) 
-3.63377

>  <r_i_glide_lipo>  (12) 
-0.0395243

>  <r_i_glide_hbond>  (12) 
0

>  <r_i_glide_metal>  (12) 
-0

>  <r_i_glide_rewards>  (12) 
-2.00972

>  <r_i_glide_evdw>  (12) 
-16.395

>  <r_i_glide_ecoul>  (12) 
-3.59679

>  <r_i_glide_erotb>  (12) 
0

>  <r_i_glide_esite>  (12) 
-0.225263

>  <r_i_glide_emodel>  (12) 
-25.853

>  <r_i_glide_energy>  (12) 
-19.9917

>  <r_i_glide_einternal>  (12) 
0.0446823

>  <r_i_glide_intrahb_reward>  (12) 
-0

>  <i_i_glide_confnum>  (12) 
1

>  <i_i_glide_posenum>  (12) 
28

>  <r_i_glide_eff_state_penalty>  (12) 
0

>  <ligand_id>  (12) 
3

>  <original_smiles>  (12) 
CN=c1[nH]c2nncn2c2ccsc12

>  <smiles>  (12) 
[H]c1sc2c(N([H])C([H])([H])[H])nc3nnc([H])n3c2c1[H]

$$$$
4:0:0
     RDKit          3D

 33 37  0  0  1  0  0  0  0  0999 V2000
    2.4212   -1.7916    0.9382 C   0  0  0  0  0  0  0  0  0  0  0  0
    3.0968   -1.9376   -0.3705 N   0  0  1  0  0  0  0  0  0  0  0  0
    4.2980   -1.0654   -0.4604 C   0  0  0  0  0  0  0  0  0  0  0  0
    4.9710   -1.0906   -1.8422 C   0  0  2  0  0  0  0  0  0  0  0  0
    4.3128   -0.1230   -2.8392 C   0  0  0  0  0  0  0  0  0  0  0  0
    3.4972   -0.6844   -4.0274 C   0  0  0  0  0  0  0  0  0  0  0  0
    3.0819   -2.1396   -3.7863 C   0  0  0  0  0  0  0  0  0  0  0  0
    1.9304   -2.5712   -3.9429 O   0  0  0  0  0  0  0  0  0  0  0  0
    4.1822   -3.0459   -3.3828 C   0  0  1  0  0  0  0  0  0  0  0  0
    5.1726   -2.4964   -2.3794 C   0  0  1  0  0  0  0  0  0  0  0  0
    6.2814   -3.3022   -1.7378 C   0  0  0  0  0  0  0  0  0  0  0  0
    5.2402   -4.2825   -1.2194 C   0  0  1  0  0  0  0  0  0  0  0  0
    4.4465   -4.0467    0.0549 C   0  0  0  0  0  0  0  0  0  0  0  0
    3.3312   -3.3583   -0.7334 C   0  0  2  0  0  0  0  0  0  0  0  0
    4.1647   -3.5624   -1.9852 C   0  0  2  0  0  0  0  0  0  0  0  0
    3.0291   -2.0921    1.7847 H   0  0  0  0  0  0  0  0  0  0  0  0
    1.4959   -2.3598    0.9544 H   0  0  0  0  0  0  0  0  0  0  0  0
    2.1163   -0.7572    1.0916 H   0  0  0  0  0  0  0  0  0  0  0  0
    4.0107   -0.0502   -0.2030 H   0  0  0  0  0  0  0  0  0  0  0  0
    5.0062   -1.3185    0.3175 H   0  0  0  0  0  0  0  0  0  0  0  0
    5.9496   -0.6813   -1.6510 H   0  0  0  0  0  0  0  0  0  0  0  0
    3.8142    0.6009   -2.3135 H   0  0  0  0  0  0  0  0  0  0  0  0
    5.0133    0.6248   -3.1314 H   0  0  0  0  0  0  0  0  0  0  0  0
    2.6228   -0.0699   -4.2174 H   0  0  0  0  0  0  0  0  0  0  0  0
    4.0826   -0.6396   -4.9586 H   0  0  0  0  0  0  0  0  0  0  0  0
    4.6210   -3.6530   -4.1714 H   0  0  0  0  0  0  0  0  0  0  0  0
    6.9207   -3.7572   -2.4972 H   0  0  0  0  0  0  0  0  0  0  0  0
    6.8722   -2.8219   -0.9553 H   0  0  0  0  0  0  0  0  0  0  0  0
    5.3340   -5.3022   -1.5327 H   0  0  0  0  0  0  0  0  0  0  0  0
    4.1049   -4.9699    0.4993 H   0  0  0  0  0  0  0  0  0  0  0  0
    5.0074   -3.4471    0.7629 H   0  0  0  0  0  0  0  0  0  0  0  0
    2.4031   -3.9387   -0.7453 H   0  0  0  0  0  0  0  0  0  0  0  0
    2.4049   -1.5659   -1.0026 H   0  0  0  0  0  0  0  0  0  0  0  0
  1  2  1  0
  1 16  1  0
  1 17  1  0
  1 18  1  0
  2 14  1  0
  2  3  1  0
  2 33  1  6
  3  4  1  0
  3 19  1  0
  3 20  1  0
  4 10  1  0
  4  5  1  0
  4 21  1  1
  5  6  1  0
  5 22  1  0
  5 23  1  0
  6  7  1  0
  6 24  1  0
  6 25  1  0
  7  8  2  0
  7  9  1  0
  9 15  1  0
  9 10  1  0
  9 26  1  6
 15 10  1  1
 10 11  1  6
 11 12  1  0
 11 27  1  0
 11 28  1  0
 12 15  1  0
 12 13  1  0
 12 29  1  6
 13 14  1  0
 13 30  1  0
 13 31  1  0
 14 15  1  0
 14 32  1  6
M  CHG  1   2   1
M  END
>  <i_m_ct_stereo_status>  (13) 
1

>  <s_m_source_file>  (13) 
/var/tmp/pbs.5076255.sched01/tmp7me73ahx/0ll6f151o.sdf

>  <i_m_source_file_index>  (13) 
6

>  <i_lp_mmshare_version>  (13) 
48012

>  <i_f3d_flags>  (13) 
2

>  <s_epik_input>  (13) 
W0NIMl0xW0NASF0yW0NIMl1bQ0hdM04oW0NIM10pW0NIMl1bQ0BIXTRbQ0gyXVtDSDJdQyg9TylbQ0BIXTVbQ0BdMjNbQ0BdMTQ1

>  <s_epik_cmdline>  (13) 
J2VwaWtfcHl0aG9uJywgJy1waHQnLCAnMi4wJywgJy1waCcsICc3LjAnLCAnLXRuJywgJzgnLCAnLW1hJywgJzIwMCcsICctaW1hZScsICc8aW5maWxlLm1hZT4nLCAnLW9tYWUnLCAnPG91dGZpbGUubWFlPic=

>  <r_lp_tautomer_probability>  (13) 
1

>  <r_epik_Ionization_Penalty>  (13) 
0.000997196

>  <r_epik_Ionization_Penalty_Charging>  (13) 
0.000997196

>  <r_epik_Ionization_Penalty_Neutral>  (13) 
1.81537e-12

>  <r_epik_State_Penalty>  (13) 
0.000649917

>  <r_epik_Charging_Adjusted_Penalty>  (13) 
0.00164711

>  <i_epik_Tot_Q>  (13) 
1

>  <i_epik_Tot_abs_Q>  (13) 
1

>  <s_lp_Force_Field>  (13) 
OPLS3e

>  <r_lp_Energy>  (13) 
98.1976

>  <b_lp_Chiralities_Consistent>  (13) 
0

>  <s_lp_Variant>  (13) 
4:0-1

>  <s_i_glide_gridfile>  (13) 
pfpi4k_grid

>  <i_i_glide_lignum>  (13) 
6

>  <i_i_glide_rotatable_bonds>  (13) 
0

>  <r_i_docking_score>  (13) 
-4.20518

>  <r_i_glide_ligand_efficiency>  (13) 
-0.280346

>  <r_i_glide_ligand_efficiency_sa>  (13) 
-0.691391

>  <r_i_glide_ligand_efficiency_ln>  (13) 
-1.13407

>  <r_i_glide_gscore>  (13) 
-4.20518

>  <r_i_glide_lipo>  (13) 
-0.859708

>  <r_i_glide_hbond>  (13) 
-0.139038

>  <r_i_glide_metal>  (13) 
-0

>  <r_i_glide_rewards>  (13) 
-2.25013

>  <r_i_glide_evdw>  (13) 
-7.7067

>  <r_i_glide_ecoul>  (13) 
-3.13983

>  <r_i_glide_erotb>  (13) 
0

>  <r_i_glide_esite>  (13) 
-0.1

>  <r_i_glide_emodel>  (13) 
-14.7646

>  <r_i_glide_energy>  (13) 
-10.8465

>  <r_i_glide_einternal>  (13) 
0

>  <r_i_glide_intrahb_reward>  (13) 
-0

>  <i_i_glide_confnum>  (13) 
2

>  <i_i_glide_posenum>  (13) 
26

>  <r_i_glide_eff_state_penalty>  (13) 
0

>  <ligand_id>  (13) 
4

>  <original_smiles>  (13) 
CN1CC2CCC(=O)C3C24CC2CC1C234

>  <smiles>  (13) 
[H]C1([H])C(=O)C2([H])C34C([H])([H])C5([H])C([H])([H])C([H])(C253)[N+]([H])(C([H])([H])[H])C([H])([H])C4([H])C1([H])[H]

$$$$
4:0:1
     RDKit          3D

 33 37  0  0  1  0  0  0  0  0999 V2000
    3.0879   -1.1057    1.3096 C   0  0  0  0  0  0  0  0  0  0  0  0
    3.5573   -1.6263    0.0088 N   0  0  1  0  0  0  0  0  0  0  0  0
    4.6264   -0.7855   -0.5697 C   0  0  0  0  0  0  0  0  0  0  0  0
    5.0197   -1.1740   -2.0068 C   0  0  2  0  0  0  0  0  0  0  0  0
    4.0782   -0.6225   -3.1213 C   0  0  0  0  0  0  0  0  0  0  0  0
    3.1775   -1.6147   -3.8631 C   0  0  0  0  0  0  0  0  0  0  0  0
    2.9858   -2.9012   -3.0887 C   0  0  0  0  0  0  0  0  0  0  0  0
    1.8676   -3.3112   -2.7935 O   0  0  0  0  0  0  0  0  0  0  0  0
    4.2391   -3.5837   -2.6570 C   0  0  1  0  0  0  0  0  0  0  0  0
    5.3049   -2.6659   -2.1090 C   0  0  1  0  0  0  0  0  0  0  0  0
    6.6041   -3.1510   -1.4890 C   0  0  0  0  0  0  0  0  0  0  0  0
    5.8115   -3.9880   -0.4907 C   0  0  1  0  0  0  0  0  0  0  0  0
    5.2230   -3.3937    0.7894 C   0  0  0  0  0  0  0  0  0  0  0  0
    3.9084   -3.0766    0.0705 C   0  0  2  0  0  0  0  0  0  0  0  0
    4.5459   -3.6106   -1.2016 C   0  0  2  0  0  0  0  0  0  0  0  0
    3.8830   -1.0692    2.0509 H   0  0  0  0  0  0  0  0  0  0  0  0
    2.2734   -1.7127    1.6931 H   0  0  0  0  0  0  0  0  0  0  0  0
    2.7033   -0.0946    1.1864 H   0  0  0  0  0  0  0  0  0  0  0  0
    4.2165    0.2128   -0.5593 H   0  0  0  0  0  0  0  0  0  0  0  0
    5.5078   -0.7294    0.0670 H   0  0  0  0  0  0  0  0  0  0  0  0
    5.9494   -0.6545   -2.1797 H   0  0  0  0  0  0  0  0  0  0  0  0
    3.4323    0.1346   -2.6925 H   0  0  0  0  0  0  0  0  0  0  0  0
    4.6339   -0.1125   -3.8964 H   0  0  0  0  0  0  0  0  0  0  0  0
    2.2116   -1.1591   -4.0853 H   0  0  0  0  0  0  0  0  0  0  0  0
    3.6428   -1.8502   -4.8186 H   0  0  0  0  0  0  0  0  0  0  0  0
    4.5922   -4.4129   -3.2617 H   0  0  0  0  0  0  0  0  0  0  0  0
    7.1744   -3.8017   -2.1571 H   0  0  0  0  0  0  0  0  0  0  0  0
    7.2796   -2.4298   -1.0143 H   0  0  0  0  0  0  0  0  0  0  0  0
    5.9980   -5.0490   -0.4787 H   0  0  0  0  0  0  0  0  0  0  0  0
    5.0790   -4.1497    1.5516 H   0  0  0  0  0  0  0  0  0  0  0  0
    5.8251   -2.5581    1.1499 H   0  0  0  0  0  0  0  0  0  0  0  0
    3.0766   -3.6823    0.4504 H   0  0  0  0  0  0  0  0  0  0  0  0
    2.7602   -1.5321   -0.6095 H   0  0  0  0  0  0  0  0  0  0  0  0
  1  2  1  0
  1 16  1  0
  1 17  1  0
  1 18  1  0
  2 14  1  0
  2  3  1  0
  2 33  1  6
  3  4  1  0
  3 19  1  0
  3 20  1  0
  4 10  1  0
  4  5  1  0
  4 21  1  6
  5  6  1  0
  5 22  1  0
  5 23  1  0
  6  7  1  0
  6 24  1  0
  6 25  1  0
  7  8  2  0
  7  9  1  0
  9 15  1  0
  9 10  1  0
  9 26  1  6
 15 10  1  6
 10 11  1  6
 11 12  1  0
 11 27  1  0
 11 28  1  0
 12 15  1  0
 12 13  1  0
 12 29  1  1
 13 14  1  0
 13 30  1  0
 13 31  1  0
 14 15  1  0
 14 32  1  1
M  CHG  1   2   1
M  END
>  <i_m_ct_stereo_status>  (14) 
1

>  <s_m_source_file>  (14) 
/var/tmp/pbs.5076255.sched01/tmp7me73ahx/0ll6f151o.sdf

>  <i_m_source_file_index>  (14) 
6

>  <i_lp_mmshare_version>  (14) 
48012

>  <i_f3d_flags>  (14) 
2

>  <s_epik_input>  (14) 
W0NIMl0xW0NASF0yW0NIMl1bQ0hdM04oW0NIM10pW0NIMl1bQ0BIXTRbQ0gyXVtDSDJdQyg9TylbQ0BIXTVbQ0BdMjNbQ0BdMTQ1

>  <s_epik_cmdline>  (14) 
J2VwaWtfcHl0aG9uJywgJy1waHQnLCAnMi4wJywgJy1waCcsICc3LjAnLCAnLXRuJywgJzgnLCAnLW1hJywgJzIwMCcsICctaW1hZScsICc8aW5maWxlLm1hZT4nLCAnLW9tYWUnLCAnPG91dGZpbGUubWFlPic=

>  <r_lp_tautomer_probability>  (14) 
1

>  <r_epik_Ionization_Penalty>  (14) 
0.000997196

>  <r_epik_Ionization_Penalty_Charging>  (14) 
0.000997196

>  <r_epik_Ionization_Penalty_Neutral>  (14) 
1.81537e-12

>  <r_epik_State_Penalty>  (14) 
0.000649917

>  <r_epik_Charging_Adjusted_Penalty>  (14) 
0.00164711

>  <i_epik_Tot_Q>  (14) 
1

>  <i_epik_Tot_abs_Q>  (14) 
1

>  <s_lp_Force_Field>  (14) 
OPLS3e

>  <r_lp_Energy>  (14) 
98.1976

>  <b_lp_Chiralities_Consistent>  (14) 
0

>  <s_lp_Variant>  (14) 
4:0-1

>  <s_i_glide_gridfile>  (14) 
pfpi4k_grid

>  <i_i_glide_lignum>  (14) 
6

>  <i_i_glide_rotatable_bonds>  (14) 
0

>  <r_i_docking_score>  (14) 
-3.808

>  <r_i_glide_ligand_efficiency>  (14) 
-0.253867

>  <r_i_glide_ligand_efficiency_sa>  (14) 
-0.62609

>  <r_i_glide_ligand_efficiency_ln>  (14) 
-1.02696

>  <r_i_glide_gscore>  (14) 
-3.808

>  <r_i_glide_lipo>  (14) 
-0.555468

>  <r_i_glide_hbond>  (14) 
-0.150893

>  <r_i_glide_metal>  (14) 
-0

>  <r_i_glide_rewards>  (14) 
-2.0913

>  <r_i_glide_evdw>  (14) 
-15.038

>  <r_i_glide_ecoul>  (14) 
-1.24938

>  <r_i_glide_erotb>  (14) 
0

>  <r_i_glide_esite>  (14) 
-0.0710324

>  <r_i_glide_emodel>  (14) 
-20.5407

>  <r_i_glide_energy>  (14) 
-16.2874

>  <r_i_glide_einternal>  (14) 
0

>  <r_i_glide_intrahb_reward>  (14) 
-0

>  <i_i_glide_confnum>  (14) 
2

>  <i_i_glide_posenum>  (14) 
19

>  <r_i_glide_eff_state_penalty>  (14) 
0

>  <ligand_id>  (14) 
4

>  <original_smiles>  (14) 
CN1CC2CCC(=O)C3C24CC2CC1C234

>  <smiles>  (14) 
[H]C1([H])C(=O)C2([H])C34C([H])([H])C5([H])C([H])([H])C([H])(C253)[N+]([H])(C([H])([H])[H])C([H])([H])C4([H])C1([H])[H]

$$$$
4:0:2
     RDKit          3D

 33 37  0  0  1  0  0  0  0  0999 V2000
    3.4267   -3.2841   -3.7396 C   0  0  0  0  0  0  0  0  0  0  0  0
    3.9005   -3.3501   -2.3368 N   0  0  1  0  0  0  0  0  0  0  0  0
    5.3132   -3.8092   -2.2392 C   0  0  0  0  0  0  0  0  0  0  0  0
    5.7770   -4.0368   -0.7811 C   0  0  2  0  0  0  0  0  0  0  0  0
    5.3713   -5.4437   -0.2224 C   0  0  0  0  0  0  0  0  0  0  0  0
    4.2919   -5.5164    0.8792 C   0  0  0  0  0  0  0  0  0  0  0  0
    3.4479   -4.2688    0.9432 C   0  0  0  0  0  0  0  0  0  0  0  0
    2.2232   -4.3570    0.9482 O   0  0  0  0  0  0  0  0  0  0  0  0
    4.1714   -2.9770    1.0207 C   0  0  1  0  0  0  0  0  0  0  0  0
    5.4045   -2.8811    0.1453 C   0  0  1  0  0  0  0  0  0  0  0  0
    6.2420   -1.6133   -0.0132 C   0  0  0  0  0  0  0  0  0  0  0  0
    4.9876   -0.8628   -0.4625 C   0  0  1  0  0  0  0  0  0  0  0  0
    4.4931   -0.9039   -1.9230 C   0  0  0  0  0  0  0  0  0  0  0  0
    3.6081   -2.1163   -1.5741 C   0  0  2  0  0  0  0  0  0  0  0  0
    4.1584   -2.0577   -0.1683 C   0  0  2  0  0  0  0  0  0  0  0  0
    3.9958   -2.5652   -4.3178 H   0  0  0  0  0  0  0  0  0  0  0  0
    2.3763   -3.0049   -3.7805 H   0  0  0  0  0  0  0  0  0  0  0  0
    3.5237   -4.2503   -4.2137 H   0  0  0  0  0  0  0  0  0  0  0  0
    5.3896   -4.7205   -2.7999 H   0  0  0  0  0  0  0  0  0  0  0  0
    5.9796   -3.1149   -2.7352 H   0  0  0  0  0  0  0  0  0  0  0  0
    6.8651   -4.0628   -0.8155 H   0  0  0  0  0  0  0  0  0  0  0  0
    5.0082   -6.0802   -1.0298 H   0  0  0  0  0  0  0  0  0  0  0  0
    6.2712   -5.9301    0.1787 H   0  0  0  0  0  0  0  0  0  0  0  0
    3.6572   -6.3951    0.7387 H   0  0  0  0  0  0  0  0  0  0  0  0
    4.7847   -5.6427    1.8430 H   0  0  0  0  0  0  0  0  0  0  0  0
    4.2829   -2.5389    1.9927 H   0  0  0  0  0  0  0  0  0  0  0  0
    6.5957   -1.2101    0.9319 H   0  0  0  0  0  0  0  0  0  0  0  0
    7.0379   -1.6260   -0.7524 H   0  0  0  0  0  0  0  0  0  0  0  0
    4.7187    0.0198    0.1120 H   0  0  0  0  0  0  0  0  0  0  0  0
    3.9037   -0.0351   -2.2271 H   0  0  0  0  0  0  0  0  0  0  0  0
    5.3096   -1.0659   -2.6272 H   0  0  0  0  0  0  0  0  0  0  0  0
    2.5638   -1.8457   -1.6411 H   0  0  0  0  0  0  0  0  0  0  0  0
    3.3545   -4.0825   -1.9175 H   0  0  0  0  0  0  0  0  0  0  0  0
  1  2  1  0
  1 16  1  0
  1 17  1  0
  1 18  1  0
  2 14  1  0
  2  3  1  0
  2 33  1  1
  3  4  1  0
  3 19  1  0
  3 20  1  0
  4 10  1  0
  4  5  1  0
  4 21  1  6
  5  6  1  0
  5 22  1  0
  5 23  1  0
  6  7  1  0
  6 24  1  0
  6 25  1  0
  7  8  2  0
  7  9  1  0
  9 15  1  0
  9 10  1  0
  9 26  1  1
 15 10  1  6
 10 11  1  1
 11 12  1  0
 11 27  1  0
 11 28  1  0
 12 15  1  0
 12 13  1  0
 12 29  1  1
 13 14  1  0
 13 30  1  0
 13 31  1  0
 14 15  1  0
 14 32  1  1
M  CHG  1   2   1
M  END
>  <i_m_ct_stereo_status>  (15) 
1

>  <s_m_source_file>  (15) 
/var/tmp/pbs.5076255.sched01/tmp7me73ahx/0ll6f151o.sdf

>  <i_m_source_file_index>  (15) 
6

>  <i_lp_mmshare_version>  (15) 
48012

>  <i_f3d_flags>  (15) 
2

>  <s_epik_input>  (15) 
W0NIMl0xW0NASF0yW0NIMl1bQ0hdM04oW0NIM10pW0NIMl1bQ0BIXTRbQ0gyXVtDSDJdQyg9TylbQ0BIXTVbQ0BdMjNbQ0BdMTQ1

>  <s_epik_cmdline>  (15) 
J2VwaWtfcHl0aG9uJywgJy1waHQnLCAnMi4wJywgJy1waCcsICc3LjAnLCAnLXRuJywgJzgnLCAnLW1hJywgJzIwMCcsICctaW1hZScsICc8aW5maWxlLm1hZT4nLCAnLW9tYWUnLCAnPG91dGZpbGUubWFlPic=

>  <r_lp_tautomer_probability>  (15) 
1

>  <r_epik_Ionization_Penalty>  (15) 
0.000997196

>  <r_epik_Ionization_Penalty_Charging>  (15) 
0.000997196

>  <r_epik_Ionization_Penalty_Neutral>  (15) 
1.81537e-12

>  <r_epik_State_Penalty>  (15) 
0.000649917

>  <r_epik_Charging_Adjusted_Penalty>  (15) 
0.00164711

>  <i_epik_Tot_Q>  (15) 
1

>  <i_epik_Tot_abs_Q>  (15) 
1

>  <s_lp_Force_Field>  (15) 
OPLS3e

>  <r_lp_Energy>  (15) 
98.1976

>  <b_lp_Chiralities_Consistent>  (15) 
0

>  <s_lp_Variant>  (15) 
4:0-1

>  <s_i_glide_gridfile>  (15) 
pfpi4k_grid

>  <i_i_glide_lignum>  (15) 
6

>  <i_i_glide_rotatable_bonds>  (15) 
0

>  <r_i_docking_score>  (15) 
-3.58357

>  <r_i_glide_ligand_efficiency>  (15) 
-0.238905

>  <r_i_glide_ligand_efficiency_sa>  (15) 
-0.58919

>  <r_i_glide_ligand_efficiency_ln>  (15) 
-0.96643

>  <r_i_glide_gscore>  (15) 
-3.58357

>  <r_i_glide_lipo>  (15) 
-0.354066

>  <r_i_glide_hbond>  (15) 
-0.00373983

>  <r_i_glide_metal>  (15) 
-0

>  <r_i_glide_rewards>  (15) 
-2.01622

>  <r_i_glide_evdw>  (15) 
-13.4567

>  <r_i_glide_ecoul>  (15) 
-3.35633

>  <r_i_glide_erotb>  (15) 
0

>  <r_i_glide_esite>  (15) 
-0.0332631

>  <r_i_glide_emodel>  (15) 
-20.9991

>  <r_i_glide_energy>  (15) 
-16.813

>  <r_i_glide_einternal>  (15) 
0

>  <r_i_glide_intrahb_reward>  (15) 
-0

>  <i_i_glide_confnum>  (15) 
1

>  <i_i_glide_posenum>  (15) 
27

>  <r_i_glide_eff_state_penalty>  (15) 
0

>  <ligand_id>  (15) 
4

>  <original_smiles>  (15) 
CN1CC2CCC(=O)C3C24CC2CC1C234

>  <smiles>  (15) 
[H]C1([H])C(=O)C2([H])C34C([H])([H])C5([H])C([H])([H])C([H])(C253)[N+]([H])(C([H])([H])[H])C([H])([H])C4([H])C1([H])[H]

$$$$
5:0:0
     RDKit          3D

 25 27  0  0  1  0  0  0  0  0999 V2000
    4.5661   -4.4314    1.5427 O   0  0  0  0  0  0  0  0  0  0  0  0
    3.8902   -4.1504    0.5547 C   0  0  0  0  0  0  0  0  0  0  0  0
    2.8034   -4.8383    0.1807 N   0  0  0  0  0  0  0  0  0  0  0  0
    2.3052   -5.9930    0.8341 C   0  0  0  0  0  0  0  0  0  0  0  0
    0.9990   -6.2815    0.7953 N   0  0  0  0  0  0  0  0  0  0  0  0
    0.7044   -7.4313    1.5464 C   0  0  0  0  0  0  0  0  0  0  0  0
    1.8097   -8.0296    2.1061 C   0  0  0  0  0  0  0  0  0  0  0  0
    3.2738   -7.1761    1.7246 S   0  0  0  0  0  0  0  0  0  0  0  0
    4.2394   -2.9512   -0.2394 C   0  0  0  0  0  0  0  0  0  0  0  0
    5.1964   -1.9706    0.1130 C   0  0  0  0  0  0  0  0  0  0  0  0
    5.3528   -1.0450   -0.8008 N   0  0  0  0  0  0  0  0  0  0  0  0
    4.4398   -1.3821   -1.7689 N   0  0  0  0  0  0  0  0  0  0  0  0
    4.2132   -0.6669   -2.9010 C   0  0  0  0  0  0  0  0  0  0  0  0
    3.3207   -1.1438   -3.8257 C   0  0  0  0  0  0  0  0  0  0  0  0
    2.6167   -2.3481   -3.5890 C   0  0  0  0  0  0  0  0  0  0  0  0
    2.8101   -3.0563   -2.4280 C   0  0  0  0  0  0  0  0  0  0  0  0
    3.7541   -2.5822   -1.4683 C   0  0  0  0  0  0  0  0  0  0  0  0
    2.2850   -4.5048   -0.6145 H   0  0  0  0  0  0  0  0  0  0  0  0
   -0.3272   -7.7583    1.6247 H   0  0  0  0  0  0  0  0  0  0  0  0
    1.8524   -8.9292    2.7103 H   0  0  0  0  0  0  0  0  0  0  0  0
    5.7785   -1.9405    1.0253 H   0  0  0  0  0  0  0  0  0  0  0  0
    4.7501    0.2694   -2.9984 H   0  0  0  0  0  0  0  0  0  0  0  0
    3.1266   -0.5698   -4.7286 H   0  0  0  0  0  0  0  0  0  0  0  0
    1.8828   -2.7055   -4.3071 H   0  0  0  0  0  0  0  0  0  0  0  0
    2.2362   -3.9582   -2.2802 H   0  0  0  0  0  0  0  0  0  0  0  0
  1  2  2  0
  2  3  1  0
  2  9  1  0
  3  4  1  0
  3 18  1  0
  4  8  1  0
  4  5  2  0
  5  6  1  0
  6 19  1  0
  6  7  2  0
  7 20  1  0
  7  8  1  0
  9 17  2  0
  9 10  1  0
 10 11  2  0
 10 21  1  0
 11 12  1  0
 12 17  1  0
 12 13  1  0
 13 14  2  0
 13 22  1  0
 14 15  1  0
 14 23  1  0
 15 16  2  0
 15 24  1  0
 16 17  1  0
 16 25  1  0
M  END
>  <i_m_ct_stereo_status>  (16) 
1

>  <s_m_source_file>  (16) 
/var/tmp/pbs.5076255.sched01/tmp7me73ahx/0ll6f151o.sdf

>  <i_m_source_file_index>  (16) 
7

>  <i_lp_mmshare_version>  (16) 
48012

>  <i_f3d_flags>  (16) 
0

>  <s_epik_input>  (16) 
W2NIXTFbY0hdW2NIXVtjSF1jKG4xMiljKFtjSF1uMilDKD1PKS9OPWMzXFtuSF1bY0hdW2NIXXMz

>  <s_epik_cmdline>  (16) 
J2VwaWtfcHl0aG9uJywgJy1waHQnLCAnMi4wJywgJy1waCcsICc3LjAnLCAnLXRuJywgJzgnLCAnLW1hJywgJzIwMCcsICctaW1hZScsICc8aW5maWxlLm1hZT4nLCAnLW9tYWUnLCAnPG91dGZpbGUubWFlPic=

>  <r_lp_tautomer_probability>  (16) 
1

>  <r_epik_Ionization_Penalty>  (16) 
0.00376716

>  <r_epik_Ionization_Penalty_Charging>  (16) 
0

>  <r_epik_Ionization_Penalty_Neutral>  (16) 
0.00376716

>  <r_epik_State_Penalty>  (16) 
-0

>  <r_epik_Charging_Adjusted_Penalty>  (16) 
0

>  <i_epik_Tot_Q>  (16) 
0

>  <i_epik_Tot_abs_Q>  (16) 
0

>  <s_lp_Force_Field>  (16) 
OPLS3e

>  <r_lp_Energy>  (16) 
21.7023

>  <b_lp_Chiralities_Consistent>  (16) 
1

>  <s_lp_Variant>  (16) 
5:0-1

>  <s_i_glide_gridfile>  (16) 
pfpi4k_grid

>  <i_i_glide_lignum>  (16) 
7

>  <i_i_glide_rotatable_bonds>  (16) 
3

>  <r_i_docking_score>  (16) 
-4.00013

>  <r_i_glide_ligand_efficiency>  (16) 
-0.235302

>  <r_i_glide_ligand_efficiency_sa>  (16) 
-0.605028

>  <r_i_glide_ligand_efficiency_ln>  (16) 
-1.04355

>  <r_i_glide_gscore>  (16) 
-4.00013

>  <r_i_glide_lipo>  (16) 
-0.638202

>  <r_i_glide_hbond>  (16) 
-0.16

>  <r_i_glide_metal>  (16) 
-0

>  <r_i_glide_rewards>  (16) 
-1.75994

>  <r_i_glide_evdw>  (16) 
-26.8303

>  <r_i_glide_ecoul>  (16) 
-5.91672

>  <r_i_glide_erotb>  (16) 
0.873992

>  <r_i_glide_esite>  (16) 
-0.0869658

>  <r_i_glide_emodel>  (16) 
-38.7693

>  <r_i_glide_energy>  (16) 
-32.747

>  <r_i_glide_einternal>  (16) 
3.99374

>  <r_i_glide_intrahb_reward>  (16) 
-0

>  <i_i_glide_confnum>  (16) 
5

>  <i_i_glide_posenum>  (16) 
13

>  <r_i_glide_eff_state_penalty>  (16) 
0

>  <ligand_id>  (16) 
5

>  <original_smiles>  (16) 
O=C(N=c1[nH]ccs1)c1cnn2ccccc12

>  <smiles>  (16) 
[H]c1nc(N([H])C(=O)c2c([H])nn3c([H])c([H])c([H])c([H])c23)sc1[H]

$$$$
5:0:1
     RDKit          3D

 25 27  0  0  1  0  0  0  0  0999 V2000
    5.0536   -5.4251    0.3212 O   0  0  0  0  0  0  0  0  0  0  0  0
    4.1448   -4.6328    0.0813 C   0  0  0  0  0  0  0  0  0  0  0  0
    2.8531   -4.8530    0.3512 N   0  0  0  0  0  0  0  0  0  0  0  0
    2.3223   -6.0115    0.9737 C   0  0  0  0  0  0  0  0  0  0  0  0
    1.0044   -6.2660    0.9100 N   0  0  0  0  0  0  0  0  0  0  0  0
    0.6784   -7.4801    1.5520 C   0  0  0  0  0  0  0  0  0  0  0  0
    1.7605   -8.1229    2.1188 C   0  0  0  0  0  0  0  0  0  0  0  0
    3.2304   -7.2281    1.8896 S   0  0  0  0  0  0  0  0  0  0  0  0
    4.4792   -3.3144   -0.4713 C   0  0  0  0  0  0  0  0  0  0  0  0
    5.5386   -2.4760   -0.0733 C   0  0  0  0  0  0  0  0  0  0  0  0
    5.6647   -1.4040   -0.8213 N   0  0  0  0  0  0  0  0  0  0  0  0
    4.6507   -1.5431   -1.7392 N   0  0  0  0  0  0  0  0  0  0  0  0
    4.3829   -0.6516   -2.7215 C   0  0  0  0  0  0  0  0  0  0  0  0
    3.3851   -0.9288   -3.6217 C   0  0  0  0  0  0  0  0  0  0  0  0
    2.6232   -2.1201   -3.5201 C   0  0  0  0  0  0  0  0  0  0  0  0
    2.8717   -3.0184   -2.5093 C   0  0  0  0  0  0  0  0  0  0  0  0
    3.9121   -2.7372   -1.5759 C   0  0  0  0  0  0  0  0  0  0  0  0
    2.2101   -4.1177    0.1030 H   0  0  0  0  0  0  0  0  0  0  0  0
   -0.3557   -7.8338    1.5185 H   0  0  0  0  0  0  0  0  0  0  0  0
    1.7613   -9.0743    2.6312 H   0  0  0  0  0  0  0  0  0  0  0  0
    6.2153   -2.6580    0.7525 H   0  0  0  0  0  0  0  0  0  0  0  0
    4.9822    0.2559   -2.7208 H   0  0  0  0  0  0  0  0  0  0  0  0
    3.1632   -0.1929   -4.3925 H   0  0  0  0  0  0  0  0  0  0  0  0
    1.8181   -2.3116   -4.2215 H   0  0  0  0  0  0  0  0  0  0  0  0
    2.2747   -3.9183   -2.4300 H   0  0  0  0  0  0  0  0  0  0  0  0
  1  2  2  0
  2  3  1  0
  2  9  1  0
  3  4  1  0
  3 18  1  0
  4  8  1  0
  4  5  2  0
  5  6  1  0
  6 19  1  0
  6  7  2  0
  7 20  1  0
  7  8  1  0
  9 17  2  0
  9 10  1  0
 10 11  2  0
 10 21  1  0
 11 12  1  0
 12 17  1  0
 12 13  1  0
 13 14  2  0
 13 22  1  0
 14 15  1  0
 14 23  1  0
 15 16  2  0
 15 24  1  0
 16 17  1  0
 16 25  1  0
M  END
>  <i_m_ct_stereo_status>  (17) 
1

>  <s_m_source_file>  (17) 
/var/tmp/pbs.5076255.sched01/tmp7me73ahx/0ll6f151o.sdf

>  <i_m_source_file_index>  (17) 
7

>  <i_lp_mmshare_version>  (17) 
48012

>  <i_f3d_flags>  (17) 
0

>  <s_epik_input>  (17) 
W2NIXTFbY0hdW2NIXVtjSF1jKG4xMiljKFtjSF1uMilDKD1PKS9OPWMzXFtuSF1bY0hdW2NIXXMz

>  <s_epik_cmdline>  (17) 
J2VwaWtfcHl0aG9uJywgJy1waHQnLCAnMi4wJywgJy1waCcsICc3LjAnLCAnLXRuJywgJzgnLCAnLW1hJywgJzIwMCcsICctaW1hZScsICc8aW5maWxlLm1hZT4nLCAnLW9tYWUnLCAnPG91dGZpbGUubWFlPic=

>  <r_lp_tautomer_probability>  (17) 
1

>  <r_epik_Ionization_Penalty>  (17) 
0.00376716

>  <r_epik_Ionization_Penalty_Charging>  (17) 
0

>  <r_epik_Ionization_Penalty_Neutral>  (17) 
0.00376716

>  <r_epik_State_Penalty>  (17) 
-0

>  <r_epik_Charging_Adjusted_Penalty>  (17) 
0

>  <i_epik_Tot_Q>  (17) 
0

>  <i_epik_Tot_abs_Q>  (17) 
0

>  <s_lp_Force_Field>  (17) 
OPLS3e

>  <r_lp_Energy>  (17) 
21.7023

>  <b_lp_Chiralities_Consistent>  (17) 
1

>  <s_lp_Variant>  (17) 
5:0-1

>  <s_i_glide_gridfile>  (17) 
pfpi4k_grid

>  <i_i_glide_lignum>  (17) 
7

>  <i_i_glide_rotatable_bonds>  (17) 
3

>  <r_i_docking_score>  (17) 
-3.99546

>  <r_i_glide_ligand_efficiency>  (17) 
-0.235027

>  <r_i_glide_ligand_efficiency_sa>  (17) 
-0.604321

>  <r_i_glide_ligand_efficiency_ln>  (17) 
-1.04233

>  <r_i_glide_gscore>  (17) 
-3.99546

>  <r_i_glide_lipo>  (17) 
-0.589205

>  <r_i_glide_hbond>  (17) 
-0.169654

>  <r_i_glide_metal>  (17) 
-0

>  <r_i_glide_rewards>  (17) 
-1.74359

>  <r_i_glide_evdw>  (17) 
-26.891

>  <r_i_glide_ecoul>  (17) 
-6.29317

>  <r_i_glide_erotb>  (17) 
0.873992

>  <r_i_glide_esite>  (17) 
-0.0784796

>  <r_i_glide_emodel>  (17) 
-38.4901

>  <r_i_glide_energy>  (17) 
-33.1841

>  <r_i_glide_einternal>  (17) 
5.37757

>  <r_i_glide_intrahb_reward>  (17) 
-0

>  <i_i_glide_confnum>  (17) 
1

>  <i_i_glide_posenum>  (17) 
22

>  <r_i_glide_eff_state_penalty>  (17) 
0

>  <ligand_id>  (17) 
5

>  <original_smiles>  (17) 
O=C(N=c1[nH]ccs1)c1cnn2ccccc12

>  <smiles>  (17) 
[H]c1nc(N([H])C(=O)c2c([H])nn3c([H])c([H])c([H])c([H])c23)sc1[H]

$$$$
5:0:2
     RDKit          3D

 25 27  0  0  1  0  0  0  0  0999 V2000
    5.3993   -0.2544    2.0895 O   0  0  0  0  0  0  0  0  0  0  0  0
    4.6952   -0.6844    1.1792 C   0  0  0  0  0  0  0  0  0  0  0  0
    3.3702   -0.4633    1.1195 N   0  0  0  0  0  0  0  0  0  0  0  0
    2.6290    0.2519    2.0950 C   0  0  0  0  0  0  0  0  0  0  0  0
    1.5206    0.8965    1.7227 N   0  0  0  0  0  0  0  0  0  0  0  0
    0.9046    1.5836    2.7806 C   0  0  0  0  0  0  0  0  0  0  0  0
    1.5534    1.3980    3.9809 C   0  0  0  0  0  0  0  0  0  0  0  0
    2.9543    0.3771    3.8331 S   0  0  0  0  0  0  0  0  0  0  0  0
    5.3323   -1.4782    0.1096 C   0  0  0  0  0  0  0  0  0  0  0  0
    6.6782   -1.8964    0.0641 C   0  0  0  0  0  0  0  0  0  0  0  0
    6.9920   -2.5298   -1.0429 N   0  0  0  0  0  0  0  0  0  0  0  0
    5.7978   -2.5987   -1.7210 N   0  0  0  0  0  0  0  0  0  0  0  0
    5.6145   -3.2045   -2.9197 C   0  0  0  0  0  0  0  0  0  0  0  0
    4.3737   -3.1724   -3.5176 C   0  0  0  0  0  0  0  0  0  0  0  0
    3.2905   -2.5104   -2.8978 C   0  0  0  0  0  0  0  0  0  0  0  0
    3.4673   -1.8885   -1.6798 C   0  0  0  0  0  0  0  0  0  0  0  0
    4.7523   -1.9344   -1.0502 C   0  0  0  0  0  0  0  0  0  0  0  0
    2.8533   -0.7680    0.3089 H   0  0  0  0  0  0  0  0  0  0  0  0
    0.0140    2.1766    2.5932 H   0  0  0  0  0  0  0  0  0  0  0  0
    1.3108    1.7989    4.9549 H   0  0  0  0  0  0  0  0  0  0  0  0
    7.4317   -1.6946    0.8239 H   0  0  0  0  0  0  0  0  0  0  0  0
    6.4862   -3.6809   -3.3368 H   0  0  0  0  0  0  0  0  0  0  0  0
    4.2384   -3.6751   -4.4639 H   0  0  0  0  0  0  0  0  0  0  0  0
    2.3040   -2.4864   -3.3592 H   0  0  0  0  0  0  0  0  0  0  0  0
    2.6300   -1.3815   -1.2348 H   0  0  0  0  0  0  0  0  0  0  0  0
  1  2  2  0
  2  3  1  0
  2  9  1  0
  3  4  1  0
  3 18  1  0
  4  8  1  0
  4  5  2  0
  5  6  1  0
  6 19  1  0
  6  7  2  0
  7 20  1  0
  7  8  1  0
  9 17  2  0
  9 10  1  0
 10 11  2  0
 10 21  1  0
 11 12  1  0
 12 17  1  0
 12 13  1  0
 13 14  2  0
 13 22  1  0
 14 15  1  0
 14 23  1  0
 15 16  2  0
 15 24  1  0
 16 17  1  0
 16 25  1  0
M  END
>  <i_m_ct_stereo_status>  (18) 
1

>  <s_m_source_file>  (18) 
/var/tmp/pbs.5076255.sched01/tmp7me73ahx/0ll6f151o.sdf

>  <i_m_source_file_index>  (18) 
7

>  <i_lp_mmshare_version>  (18) 
48012

>  <i_f3d_flags>  (18) 
0

>  <s_epik_input>  (18) 
W2NIXTFbY0hdW2NIXVtjSF1jKG4xMiljKFtjSF1uMilDKD1PKS9OPWMzXFtuSF1bY0hdW2NIXXMz

>  <s_epik_cmdline>  (18) 
J2VwaWtfcHl0aG9uJywgJy1waHQnLCAnMi4wJywgJy1waCcsICc3LjAnLCAnLXRuJywgJzgnLCAnLW1hJywgJzIwMCcsICctaW1hZScsICc8aW5maWxlLm1hZT4nLCAnLW9tYWUnLCAnPG91dGZpbGUubWFlPic=

>  <r_lp_tautomer_probability>  (18) 
1

>  <r_epik_Ionization_Penalty>  (18) 
0.00376716

>  <r_epik_Ionization_Penalty_Charging>  (18) 
0

>  <r_epik_Ionization_Penalty_Neutral>  (18) 
0.00376716

>  <r_epik_State_Penalty>  (18) 
-0

>  <r_epik_Charging_Adjusted_Penalty>  (18) 
0

>  <i_epik_Tot_Q>  (18) 
0

>  <i_epik_Tot_abs_Q>  (18) 
0

>  <s_lp_Force_Field>  (18) 
OPLS3e

>  <r_lp_Energy>  (18) 
21.7023

>  <b_lp_Chiralities_Consistent>  (18) 
1

>  <s_lp_Variant>  (18) 
5:0-1

>  <s_i_glide_gridfile>  (18) 
pfpi4k_grid

>  <i_i_glide_lignum>  (18) 
7

>  <i_i_glide_rotatable_bonds>  (18) 
3

>  <r_i_docking_score>  (18) 
-3.79207

>  <r_i_glide_ligand_efficiency>  (18) 
-0.223063

>  <r_i_glide_ligand_efficiency_sa>  (18) 
-0.573557

>  <r_i_glide_ligand_efficiency_ln>  (18) 
-0.989266

>  <r_i_glide_gscore>  (18) 
-3.79207

>  <r_i_glide_lipo>  (18) 
-0.414513

>  <r_i_glide_hbond>  (18) 
-0.317973

>  <r_i_glide_metal>  (18) 
-0

>  <r_i_glide_rewards>  (18) 
-1.90247

>  <r_i_glide_evdw>  (18) 
-27.3737

>  <r_i_glide_ecoul>  (18) 
-4.12313

>  <r_i_glide_erotb>  (18) 
0.873992

>  <r_i_glide_esite>  (18) 
-0.0439468

>  <r_i_glide_emodel>  (18) 
-37.1944

>  <r_i_glide_energy>  (18) 
-31.4968

>  <r_i_glide_einternal>  (18) 
3.98516

>  <r_i_glide_intrahb_reward>  (18) 
-0

>  <i_i_glide_confnum>  (18) 
5

>  <i_i_glide_posenum>  (18) 
3

>  <r_i_glide_eff_state_penalty>  (18) 
0

>  <ligand_id>  (18) 
5

>  <original_smiles>  (18) 
O=C(N=c1[nH]ccs1)c1cnn2ccccc12

>  <smiles>  (18) 
[H]c1nc(N([H])C(=O)c2c([H])nn3c([H])c([H])c([H])c([H])c23)sc1[H]

$$$$
7:0:0
     RDKit          3D

 47 50  0  0  1  0  0  0  0  0999 V2000
    4.4924   -6.6118    0.2803 C   0  0  0  0  0  0  0  0  0  0  0  0
    4.0640   -5.2002    0.7699 C   0  0  0  0  0  0  0  0  0  0  0  0
    2.6367   -5.5255    1.3136 C   0  0  0  0  0  0  0  0  0  0  0  0
    4.9936   -4.8531    2.1882 C   0  0  1  0  0  0  0  0  0  0  0  0
    5.2991   -3.5411    3.1954 C   0  0  0  0  0  0  0  0  0  0  0  0
    5.5553   -1.9649    2.5189 C   0  0  0  0  0  0  0  0  0  0  0  0
    5.1057   -1.7720    0.8977 C   0  0  2  0  0  0  0  0  0  0  0  0
    4.6498   -0.3037    0.7264 C   0  0  0  0  0  0  0  0  0  0  0  0
    4.1833   -2.7635    1.2091 C   0  0  1  0  0  0  0  0  0  0  0  0
    2.8705   -2.7091    0.2785 C   0  0  0  0  0  0  0  0  0  0  0  0
    2.9286   -3.6168   -0.9278 C   0  0  1  0  0  0  0  0  0  0  0  0
    2.6588   -2.9871   -2.1618 O   0  0  0  0  0  0  0  0  0  0  0  0
    4.3141   -4.1404   -0.7038 C   0  0  1  0  0  0  0  0  0  0  0  0
    5.3648   -2.6610   -0.5564 C   0  0  1  0  0  0  0  0  0  0  0  0
    5.2702   -1.7819   -1.8357 C   0  0  0  0  0  0  0  0  0  0  0  0
    6.8861   -3.0605   -0.4264 C   0  0  1  0  0  0  0  0  0  0  0  0
    7.8039   -1.9857   -0.5217 O   0  0  0  0  0  0  0  0  0  0  0  0
    7.0575   -3.7017    0.9672 C   0  0  0  0  0  0  0  0  0  0  0  0
    5.5509   -4.0125    1.3366 C   0  0  1  0  0  0  0  0  0  0  0  0
    4.4865   -7.3612    1.0721 H   0  0  0  0  0  0  0  0  0  0  0  0
    5.4842   -6.6157   -0.1572 H   0  0  0  0  0  0  0  0  0  0  0  0
    3.8260   -6.9565   -0.5031 H   0  0  0  0  0  0  0  0  0  0  0  0
    2.1964   -4.7137    1.8828 H   0  0  0  0  0  0  0  0  0  0  0  0
    2.6924   -6.3464    2.0293 H   0  0  0  0  0  0  0  0  0  0  0  0
    1.9417   -5.8637    0.5478 H   0  0  0  0  0  0  0  0  0  0  0  0
    5.6436   -5.6892    2.4586 H   0  0  0  0  0  0  0  0  0  0  0  0
    4.4869   -3.4785    3.9199 H   0  0  0  0  0  0  0  0  0  0  0  0
    6.1523   -3.8028    3.8207 H   0  0  0  0  0  0  0  0  0  0  0  0
    4.9832   -1.2722    3.1390 H   0  0  0  0  0  0  0  0  0  0  0  0
    6.5633   -1.5828    2.6613 H   0  0  0  0  0  0  0  0  0  0  0  0
    4.0909   -0.1145   -0.1843 H   0  0  0  0  0  0  0  0  0  0  0  0
    5.5238    0.3469    0.6966 H   0  0  0  0  0  0  0  0  0  0  0  0
    4.0232    0.0292    1.5550 H   0  0  0  0  0  0  0  0  0  0  0  0
    3.5476   -2.5713    2.0886 H   0  0  0  0  0  0  0  0  0  0  0  0
    1.9708   -2.9377    0.8449 H   0  0  0  0  0  0  0  0  0  0  0  0
    2.6578   -1.6931   -0.0433 H   0  0  0  0  0  0  0  0  0  0  0  0
    2.1879   -4.4069   -0.8973 H   0  0  0  0  0  0  0  0  0  0  0  0
    1.8939   -2.4379   -2.0522 H   0  0  0  0  0  0  0  0  0  0  0  0
    4.6333   -4.7367   -1.5578 H   0  0  0  0  0  0  0  0  0  0  0  0
    5.4703   -2.3765   -2.7277 H   0  0  0  0  0  0  0  0  0  0  0  0
    5.9654   -0.9490   -1.8195 H   0  0  0  0  0  0  0  0  0  0  0  0
    4.3038   -1.3051   -1.9648 H   0  0  0  0  0  0  0  0  0  0  0  0
    7.1318   -3.7847   -1.2056 H   0  0  0  0  0  0  0  0  0  0  0  0
    8.6875   -2.3303   -0.5540 H   0  0  0  0  0  0  0  0  0  0  0  0
    7.7774   -4.5353    0.9467 H   0  0  0  0  0  0  0  0  0  0  0  0
    7.5556   -3.0470    1.6571 H   0  0  0  0  0  0  0  0  0  0  0  0
    5.9921   -4.7409    0.6270 H   0  0  0  0  0  0  0  0  0  0  0  0
  1  2  1  0
  1 20  1  0
  1 21  1  0
  1 22  1  0
  2 13  1  0
  2  3  1  0
  2  4  1  0
  3 23  1  0
  3 24  1  0
  3 25  1  0
  4 19  1  0
  4  5  1  0
  4 26  1  1
  5  6  1  0
  5 27  1  0
  5 28  1  0
  6  7  1  0
  6 29  1  0
  6 30  1  0
  7 14  1  0
  7  8  1  6
  7  9  1  0
  8 31  1  0
  8 32  1  0
  8 33  1  0
  9 19  1  0
  9 10  1  0
  9 34  1  1
 10 11  1  0
 10 35  1  0
 10 36  1  0
 11 12  1  0
 11 13  1  0
 11 37  1  1
 12 38  1  0
 13 14  1  0
 13 39  1  6
 14 15  1  6
 14 16  1  0
 15 40  1  0
 15 41  1  0
 15 42  1  0
 16 17  1  0
 16 18  1  0
 16 43  1  6
 17 44  1  0
 18 19  1  0
 18 45  1  0
 18 46  1  0
 19 47  1  6
M  END
>  <i_m_ct_stereo_status>  (19) 
1

>  <s_m_source_file>  (19) 
/var/tmp/pbs.5076255.sched01/tmp7me73ahx/0ll6f151o.sdf

>  <i_m_source_file_index>  (19) 
9

>  <i_lp_mmshare_version>  (19) 
48012

>  <i_f3d_flags>  (19) 
0

>  <s_epik_input>  (19) 
W09IXVtDQEBIXShbQ0gyXTEpW0NAQF0yKFtDSDNdKVtDQEhdKFtDQEBIXShbQ0gyXTMpW09IXSlDKFtDSDNdKShbQ0gzXSlbQ0BIXShbQ0gyXVtDSDJdNClbQ0BASF0xW0NASF0zW0NAXTI0W0NIM10=

>  <s_epik_cmdline>  (19) 
J2VwaWtfcHl0aG9uJywgJy1waHQnLCAnMi4wJywgJy1waCcsICc3LjAnLCAnLXRuJywgJzgnLCAnLW1hJywgJzIwMCcsICctaW1hZScsICc8aW5maWxlLm1hZT4nLCAnLW9tYWUnLCAnPG91dGZpbGUubWFlPic=

>  <r_lp_tautomer_probability>  (19) 
1

>  <r_epik_Ionization_Penalty>  (19) 
5.26718e-06

>  <r_epik_Ionization_Penalty_Charging>  (19) 
0

>  <r_epik_Ionization_Penalty_Neutral>  (19) 
5.26718e-06

>  <r_epik_State_Penalty>  (19) 
-0

>  <r_epik_Charging_Adjusted_Penalty>  (19) 
0

>  <i_epik_Tot_Q>  (19) 
0

>  <i_epik_Tot_abs_Q>  (19) 
0

>  <s_lp_Force_Field>  (19) 
OPLS3e

>  <r_lp_Energy>  (19) 
537.294

>  <b_lp_Chiralities_Consistent>  (19) 
1

>  <s_lp_Variant>  (19) 
7:0-1

>  <s_i_glide_gridfile>  (19) 
pfpi4k_grid

>  <i_i_glide_lignum>  (19) 
9

>  <i_i_glide_rotatable_bonds>  (19) 
2

>  <r_i_docking_score>  (19) 
-3.92993

>  <r_i_glide_ligand_efficiency>  (19) 
-0.206838

>  <r_i_glide_ligand_efficiency_sa>  (19) 
-0.551928

>  <r_i_glide_ligand_efficiency_ln>  (19) 
-0.996322

>  <r_i_glide_gscore>  (19) 
-3.92993

>  <r_i_glide_lipo>  (19) 
-0.715227

>  <r_i_glide_hbond>  (19) 
-0.249008

>  <r_i_glide_metal>  (19) 
-0

>  <r_i_glide_rewards>  (19) 
-1.60634

>  <r_i_glide_evdw>  (19) 
-14.5594

>  <r_i_glide_ecoul>  (19) 
-4.20921

>  <r_i_glide_erotb>  (19) 
0

>  <r_i_glide_esite>  (19) 
0

>  <r_i_glide_emodel>  (19) 
-24.0974

>  <r_i_glide_energy>  (19) 
-18.7686

>  <r_i_glide_einternal>  (19) 
1.03471

>  <r_i_glide_intrahb_reward>  (19) 
-0

>  <i_i_glide_confnum>  (19) 
2

>  <i_i_glide_posenum>  (19) 
7

>  <r_i_glide_eff_state_penalty>  (19) 
0

>  <ligand_id>  (19) 
7

>  <original_smiles>  (19) 
CC1(C)C2CCC3(C)C4CC(O)C1C3(C)C(O)CC24

>  <smiles>  (19) 
[H]OC1([H])C([H])([H])C2([H])C3([H])C([H])([H])C([H])(O[H])C4(C([H])([H])[H])C1([H])C(C([H])([H])[H])(C([H])([H])[H])C3([H])C([H])([H])C([H])([H])C24C([H])([H])[H]

$$$$
7:0:1
     RDKit          3D

 47 50  0  0  1  0  0  0  0  0999 V2000
    3.2256   -2.7066   -2.1503 C   0  0  0  0  0  0  0  0  0  0  0  0
    4.1447   -2.9058   -0.9020 C   0  0  0  0  0  0  0  0  0  0  0  0
    5.3008   -3.7360   -1.5483 C   0  0  0  0  0  0  0  0  0  0  0  0
    4.8774   -1.3786   -0.5285 C   0  0  1  0  0  0  0  0  0  0  0  0
    5.7923   -0.6899    0.7062 C   0  0  0  0  0  0  0  0  0  0  0  0
    5.4170   -1.0183    2.3624 C   0  0  0  0  0  0  0  0  0  0  0  0
    4.3679   -2.3284    2.6349 C   0  0  2  0  0  0  0  0  0  0  0  0
    4.7365   -2.9518    4.0022 C   0  0  0  0  0  0  0  0  0  0  0  0
    4.9262   -2.8157    1.4545 C   0  0  1  0  0  0  0  0  0  0  0  0
    4.8712   -4.4329    1.3514 C   0  0  0  0  0  0  0  0  0  0  0  0
    3.6684   -4.9597    0.5925 C   0  0  1  0  0  0  0  0  0  0  0  0
    2.8889   -5.9361    1.2554 O   0  0  0  0  0  0  0  0  0  0  0  0
    3.0164   -3.6365    0.3365 C   0  0  1  0  0  0  0  0  0  0  0  0
    2.8643   -2.8453    1.9730 C   0  0  1  0  0  0  0  0  0  0  0  0
    2.0379   -3.7255    2.9551 C   0  0  0  0  0  0  0  0  0  0  0  0
    2.0893   -1.4754    1.8791 C   0  0  1  0  0  0  0  0  0  0  0  0
    1.7059   -0.9011    3.1162 O   0  0  0  0  0  0  0  0  0  0  0  0
    3.0166   -0.4732    1.1617 C   0  0  0  0  0  0  0  0  0  0  0  0
    4.0488   -1.4864    0.4940 C   0  0  1  0  0  0  0  0  0  0  0  0
    3.7360   -2.1885   -2.9629 H   0  0  0  0  0  0  0  0  0  0  0  0
    2.3243   -2.1348   -1.9341 H   0  0  0  0  0  0  0  0  0  0  0  0
    2.8797   -3.6640   -2.5419 H   0  0  0  0  0  0  0  0  0  0  0  0
    6.1622   -3.8622   -0.9001 H   0  0  0  0  0  0  0  0  0  0  0  0
    5.7004   -3.2131   -2.4183 H   0  0  0  0  0  0  0  0  0  0  0  0
    4.9902   -4.7084   -1.9279 H   0  0  0  0  0  0  0  0  0  0  0  0
    4.5902   -0.6110   -1.2511 H   0  0  0  0  0  0  0  0  0  0  0  0
    6.8391   -0.9462    0.5344 H   0  0  0  0  0  0  0  0  0  0  0  0
    5.7723    0.3935    0.5770 H   0  0  0  0  0  0  0  0  0  0  0  0
    6.3697   -1.2063    2.8584 H   0  0  0  0  0  0  0  0  0  0  0  0
    5.0855   -0.1285    2.8963 H   0  0  0  0  0  0  0  0  0  0  0  0
    4.3406   -3.9488    4.1767 H   0  0  0  0  0  0  0  0  0  0  0  0
    4.3711   -2.3150    4.8088 H   0  0  0  0  0  0  0  0  0  0  0  0
    5.8161   -3.0289    4.1182 H   0  0  0  0  0  0  0  0  0  0  0  0
    6.0285   -2.8531    1.4279 H   0  0  0  0  0  0  0  0  0  0  0  0
    5.7717   -4.8325    0.8878 H   0  0  0  0  0  0  0  0  0  0  0  0
    4.9179   -4.8979    2.3325 H   0  0  0  0  0  0  0  0  0  0  0  0
    3.9404   -5.4619   -0.3277 H   0  0  0  0  0  0  0  0  0  0  0  0
    2.7419   -5.6550    2.1420 H   0  0  0  0  0  0  0  0  0  0  0  0
    2.0305   -3.7880   -0.1033 H   0  0  0  0  0  0  0  0  0  0  0  0
    1.0829   -4.0055    2.5125 H   0  0  0  0  0  0  0  0  0  0  0  0
    1.8235   -3.2158    3.8951 H   0  0  0  0  0  0  0  0  0  0  0  0
    2.5438   -4.6377    3.2538 H   0  0  0  0  0  0  0  0  0  0  0  0
    1.1853   -1.6209    1.2872 H   0  0  0  0  0  0  0  0  0  0  0  0
    1.2745   -0.0814    2.9346 H   0  0  0  0  0  0  0  0  0  0  0  0
    2.4316    0.1693    0.4880 H   0  0  0  0  0  0  0  0  0  0  0  0
    3.4200    0.2742    1.8364 H   0  0  0  0  0  0  0  0  0  0  0  0
    3.0845   -1.4488   -0.0600 H   0  0  0  0  0  0  0  0  0  0  0  0
  1  2  1  0
  1 20  1  0
  1 21  1  0
  1 22  1  0
  2 13  1  0
  2  3  1  0
  2  4  1  0
  3 23  1  0
  3 24  1  0
  3 25  1  0
  4 19  1  0
  4  5  1  0
  4 26  1  6
  5  6  1  0
  5 27  1  0
  5 28  1  0
  6  7  1  0
  6 29  1  0
  6 30  1  0
  7 14  1  0
  7  8  1  1
  7  9  1  0
  8 31  1  0
  8 32  1  0
  8 33  1  0
  9 19  1  0
  9 10  1  0
  9 34  1  1
 10 11  1  0
 10 35  1  0
 10 36  1  0
 11 12  1  0
 11 13  1  0
 11 37  1  6
 12 38  1  0
 13 14  1  0
 13 39  1  6
 14 15  1  1
 14 16  1  0
 15 40  1  0
 15 41  1  0
 15 42  1  0
 16 17  1  0
 16 18  1  0
 16 43  1  6
 17 44  1  0
 18 19  1  0
 18 45  1  0
 18 46  1  0
 19 47  1  6
M  END
>  <i_m_ct_stereo_status>  (20) 
1

>  <s_m_source_file>  (20) 
/var/tmp/pbs.5076255.sched01/tmp7me73ahx/0ll6f151o.sdf

>  <i_m_source_file_index>  (20) 
9

>  <i_lp_mmshare_version>  (20) 
48012

>  <i_f3d_flags>  (20) 
0

>  <s_epik_input>  (20) 
W09IXVtDQEBIXShbQ0gyXTEpW0NAQF0yKFtDSDNdKVtDQEhdKFtDQEBIXShbQ0gyXTMpW09IXSlDKFtDSDNdKShbQ0gzXSlbQ0BIXShbQ0gyXVtDSDJdNClbQ0BASF0xW0NASF0zW0NAXTI0W0NIM10=

>  <s_epik_cmdline>  (20) 
J2VwaWtfcHl0aG9uJywgJy1waHQnLCAnMi4wJywgJy1waCcsICc3LjAnLCAnLXRuJywgJzgnLCAnLW1hJywgJzIwMCcsICctaW1hZScsICc8aW5maWxlLm1hZT4nLCAnLW9tYWUnLCAnPG91dGZpbGUubWFlPic=

>  <r_lp_tautomer_probability>  (20) 
1

>  <r_epik_Ionization_Penalty>  (20) 
5.26718e-06

>  <r_epik_Ionization_Penalty_Charging>  (20) 
0

>  <r_epik_Ionization_Penalty_Neutral>  (20) 
5.26718e-06

>  <r_epik_State_Penalty>  (20) 
-0

>  <r_epik_Charging_Adjusted_Penalty>  (20) 
0

>  <i_epik_Tot_Q>  (20) 
0

>  <i_epik_Tot_abs_Q>  (20) 
0

>  <s_lp_Force_Field>  (20) 
OPLS3e

>  <r_lp_Energy>  (20) 
537.294

>  <b_lp_Chiralities_Consistent>  (20) 
1

>  <s_lp_Variant>  (20) 
7:0-1

>  <s_i_glide_gridfile>  (20) 
pfpi4k_grid

>  <i_i_glide_lignum>  (20) 
9

>  <i_i_glide_rotatable_bonds>  (20) 
2

>  <r_i_docking_score>  (20) 
-3.3155

>  <r_i_glide_ligand_efficiency>  (20) 
-0.1745

>  <r_i_glide_ligand_efficiency_sa>  (20) 
-0.465636

>  <r_i_glide_ligand_efficiency_ln>  (20) 
-0.840551

>  <r_i_glide_gscore>  (20) 
-3.3155

>  <r_i_glide_lipo>  (20) 
-0.366073

>  <r_i_glide_hbond>  (20) 
0

>  <r_i_glide_metal>  (20) 
-0

>  <r_i_glide_rewards>  (20) 
-1.60634

>  <r_i_glide_evdw>  (20) 
-21.2584

>  <r_i_glide_ecoul>  (20) 
-1.86777

>  <r_i_glide_erotb>  (20) 
0

>  <r_i_glide_esite>  (20) 
0

>  <r_i_glide_emodel>  (20) 
-27.9284

>  <r_i_glide_energy>  (20) 
-23.1262

>  <r_i_glide_einternal>  (20) 
0.418246

>  <r_i_glide_intrahb_reward>  (20) 
-0

>  <i_i_glide_confnum>  (20) 
2

>  <i_i_glide_posenum>  (20) 
1

>  <r_i_glide_eff_state_penalty>  (20) 
0

>  <ligand_id>  (20) 
7

>  <original_smiles>  (20) 
CC1(C)C2CCC3(C)C4CC(O)C1C3(C)C(O)CC24

>  <smiles>  (20) 
[H]OC1([H])C([H])([H])C2([H])C3([H])C([H])([H])C([H])(O[H])C4(C([H])([H])[H])C1([H])C(C([H])([H])[H])(C([H])([H])[H])C3([H])C([H])([H])C([H])([H])C24C([H])([H])[H]

$$$$
7:0:2
     RDKit          3D

 47 50  0  0  1  0  0  0  0  0999 V2000
    3.2444   -2.6567   -2.1631 C   0  0  0  0  0  0  0  0  0  0  0  0
    4.1536   -2.8751   -0.9121 C   0  0  0  0  0  0  0  0  0  0  0  0
    5.3117   -3.6990   -1.5630 C   0  0  0  0  0  0  0  0  0  0  0  0
    4.8884   -1.3550   -0.5114 C   0  0  1  0  0  0  0  0  0  0  0  0
    5.7980   -0.6872    0.7397 C   0  0  0  0  0  0  0  0  0  0  0  0
    5.4145   -1.0385    2.3861 C   0  0  0  0  0  0  0  0  0  0  0  0
    4.3612   -2.3502    2.6355 C   0  0  2  0  0  0  0  0  0  0  0  0
    4.7320   -2.9961    3.9931 C   0  0  0  0  0  0  0  0  0  0  0  0
    4.9220   -2.8208    1.4499 C   0  0  1  0  0  0  0  0  0  0  0  0
    4.8644   -4.4354    1.3225 C   0  0  0  0  0  0  0  0  0  0  0  0
    3.6664   -4.9477    0.5488 C   0  0  1  0  0  0  0  0  0  0  0  0
    2.8906   -5.9309    1.2014 O   0  0  0  0  0  0  0  0  0  0  0  0
    3.0165   -3.6207    0.3100 C   0  0  1  0  0  0  0  0  0  0  0  0
    2.8581   -2.8525    1.9587 C   0  0  1  0  0  0  0  0  0  0  0  0
    2.0215   -3.7449    2.9232 C   0  0  0  0  0  0  0  0  0  0  0  0
    2.0860   -1.4783    1.8794 C   0  0  1  0  0  0  0  0  0  0  0  0
    1.6955   -0.9214    3.1218 O   0  0  0  0  0  0  0  0  0  0  0  0
    3.0193   -0.4684    1.1789 C   0  0  0  0  0  0  0  0  0  0  0  0
    4.0519   -1.4740    0.5056 C   0  0  1  0  0  0  0  0  0  0  0  0
    3.7613   -2.1265   -2.9636 H   0  0  0  0  0  0  0  0  0  0  0  0
    2.3460   -2.0810   -1.9443 H   0  0  0  0  0  0  0  0  0  0  0  0
    2.8958   -3.6054   -2.5718 H   0  0  0  0  0  0  0  0  0  0  0  0
    6.1683   -3.8406   -0.9117 H   0  0  0  0  0  0  0  0  0  0  0  0
    5.7201   -3.1644   -2.4210 H   0  0  0  0  0  0  0  0  0  0  0  0
    5.0001   -4.6637   -1.9613 H   0  0  0  0  0  0  0  0  0  0  0  0
    4.6079   -0.5759   -1.2234 H   0  0  0  0  0  0  0  0  0  0  0  0
    6.8442   -0.9435    0.5714 H   0  0  0  0  0  0  0  0  0  0  0  0
    5.7833    0.3989    0.6277 H   0  0  0  0  0  0  0  0  0  0  0  0
    6.3663   -1.2378    2.8777 H   0  0  0  0  0  0  0  0  0  0  0  0
    5.0830   -0.1582    2.9359 H   0  0  0  0  0  0  0  0  0  0  0  0
    4.3263   -3.9922    4.1520 H   0  0  0  0  0  0  0  0  0  0  0  0
    4.3601   -2.3745    4.8081 H   0  0  0  0  0  0  0  0  0  0  0  0
    5.8120   -3.0775    4.1151 H   0  0  0  0  0  0  0  0  0  0  0  0
    6.0233   -2.8616    1.4296 H   0  0  0  0  0  0  0  0  0  0  0  0
    5.7670   -4.8331    0.8621 H   0  0  0  0  0  0  0  0  0  0  0  0
    4.8983   -4.9156    2.2983 H   0  0  0  0  0  0  0  0  0  0  0  0
    3.9422   -5.4411   -0.3759 H   0  0  0  0  0  0  0  0  0  0  0  0
    3.4121   -6.7158    1.2824 H   0  0  0  0  0  0  0  0  0  0  0  0
    2.0327   -3.7650   -0.1354 H   0  0  0  0  0  0  0  0  0  0  0  0
    1.0665   -4.0161    2.4796 H   0  0  0  0  0  0  0  0  0  0  0  0
    1.8062   -3.2545    3.8723 H   0  0  0  0  0  0  0  0  0  0  0  0
    2.5213   -4.6695    3.1951 H   0  0  0  0  0  0  0  0  0  0  0  0
    1.1839   -1.6143    1.2819 H   0  0  0  0  0  0  0  0  0  0  0  0
    1.2663   -0.0970    2.9498 H   0  0  0  0  0  0  0  0  0  0  0  0
    2.4433    0.1842    0.5070 H   0  0  0  0  0  0  0  0  0  0  0  0
    3.4212    0.2658    1.8690 H   0  0  0  0  0  0  0  0  0  0  0  0
    3.0928   -1.4275   -0.0536 H   0  0  0  0  0  0  0  0  0  0  0  0
  1  2  1  0
  1 20  1  0
  1 21  1  0
  1 22  1  0
  2 13  1  0
  2  3  1  0
  2  4  1  0
  3 23  1  0
  3 24  1  0
  3 25  1  0
  4 19  1  0
  4  5  1  0
  4 26  1  6
  5  6  1  0
  5 27  1  0
  5 28  1  0
  6  7  1  0
  6 29  1  0
  6 30  1  0
  7 14  1  0
  7  8  1  1
  7  9  1  0
  8 31  1  0
  8 32  1  0
  8 33  1  0
  9 19  1  0
  9 10  1  0
  9 34  1  1
 10 11  1  0
 10 35  1  0
 10 36  1  0
 11 12  1  0
 11 13  1  0
 11 37  1  6
 12 38  1  0
 13 14  1  0
 13 39  1  6
 14 15  1  1
 14 16  1  0
 15 40  1  0
 15 41  1  0
 15 42  1  0
 16 17  1  0
 16 18  1  0
 16 43  1  6
 17 44  1  0
 18 19  1  0
 18 45  1  0
 18 46  1  0
 19 47  1  6
M  END
>  <i_m_ct_stereo_status>  (21) 
1

>  <s_m_source_file>  (21) 
/var/tmp/pbs.5076255.sched01/tmp7me73ahx/0ll6f151o.sdf

>  <i_m_source_file_index>  (21) 
9

>  <i_lp_mmshare_version>  (21) 
48012

>  <i_f3d_flags>  (21) 
0

>  <s_epik_input>  (21) 
W09IXVtDQEBIXShbQ0gyXTEpW0NAQF0yKFtDSDNdKVtDQEhdKFtDQEBIXShbQ0gyXTMpW09IXSlDKFtDSDNdKShbQ0gzXSlbQ0BIXShbQ0gyXVtDSDJdNClbQ0BASF0xW0NASF0zW0NAXTI0W0NIM10=

>  <s_epik_cmdline>  (21) 
J2VwaWtfcHl0aG9uJywgJy1waHQnLCAnMi4wJywgJy1waCcsICc3LjAnLCAnLXRuJywgJzgnLCAnLW1hJywgJzIwMCcsICctaW1hZScsICc8aW5maWxlLm1hZT4nLCAnLW9tYWUnLCAnPG91dGZpbGUubWFlPic=

>  <r_lp_tautomer_probability>  (21) 
1

>  <r_epik_Ionization_Penalty>  (21) 
5.26718e-06

>  <r_epik_Ionization_Penalty_Charging>  (21) 
0

>  <r_epik_Ionization_Penalty_Neutral>  (21) 
5.26718e-06

>  <r_epik_State_Penalty>  (21) 
-0

>  <r_epik_Charging_Adjusted_Penalty>  (21) 
0

>  <i_epik_Tot_Q>  (21) 
0

>  <i_epik_Tot_abs_Q>  (21) 
0

>  <s_lp_Force_Field>  (21) 
OPLS3e

>  <r_lp_Energy>  (21) 
537.294

>  <b_lp_Chiralities_Consistent>  (21) 
1

>  <s_lp_Variant>  (21) 
7:0-1

>  <s_i_glide_gridfile>  (21) 
pfpi4k_grid

>  <i_i_glide_lignum>  (21) 
9

>  <i_i_glide_rotatable_bonds>  (21) 
2

>  <r_i_docking_score>  (21) 
-3.29809

>  <r_i_glide_ligand_efficiency>  (21) 
-0.173584

>  <r_i_glide_ligand_efficiency_sa>  (21) 
-0.463191

>  <r_i_glide_ligand_efficiency_ln>  (21) 
-0.836136

>  <r_i_glide_gscore>  (21) 
-3.29809

>  <r_i_glide_lipo>  (21) 
-0.371481

>  <r_i_glide_hbond>  (21) 
0

>  <r_i_glide_metal>  (21) 
-0

>  <r_i_glide_rewards>  (21) 
-1.60634

>  <r_i_glide_evdw>  (21) 
-21.2762

>  <r_i_glide_ecoul>  (21) 
-1.70969

>  <r_i_glide_erotb>  (21) 
0

>  <r_i_glide_esite>  (21) 
0

>  <r_i_glide_emodel>  (21) 
-27.6519

>  <r_i_glide_energy>  (21) 
-22.9859

>  <r_i_glide_einternal>  (21) 
0.653927

>  <r_i_glide_intrahb_reward>  (21) 
-0

>  <i_i_glide_confnum>  (21) 
2

>  <i_i_glide_posenum>  (21) 
9

>  <r_i_glide_eff_state_penalty>  (21) 
0

>  <ligand_id>  (21) 
7

>  <original_smiles>  (21) 
CC1(C)C2CCC3(C)C4CC(O)C1C3(C)C(O)CC24

>  <smiles>  (21) 
[H]OC1([H])C([H])([H])C2([H])C3([H])C([H])([H])C([H])(O[H])C4(C([H])([H])[H])C1([H])C(C([H])([H])[H])(C([H])([H])[H])C3([H])C([H])([H])C([H])([H])C24C([H])([H])[H]

$$$$
8:0:0
     RDKit          3D

 44 48  0  0  1  0  0  0  0  0999 V2000
    2.7042   -2.9013   -3.5003 C   0  0  0  0  0  0  0  0  0  0  0  0
    3.5547   -3.0214   -2.4703 C   0  0  0  0  0  0  0  0  0  0  0  0
    5.1825   -3.4304   -2.6801 C   0  0  0  0  0  0  0  0  0  0  0  0
    6.2297   -3.0048   -1.4021 C   0  0  2  0  0  0  0  0  0  0  0  0
    6.5176   -3.5046    0.1441 C   0  0  0  0  0  0  0  0  0  0  0  0
    5.3075   -3.5765    1.3288 C   0  0  1  0  0  0  0  0  0  0  0  0
    4.2675   -2.4040    1.6206 C   0  0  0  0  0  0  0  0  0  0  0  0
    3.6336   -2.2855    2.8034 C   0  0  0  0  0  0  0  0  0  0  0  0
    3.6949   -3.3931    3.8491 C   0  0  1  0  0  0  0  0  0  0  0  0
    2.9164   -3.0371    5.1336 C   0  0  0  0  0  0  0  0  0  0  0  0
    3.1581   -4.6953    3.1957 C   0  0  0  0  0  0  0  0  0  0  0  0
    2.8576   -5.6721    3.8847 O   0  0  0  0  0  0  0  0  0  0  0  0
    2.9739   -4.7450    1.6601 C   0  0  0  0  0  0  0  0  0  0  0  0
    4.2897   -4.5408    0.8130 C   0  0  2  0  0  0  0  0  0  0  0  0
    4.9192   -5.9563    0.6616 C   0  0  0  0  0  0  0  0  0  0  0  0
    4.1154   -3.7453   -0.5213 C   0  0  2  0  0  0  0  0  0  0  0  0
    5.1527   -2.3719   -0.8454 C   0  0  1  0  0  0  0  0  0  0  0  0
    4.9314   -1.0913   -0.0897 C   0  0  0  0  0  0  0  0  0  0  0  0
    3.6604   -1.7515    0.3152 C   0  0  1  0  0  0  0  0  0  0  0  0
    3.1025   -2.8320   -0.8811 C   0  0  1  0  0  0  0  0  0  0  0  0
    1.6624   -2.6585   -3.3337 H   0  0  0  0  0  0  0  0  0  0  0  0
    3.0389   -3.0555   -4.5161 H   0  0  0  0  0  0  0  0  0  0  0  0
    5.2659   -4.5024   -2.8775 H   0  0  0  0  0  0  0  0  0  0  0  0
    5.5241   -2.9486   -3.5952 H   0  0  0  0  0  0  0  0  0  0  0  0
    7.0046   -2.3165   -1.7445 H   0  0  0  0  0  0  0  0  0  0  0  0
    7.0353   -4.4608    0.0783 H   0  0  0  0  0  0  0  0  0  0  0  0
    7.2907   -2.8466    0.5445 H   0  0  0  0  0  0  0  0  0  0  0  0
    5.7649   -3.9141    2.2573 H   0  0  0  0  0  0  0  0  0  0  0  0
    2.8217   -1.5805    2.9033 H   0  0  0  0  0  0  0  0  0  0  0  0
    4.7360   -3.5691    4.1170 H   0  0  0  0  0  0  0  0  0  0  0  0
    1.8537   -2.8795    4.9439 H   0  0  0  0  0  0  0  0  0  0  0  0
    3.3102   -2.1320    5.5954 H   0  0  0  0  0  0  0  0  0  0  0  0
    2.9957   -3.8325    5.8758 H   0  0  0  0  0  0  0  0  0  0  0  0
    2.5013   -5.6889    1.3950 H   0  0  0  0  0  0  0  0  0  0  0  0
    2.2354   -3.9841    1.4070 H   0  0  0  0  0  0  0  0  0  0  0  0
    4.1612   -6.7183    0.4766 H   0  0  0  0  0  0  0  0  0  0  0  0
    5.4465   -6.2434    1.5751 H   0  0  0  0  0  0  0  0  0  0  0  0
    5.6230   -6.0347   -0.1659 H   0  0  0  0  0  0  0  0  0  0  0  0
    4.0478   -4.6609   -1.1259 H   0  0  0  0  0  0  0  0  0  0  0  0
    5.0641   -1.6237   -1.6609 H   0  0  0  0  0  0  0  0  0  0  0  0
    5.6743   -0.8699    0.6831 H   0  0  0  0  0  0  0  0  0  0  0  0
    4.7045   -0.1612   -0.6270 H   0  0  0  0  0  0  0  0  0  0  0  0
    2.9071   -1.0064    0.5692 H   0  0  0  0  0  0  0  0  0  0  0  0
    2.1009   -3.2194   -0.6990 H   0  0  0  0  0  0  0  0  0  0  0  0
  1  2  2  0
  1 21  1  0
  1 22  1  0
  2 20  1  0
  2  3  1  0
  3  4  1  0
  3 23  1  0
  3 24  1  0
  4 17  1  0
  4  5  1  0
  4 25  1  6
  5  6  1  0
  5 26  1  0
  5 27  1  0
  6 14  1  0
  6  7  1  0
  6 28  1  1
  7 19  1  0
  7  8  2  0
  8  9  1  0
  8 29  1  0
  9 10  1  0
  9 11  1  0
  9 30  1  1
 10 31  1  0
 10 32  1  0
 10 33  1  0
 11 12  2  0
 11 13  1  0
 13 14  1  0
 13 34  1  0
 13 35  1  0
 14 15  1  6
 14 16  1  0
 15 36  1  0
 15 37  1  0
 15 38  1  0
 16 20  1  0
 16 17  1  0
 16 39  1  6
 17 18  1  0
 17 40  1  6
 18 19  1  0
 18 41  1  0
 18 42  1  0
 19 20  1  0
 19 43  1  1
 20 44  1  6
M  END
>  <i_m_ct_stereo_status>  (22) 
1

>  <s_m_source_file>  (22) 
/var/tmp/pbs.5076255.sched01/tmp7me73ahx/0ll6f151o.sdf

>  <i_m_source_file_index>  (22) 
10

>  <i_lp_mmshare_version>  (22) 
48012

>  <i_f3d_flags>  (22) 
0

>  <s_epik_input>  (22) 
W0NIMl09QzFbQ0gyXVtDQEhdKFtDSDJdMilbQ0hdKFtDSDJdMylbQ0BASF00W0NASF0xW0NASF0zQyhbQ0BIXTJbQ0BdNDVbQ0gzXSk9W0NIXVtDQEBIXShbQ0gzXSlDKD1PKVtDSDJdNQ==

>  <s_epik_cmdline>  (22) 
J2VwaWtfcHl0aG9uJywgJy1waHQnLCAnMi4wJywgJy1waCcsICc3LjAnLCAnLXRuJywgJzgnLCAnLW1hJywgJzIwMCcsICctaW1hZScsICc8aW5maWxlLm1hZT4nLCAnLW9tYWUnLCAnPG91dGZpbGUubWFlPic=

>  <r_lp_tautomer_probability>  (22) 
1

>  <r_epik_Ionization_Penalty>  (22) 
1.39452e-13

>  <r_epik_Ionization_Penalty_Charging>  (22) 
0

>  <r_epik_Ionization_Penalty_Neutral>  (22) 
1.39452e-13

>  <r_epik_State_Penalty>  (22) 
-0

>  <r_epik_Charging_Adjusted_Penalty>  (22) 
0

>  <i_epik_Tot_Q>  (22) 
0

>  <i_epik_Tot_abs_Q>  (22) 
0

>  <s_lp_Force_Field>  (22) 
OPLS3e

>  <r_lp_Energy>  (22) 
390.364

>  <b_lp_Chiralities_Consistent>  (22) 
1

>  <s_lp_Variant>  (22) 
8:0-1

>  <s_i_glide_gridfile>  (22) 
pfpi4k_grid

>  <i_i_glide_lignum>  (22) 
10

>  <i_i_glide_rotatable_bonds>  (22) 
0

>  <r_i_docking_score>  (22) 
-3.54602

>  <r_i_glide_ligand_efficiency>  (22) 
-0.177301

>  <r_i_glide_ligand_efficiency_sa>  (22) 
-0.481269

>  <r_i_glide_ligand_efficiency_ln>  (22) 
-0.887452

>  <r_i_glide_gscore>  (22) 
-3.54602

>  <r_i_glide_lipo>  (22) 
-0.758461

>  <r_i_glide_hbond>  (22) 
0

>  <r_i_glide_metal>  (22) 
-0

>  <r_i_glide_rewards>  (22) 
-1.57914

>  <r_i_glide_evdw>  (22) 
-24.3669

>  <r_i_glide_ecoul>  (22) 
0.066161

>  <r_i_glide_erotb>  (22) 
0

>  <r_i_glide_esite>  (22) 
0

>  <r_i_glide_emodel>  (22) 
-29.4774

>  <r_i_glide_energy>  (22) 
-24.3008

>  <r_i_glide_einternal>  (22) 
0

>  <r_i_glide_intrahb_reward>  (22) 
-0

>  <i_i_glide_confnum>  (22) 
2

>  <i_i_glide_posenum>  (22) 
11

>  <r_i_glide_eff_state_penalty>  (22) 
0

>  <ligand_id>  (22) 
8

>  <original_smiles>  (22) 
C=C1CC2CC3C4=CC(C)C(=O)CC3(C)C3C2CC4C13

>  <smiles>  (22) 
[H]C([H])=C1C([H])([H])C2([H])C([H])([H])C3([H])C4=C([H])C([H])(C([H])([H])[H])C(=O)C([H])([H])C3(C([H])([H])[H])C3([H])C1([H])C4([H])C([H])([H])C23[H]

$$$$
8:0:1
     RDKit          3D

 44 48  0  0  1  0  0  0  0  0999 V2000
    3.9783   -1.3240   -3.0827 C   0  0  0  0  0  0  0  0  0  0  0  0
    4.4130   -1.8608   -1.9327 C   0  0  0  0  0  0  0  0  0  0  0  0
    5.3561   -3.2656   -1.8831 C   0  0  0  0  0  0  0  0  0  0  0  0
    6.2700   -3.4965   -0.4588 C   0  0  2  0  0  0  0  0  0  0  0  0
    5.9770   -3.8837    1.1175 C   0  0  0  0  0  0  0  0  0  0  0  0
    4.9154   -2.9986    2.1004 C   0  0  1  0  0  0  0  0  0  0  0  0
    4.9075   -1.4088    2.2121 C   0  0  0  0  0  0  0  0  0  0  0  0
    4.4024   -0.7650    3.2826 C   0  0  0  0  0  0  0  0  0  0  0  0
    3.5926   -1.5069    4.3374 C   0  0  1  0  0  0  0  0  0  0  0  0
    3.1262   -0.5807    5.4801 C   0  0  0  0  0  0  0  0  0  0  0  0
    2.3924   -2.1883    3.6254 C   0  0  0  0  0  0  0  0  0  0  0  0
    1.4460   -2.6456    4.2706 O   0  0  0  0  0  0  0  0  0  0  0  0
    2.3892   -2.2736    2.0795 C   0  0  0  0  0  0  0  0  0  0  0  0
    3.5777   -3.0980    1.4431 C   0  0  2  0  0  0  0  0  0  0  0  0
    3.1072   -4.5808    1.4135 C   0  0  0  0  0  0  0  0  0  0  0  0
    4.1261   -2.5483    0.0859 C   0  0  2  0  0  0  0  0  0  0  0  0
    5.8448   -2.2507   -0.0870 C   0  0  1  0  0  0  0  0  0  0  0  0
    6.4581   -1.0791    0.6239 C   0  0  0  0  0  0  0  0  0  0  0  0
    5.0413   -0.6717    0.8214 C   0  0  1  0  0  0  0  0  0  0  0  0
    4.0373   -1.2394   -0.4354 C   0  0  1  0  0  0  0  0  0  0  0  0
    3.3617   -0.4356   -3.0832 H   0  0  0  0  0  0  0  0  0  0  0  0
    4.2310   -1.7823   -4.0263 H   0  0  0  0  0  0  0  0  0  0  0  0
    4.7241   -4.1437   -2.0494 H   0  0  0  0  0  0  0  0  0  0  0  0
    6.0305   -3.2431   -2.7420 H   0  0  0  0  0  0  0  0  0  0  0  0
    7.3392   -3.5355   -0.6806 H   0  0  0  0  0  0  0  0  0  0  0  0
    5.7229   -4.9422    1.1428 H   0  0  0  0  0  0  0  0  0  0  0  0
    6.9423   -3.8617    1.6239 H   0  0  0  0  0  0  0  0  0  0  0  0
    4.9269   -3.4448    3.0921 H   0  0  0  0  0  0  0  0  0  0  0  0
    4.2716    0.3064    3.2461 H   0  0  0  0  0  0  0  0  0  0  0  0
    4.2078   -2.2977    4.7671 H   0  0  0  0  0  0  0  0  0  0  0  0
    2.4730    0.2178    5.1233 H   0  0  0  0  0  0  0  0  0  0  0  0
    3.9734   -0.1173    5.9848 H   0  0  0  0  0  0  0  0  0  0  0  0
    2.5712   -1.1374    6.2360 H   0  0  0  0  0  0  0  0  0  0  0  0
    1.4338   -2.6777    1.7592 H   0  0  0  0  0  0  0  0  0  0  0  0
    2.3867   -1.2506    1.7031 H   0  0  0  0  0  0  0  0  0  0  0  0
    2.0596   -4.6608    1.1270 H   0  0  0  0  0  0  0  0  0  0  0  0
    3.2020   -5.0360    2.4024 H   0  0  0  0  0  0  0  0  0  0  0  0
    3.6566   -5.2050    0.7080 H   0  0  0  0  0  0  0  0  0  0  0  0
    3.5226   -3.2485   -0.5153 H   0  0  0  0  0  0  0  0  0  0  0  0
    6.3712   -1.7240   -0.9085 H   0  0  0  0  0  0  0  0  0  0  0  0
    7.0585   -1.3317    1.5035 H   0  0  0  0  0  0  0  0  0  0  0  0
    6.9920   -0.2950    0.0817 H   0  0  0  0  0  0  0  0  0  0  0  0
    4.9654    0.4088    0.9400 H   0  0  0  0  0  0  0  0  0  0  0  0
    3.0202   -0.8499   -0.3999 H   0  0  0  0  0  0  0  0  0  0  0  0
  1  2  2  0
  1 21  1  0
  1 22  1  0
  2 20  1  0
  2  3  1  0
  3  4  1  0
  3 23  1  0
  3 24  1  0
  4 17  1  0
  4  5  1  0
  4 25  1  6
  5  6  1  0
  5 26  1  0
  5 27  1  0
  6 14  1  0
  6  7  1  0
  6 28  1  1
  7 19  1  0
  7  8  2  0
  8  9  1  0
  8 29  1  0
  9 10  1  0
  9 11  1  0
  9 30  1  1
 10 31  1  0
 10 32  1  0
 10 33  1  0
 11 12  2  0
 11 13  1  0
 13 14  1  0
 13 34  1  0
 13 35  1  0
 14 15  1  6
 14 16  1  0
 15 36  1  0
 15 37  1  0
 15 38  1  0
 16 20  1  0
 16 17  1  0
 16 39  1  6
 17 18  1  0
 17 40  1  6
 18 19  1  0
 18 41  1  0
 18 42  1  0
 19 20  1  0
 19 43  1  1
 20 44  1  6
M  END
>  <i_m_ct_stereo_status>  (23) 
1

>  <s_m_source_file>  (23) 
/var/tmp/pbs.5076255.sched01/tmp7me73ahx/0ll6f151o.sdf

>  <i_m_source_file_index>  (23) 
10

>  <i_lp_mmshare_version>  (23) 
48012

>  <i_f3d_flags>  (23) 
0

>  <s_epik_input>  (23) 
W0NIMl09QzFbQ0gyXVtDQEhdKFtDSDJdMilbQ0hdKFtDSDJdMylbQ0BASF00W0NASF0xW0NASF0zQyhbQ0BIXTJbQ0BdNDVbQ0gzXSk9W0NIXVtDQEBIXShbQ0gzXSlDKD1PKVtDSDJdNQ==

>  <s_epik_cmdline>  (23) 
J2VwaWtfcHl0aG9uJywgJy1waHQnLCAnMi4wJywgJy1waCcsICc3LjAnLCAnLXRuJywgJzgnLCAnLW1hJywgJzIwMCcsICctaW1hZScsICc8aW5maWxlLm1hZT4nLCAnLW9tYWUnLCAnPG91dGZpbGUubWFlPic=

>  <r_lp_tautomer_probability>  (23) 
1

>  <r_epik_Ionization_Penalty>  (23) 
1.39452e-13

>  <r_epik_Ionization_Penalty_Charging>  (23) 
0

>  <r_epik_Ionization_Penalty_Neutral>  (23) 
1.39452e-13

>  <r_epik_State_Penalty>  (23) 
-0

>  <r_epik_Charging_Adjusted_Penalty>  (23) 
0

>  <i_epik_Tot_Q>  (23) 
0

>  <i_epik_Tot_abs_Q>  (23) 
0

>  <s_lp_Force_Field>  (23) 
OPLS3e

>  <r_lp_Energy>  (23) 
390.364

>  <b_lp_Chiralities_Consistent>  (23) 
1

>  <s_lp_Variant>  (23) 
8:0-1

>  <s_i_glide_gridfile>  (23) 
pfpi4k_grid

>  <i_i_glide_lignum>  (23) 
10

>  <i_i_glide_rotatable_bonds>  (23) 
0

>  <r_i_docking_score>  (23) 
-3.4052

>  <r_i_glide_ligand_efficiency>  (23) 
-0.17026

>  <r_i_glide_ligand_efficiency_sa>  (23) 
-0.462157

>  <r_i_glide_ligand_efficiency_ln>  (23) 
-0.852209

>  <r_i_glide_gscore>  (23) 
-3.4052

>  <r_i_glide_lipo>  (23) 
-0.674698

>  <r_i_glide_hbond>  (23) 
0

>  <r_i_glide_metal>  (23) 
-0

>  <r_i_glide_rewards>  (23) 
-1.57914

>  <r_i_glide_evdw>  (23) 
-23.5452

>  <r_i_glide_ecoul>  (23) 
0.172656

>  <r_i_glide_erotb>  (23) 
0

>  <r_i_glide_esite>  (23) 
0

>  <r_i_glide_emodel>  (23) 
-28.3143

>  <r_i_glide_energy>  (23) 
-23.3726

>  <r_i_glide_einternal>  (23) 
0

>  <r_i_glide_intrahb_reward>  (23) 
-0

>  <i_i_glide_confnum>  (23) 
1

>  <i_i_glide_posenum>  (23) 
3

>  <r_i_glide_eff_state_penalty>  (23) 
0

>  <ligand_id>  (23) 
8

>  <original_smiles>  (23) 
C=C1CC2CC3C4=CC(C)C(=O)CC3(C)C3C2CC4C13

>  <smiles>  (23) 
[H]C([H])=C1C([H])([H])C2([H])C([H])([H])C3([H])C4=C([H])C([H])(C([H])([H])[H])C(=O)C([H])([H])C3(C([H])([H])[H])C3([H])C1([H])C4([H])C([H])([H])C23[H]

$$$$
8:0:2
     RDKit          3D

 44 48  0  0  1  0  0  0  0  0999 V2000
    2.7527   -2.4149    4.7429 C   0  0  0  0  0  0  0  0  0  0  0  0
    3.5157   -2.8229    3.7180 C   0  0  0  0  0  0  0  0  0  0  0  0
    5.0626   -3.4662    3.9453 C   0  0  0  0  0  0  0  0  0  0  0  0
    5.6663   -4.4242    2.6672 C   0  0  2  0  0  0  0  0  0  0  0  0
    6.2148   -4.1830    1.1289 C   0  0  0  0  0  0  0  0  0  0  0  0
    5.2967   -3.4067   -0.0628 C   0  0  1  0  0  0  0  0  0  0  0  0
    3.7694   -3.7336   -0.3701 C   0  0  0  0  0  0  0  0  0  0  0  0
    3.1988   -3.4400   -1.5552 C   0  0  0  0  0  0  0  0  0  0  0  0
    3.9187   -2.5988   -2.5961 C   0  0  1  0  0  0  0  0  0  0  0  0
    3.0998   -2.4208   -3.8896 C   0  0  0  0  0  0  0  0  0  0  0  0
    4.2512   -1.2306   -1.9460 C   0  0  0  0  0  0  0  0  0  0  0  0
    4.6144   -0.2862   -2.6393 O   0  0  0  0  0  0  0  0  0  0  0  0
    4.1205   -1.0790   -0.4061 C   0  0  0  0  0  0  0  0  0  0  0  0
    5.0429   -2.0290    0.4520 C   0  0  2  0  0  0  0  0  0  0  0  0
    6.3889   -1.2694    0.6189 C   0  0  0  0  0  0  0  0  0  0  0  0
    4.4186   -2.5663    1.7817 C   0  0  2  0  0  0  0  0  0  0  0  0
    4.4323   -4.2885    2.1002 C   0  0  1  0  0  0  0  0  0  0  0  0
    3.5058   -5.1907    1.3335 C   0  0  0  0  0  0  0  0  0  0  0  0
    2.8818   -3.9026    0.9247 C   0  0  1  0  0  0  0  0  0  0  0  0
    3.0557   -2.7025    2.1245 C   0  0  1  0  0  0  0  0  0  0  0  0
    1.7705   -1.9938    4.5724 H   0  0  0  0  0  0  0  0  0  0  0  0
    3.1114   -2.4983    5.7586 H   0  0  0  0  0  0  0  0  0  0  0  0
    5.7714   -2.6595    4.1523 H   0  0  0  0  0  0  0  0  0  0  0  0
    5.0443   -4.0597    4.8619 H   0  0  0  0  0  0  0  0  0  0  0  0
    5.8769   -5.4433    3.0032 H   0  0  0  0  0  0  0  0  0  0  0  0
    7.1998   -3.7245    1.2138 H   0  0  0  0  0  0  0  0  0  0  0  0
    6.4518   -5.1707    0.7300 H   0  0  0  0  0  0  0  0  0  0  0  0
    5.8744   -3.4057   -0.9844 H   0  0  0  0  0  0  0  0  0  0  0  0
    2.1266   -3.5242   -1.6716 H   0  0  0  0  0  0  0  0  0  0  0  0
    4.8639   -3.0758   -2.8494 H   0  0  0  0  0  0  0  0  0  0  0  0
    2.1547   -1.9121   -3.7054 H   0  0  0  0  0  0  0  0  0  0  0  0
    2.8741   -3.3821   -4.3499 H   0  0  0  0  0  0  0  0  0  0  0  0
    3.6385   -1.8215   -4.6227 H   0  0  0  0  0  0  0  0  0  0  0  0
    4.2929   -0.0375   -0.1361 H   0  0  0  0  0  0  0  0  0  0  0  0
    3.0713   -1.2459   -0.1612 H   0  0  0  0  0  0  0  0  0  0  0  0
    6.2221   -0.2057    0.7943 H   0  0  0  0  0  0  0  0  0  0  0  0
    6.9939   -1.3601   -0.2856 H   0  0  0  0  0  0  0  0  0  0  0  0
    6.9977   -1.6177    1.4549 H   0  0  0  0  0  0  0  0  0  0  0  0
    4.9025   -1.7902    2.3988 H   0  0  0  0  0  0  0  0  0  0  0  0
    3.9070   -4.8414    2.9082 H   0  0  0  0  0  0  0  0  0  0  0  0
    3.9839   -5.8012    0.5608 H   0  0  0  0  0  0  0  0  0  0  0  0
    2.7760   -5.8215    1.8628 H   0  0  0  0  0  0  0  0  0  0  0  0
    1.8414   -4.0561    0.6494 H   0  0  0  0  0  0  0  0  0  0  0  0
    2.4848   -1.7921    1.9323 H   0  0  0  0  0  0  0  0  0  0  0  0
  1  2  2  0
  1 21  1  0
  1 22  1  0
  2 20  1  0
  2  3  1  0
  3  4  1  0
  3 23  1  0
  3 24  1  0
  4 17  1  0
  4  5  1  0
  4 25  1  1
  5  6  1  0
  5 26  1  0
  5 27  1  0
  6 14  1  0
  6  7  1  0
  6 28  1  6
  7 19  1  0
  7  8  2  0
  8  9  1  0
  8 29  1  0
  9 10  1  0
  9 11  1  0
  9 30  1  6
 10 31  1  0
 10 32  1  0
 10 33  1  0
 11 12  2  0
 11 13  1  0
 13 14  1  0
 13 34  1  0
 13 35  1  0
 14 15  1  1
 14 16  1  0
 15 36  1  0
 15 37  1  0
 15 38  1  0
 16 20  1  0
 16 17  1  0
 16 39  1  1
 17 18  1  0
 17 40  1  1
 18 19  1  0
 18 41  1  0
 18 42  1  0
 19 20  1  0
 19 43  1  6
 20 44  1  1
M  END
>  <i_m_ct_stereo_status>  (24) 
1

>  <s_m_source_file>  (24) 
/var/tmp/pbs.5076255.sched01/tmp7me73ahx/0ll6f151o.sdf

>  <i_m_source_file_index>  (24) 
10

>  <i_lp_mmshare_version>  (24) 
48012

>  <i_f3d_flags>  (24) 
0

>  <s_epik_input>  (24) 
W0NIMl09QzFbQ0gyXVtDQEhdKFtDSDJdMilbQ0hdKFtDSDJdMylbQ0BASF00W0NASF0xW0NASF0zQyhbQ0BIXTJbQ0BdNDVbQ0gzXSk9W0NIXVtDQEBIXShbQ0gzXSlDKD1PKVtDSDJdNQ==

>  <s_epik_cmdline>  (24) 
J2VwaWtfcHl0aG9uJywgJy1waHQnLCAnMi4wJywgJy1waCcsICc3LjAnLCAnLXRuJywgJzgnLCAnLW1hJywgJzIwMCcsICctaW1hZScsICc8aW5maWxlLm1hZT4nLCAnLW9tYWUnLCAnPG91dGZpbGUubWFlPic=

>  <r_lp_tautomer_probability>  (24) 
1

>  <r_epik_Ionization_Penalty>  (24) 
1.39452e-13

>  <r_epik_Ionization_Penalty_Charging>  (24) 
0

>  <r_epik_Ionization_Penalty_Neutral>  (24) 
1.39452e-13

>  <r_epik_State_Penalty>  (24) 
-0

>  <r_epik_Charging_Adjusted_Penalty>  (24) 
0

>  <i_epik_Tot_Q>  (24) 
0

>  <i_epik_Tot_abs_Q>  (24) 
0

>  <s_lp_Force_Field>  (24) 
OPLS3e

>  <r_lp_Energy>  (24) 
390.364

>  <b_lp_Chiralities_Consistent>  (24) 
1

>  <s_lp_Variant>  (24) 
8:0-1

>  <s_i_glide_gridfile>  (24) 
pfpi4k_grid

>  <i_i_glide_lignum>  (24) 
10

>  <i_i_glide_rotatable_bonds>  (24) 
0

>  <r_i_docking_score>  (24) 
-3.36474

>  <r_i_glide_ligand_efficiency>  (24) 
-0.168237

>  <r_i_glide_ligand_efficiency_sa>  (24) 
-0.456665

>  <r_i_glide_ligand_efficiency_ln>  (24) 
-0.842083

>  <r_i_glide_gscore>  (24) 
-3.36474

>  <r_i_glide_lipo>  (24) 
-0.547425

>  <r_i_glide_hbond>  (24) 
0

>  <r_i_glide_metal>  (24) 
-0

>  <r_i_glide_rewards>  (24) 
-1.57914

>  <r_i_glide_evdw>  (24) 
-23.2345

>  <r_i_glide_ecoul>  (24) 
-0.234969

>  <r_i_glide_erotb>  (24) 
0

>  <r_i_glide_esite>  (24) 
-0.0412055

>  <r_i_glide_emodel>  (24) 
-28.3517

>  <r_i_glide_energy>  (24) 
-23.4694

>  <r_i_glide_einternal>  (24) 
0

>  <r_i_glide_intrahb_reward>  (24) 
-0

>  <i_i_glide_confnum>  (24) 
1

>  <i_i_glide_posenum>  (24) 
2

>  <r_i_glide_eff_state_penalty>  (24) 
0

>  <ligand_id>  (24) 
8

>  <original_smiles>  (24) 
C=C1CC2CC3C4=CC(C)C(=O)CC3(C)C3C2CC4C13

>  <smiles>  (24) 
[H]C([H])=C1C([H])([H])C2([H])C([H])([H])C3([H])C4=C([H])C([H])(C([H])([H])[H])C(=O)C([H])([H])C3(C([H])([H])[H])C3([H])C1([H])C4([H])C([H])([H])C23[H]

$$$$
9:0:0
     RDKit          3D

 44 48  0  0  1  0  0  0  0  0999 V2000
    3.4695    0.7444    3.7006 C   0  0  0  0  0  0  0  0  0  0  0  0
    4.1741   -0.0757    2.7911 O   0  0  0  0  0  0  0  0  0  0  0  0
    3.7168    0.0762    1.4610 C   0  0  0  0  0  0  0  0  0  0  0  0
    4.5226   -0.8460    0.5430 C   0  0  2  0  0  0  0  0  0  0  0  0
    6.0447   -0.7802    0.6685 C   0  0  0  0  0  0  0  0  0  0  0  0
    6.4457   -1.9445   -0.0657 O   0  0  0  0  0  0  0  0  0  0  0  0
    5.3257   -2.8347   -0.2141 C   0  0  2  0  0  0  0  0  0  0  0  0
    5.8203   -4.2689    0.0857 C   0  0  0  0  0  0  0  0  0  0  0  0
    4.7294   -5.2760    0.4709 C   0  0  0  0  0  0  0  0  0  0  0  0
    3.6772   -4.6504    1.3243 N   0  0  2  0  0  0  0  0  0  0  0  0
    2.6337   -5.6182    1.7539 C   0  0  0  0  0  0  0  0  0  0  0  0
    3.1703   -3.3670    0.7306 C   0  0  2  0  0  0  0  0  0  0  0  0
    2.6156   -3.7085   -0.6975 C   0  0  0  0  0  0  0  0  0  0  0  0
    3.5023   -3.4428   -1.9220 C   0  0  0  0  0  0  0  0  0  0  0  0
    2.8898   -3.1168   -3.1579 C   0  0  0  0  0  0  0  0  0  0  0  0
    3.1689   -1.8980   -3.8003 C   0  0  0  0  0  0  0  0  0  0  0  0
    3.8616   -0.9061   -3.0796 C   0  0  0  0  0  0  0  0  0  0  0  0
    3.8183    0.3667   -3.5460 O   0  0  0  0  0  0  0  0  0  0  0  0
    4.4078   -1.2207   -1.8244 C   0  0  0  0  0  0  0  0  0  0  0  0
    4.5283   -2.5797   -1.5056 C   0  0  0  0  0  0  0  0  0  0  0  0
    4.4615   -0.3150   -0.7998 O   0  0  0  0  0  0  0  0  0  0  0  0
    4.3828   -2.3783    0.8343 C   0  0  2  0  0  0  0  0  0  0  0  0
    3.8731    0.5771    4.6989 H   0  0  0  0  0  0  0  0  0  0  0  0
    2.4095    0.4895    3.7108 H   0  0  0  0  0  0  0  0  0  0  0  0
    3.5737    1.8042    3.4598 H   0  0  0  0  0  0  0  0  0  0  0  0
    2.6523   -0.1412    1.3624 H   0  0  0  0  0  0  0  0  0  0  0  0
    3.8424    1.1094    1.1395 H   0  0  0  0  0  0  0  0  0  0  0  0
    6.4840    0.1309    0.2592 H   0  0  0  0  0  0  0  0  0  0  0  0
    6.3709   -0.8681    1.7029 H   0  0  0  0  0  0  0  0  0  0  0  0
    6.4214   -4.6524   -0.7204 H   0  0  0  0  0  0  0  0  0  0  0  0
    6.4959   -4.2075    0.9346 H   0  0  0  0  0  0  0  0  0  0  0  0
    4.3042   -5.7058   -0.4312 H   0  0  0  0  0  0  0  0  0  0  0  0
    5.1737   -6.1110    1.0067 H   0  0  0  0  0  0  0  0  0  0  0  0
    2.1279   -6.0909    0.9175 H   0  0  0  0  0  0  0  0  0  0  0  0
    1.8847   -5.1399    2.3778 H   0  0  0  0  0  0  0  0  0  0  0  0
    3.0833   -6.4174    2.3367 H   0  0  0  0  0  0  0  0  0  0  0  0
    2.3626   -3.0150    1.3662 H   0  0  0  0  0  0  0  0  0  0  0  0
    2.2853   -4.7427   -0.7580 H   0  0  0  0  0  0  0  0  0  0  0  0
    1.6953   -3.1449   -0.8268 H   0  0  0  0  0  0  0  0  0  0  0  0
    2.0443   -3.6964   -3.5172 H   0  0  0  0  0  0  0  0  0  0  0  0
    2.6574   -1.6233   -4.7085 H   0  0  0  0  0  0  0  0  0  0  0  0
    3.1601    0.9028   -3.1213 H   0  0  0  0  0  0  0  0  0  0  0  0
    4.7971   -2.5238    1.8353 H   0  0  0  0  0  0  0  0  0  0  0  0
    4.1426   -4.3833    2.1848 H   0  0  0  0  0  0  0  0  0  0  0  0
  1  2  1  0
  1 23  1  0
  1 24  1  0
  1 25  1  0
  2  3  1  0
  4  3  1  1
  3 26  1  0
  3 27  1  0
  4 21  1  0
  4 22  1  0
  4  5  1  0
  5  6  1  0
  5 28  1  0
  5 29  1  0
  7  6  1  6
  7 20  1  0
  7 22  1  0
  7  8  1  0
  8  9  1  0
  8 30  1  0
  8 31  1  0
  9 10  1  0
  9 32  1  0
  9 33  1  0
 10 11  1  0
 10 12  1  0
 10 44  1  1
 11 34  1  0
 11 35  1  0
 11 36  1  0
 12 13  1  0
 12 22  1  0
 12 37  1  1
 13 14  1  0
 13 38  1  0
 13 39  1  0
 14 20  2  0
 14 15  1  0
 15 16  2  0
 15 40  1  0
 16 17  1  0
 16 41  1  0
 17 18  1  0
 17 19  2  0
 18 42  1  0
 19 20  1  0
 19 21  1  0
 22 43  1  1
M  CHG  1  10   1
M  END
>  <i_m_ct_stereo_status>  (25) 
1

>  <s_m_source_file>  (25) 
/var/tmp/pbs.5076255.sched01/tmp7me73ahx/0ll6f151o.sdf

>  <i_m_source_file_index>  (25) 
11

>  <i_lp_mmshare_version>  (25) 
48012

>  <i_f3d_flags>  (25) 
0

>  <s_epik_input>  (25) 
W0NIMl0xW0NIMl1OKFtDSDNdKVtDQEhdKFtDSDJdMilbQ0BASF0zW0NAXShbQ0gyXU80KShbQ0gyXU9bQ0gzXSlPYzVjKFtPSF0pW2NIXVtjSF1jMmM1W0NAXTEzNA==

>  <s_epik_cmdline>  (25) 
J2VwaWtfcHl0aG9uJywgJy1waHQnLCAnMi4wJywgJy1waCcsICc3LjAnLCAnLXRuJywgJzgnLCAnLW1hJywgJzIwMCcsICctaW1hZScsICc8aW5maWxlLm1hZT4nLCAnLW9tYWUnLCAnPG91dGZpbGUubWFlPic=

>  <r_lp_tautomer_probability>  (25) 
1

>  <r_epik_Ionization_Penalty>  (25) 
0.214743

>  <r_epik_Ionization_Penalty_Charging>  (25) 
0.209776

>  <r_epik_Ionization_Penalty_Neutral>  (25) 
0.00496693

>  <r_epik_State_Penalty>  (25) 
0.37319

>  <r_epik_Charging_Adjusted_Penalty>  (25) 
0.582966

>  <i_epik_Tot_Q>  (25) 
1

>  <i_epik_Tot_abs_Q>  (25) 
1

>  <s_lp_Force_Field>  (25) 
OPLS3e

>  <r_lp_Energy>  (25) 
119.717

>  <b_lp_Chiralities_Consistent>  (25) 
1

>  <s_lp_Variant>  (25) 
9:0-1

>  <s_i_glide_gridfile>  (25) 
pfpi4k_grid

>  <i_i_glide_lignum>  (25) 
11

>  <i_i_glide_rotatable_bonds>  (25) 
3

>  <r_i_docking_score>  (25) 
-4.1315

>  <r_i_glide_ligand_efficiency>  (25) 
-0.187796

>  <r_i_glide_ligand_efficiency_sa>  (25) 
-0.526211

>  <r_i_glide_ligand_efficiency_ln>  (25) 
-1.00989

>  <r_i_glide_gscore>  (25) 
-4.1315

>  <r_i_glide_lipo>  (25) 
-0.726856

>  <r_i_glide_hbond>  (25) 
0

>  <r_i_glide_metal>  (25) 
-0

>  <r_i_glide_rewards>  (25) 
-1.3339

>  <r_i_glide_evdw>  (25) 
-20.633

>  <r_i_glide_ecoul>  (25) 
-8.25444

>  <r_i_glide_erotb>  (25) 
0.199071

>  <r_i_glide_esite>  (25) 
0

>  <r_i_glide_emodel>  (25) 
-32.3998

>  <r_i_glide_energy>  (25) 
-28.8874

>  <r_i_glide_einternal>  (25) 
5.07513

>  <r_i_glide_intrahb_reward>  (25) 
-0

>  <i_i_glide_confnum>  (25) 
4

>  <i_i_glide_posenum>  (25) 
22

>  <r_i_glide_eff_state_penalty>  (25) 
0

>  <ligand_id>  (25) 
9

>  <original_smiles>  (25) 
COCC12COC34CCN(C)C(Cc5ccc(O)c(c53)O1)C24

>  <smiles>  (25) 
[H]Oc1c([H])c([H])c2c3c1OC1(C([H])([H])OC([H])([H])[H])C([H])([H])OC34C([H])([H])C([H])([H])[N+]([H])(C([H])([H])[H])C([H])(C2([H])[H])C41[H]

$$$$
10:0:0
     RDKit          3D

 56 60  0  0  1  0  0  0  0  0999 V2000
    4.3590   -3.3723   -3.5742 C   0  0  0  0  0  0  0  0  0  0  0  0
    3.5517   -3.3850   -2.2531 C   0  0  2  0  0  0  0  0  0  0  0  0
    3.0112   -2.1291   -1.9310 O   0  0  0  0  0  0  0  0  0  0  0  0
    3.7256   -1.1687   -1.4191 C   0  0  0  0  0  0  0  0  0  0  0  0
    4.7736   -0.7166   -1.9124 O   0  0  0  0  0  0  0  0  0  0  0  0
    3.1972   -0.7064   -0.0557 C   0  0  0  0  0  0  0  0  0  0  0  0
    2.9384   -1.8202    1.0032 C   0  0  1  0  0  0  0  0  0  0  0  0
    2.5099   -3.1458    0.6351 O   0  0  0  0  0  0  0  0  0  0  0  0
    3.3360   -4.2770    0.3253 C   0  0  1  0  0  0  0  0  0  0  0  0
    2.2843   -5.4474    0.1511 C   0  0  0  0  0  0  0  0  0  0  0  0
    1.1260   -5.1573   -0.8451 C   0  0  0  0  0  0  0  0  0  0  0  0
    1.6150   -6.0545    1.4208 C   0  0  0  0  0  0  0  0  0  0  0  0
    4.1819   -4.0939   -1.0041 C   0  0  2  0  0  0  0  0  0  0  0  0
    5.6448   -3.8226   -0.6168 C   0  0  1  0  0  0  0  0  0  0  0  0
    6.4160   -2.9417   -1.3999 O   0  0  0  0  0  0  0  0  0  0  0  0
    5.6725   -3.6783    0.9159 C   0  0  1  0  0  0  0  0  0  0  0  0
    5.9045   -2.2610    1.5115 C   0  0  1  0  0  0  0  0  0  0  0  0
    6.0107   -1.1577    0.6538 O   0  0  0  0  0  0  0  0  0  0  0  0
    4.9939   -2.0278    2.7356 C   0  0  2  0  0  0  0  0  0  0  0  0
    5.6046   -1.0501    3.5422 O   0  0  0  0  0  0  0  0  0  0  0  0
    4.9850   -3.2199    3.4473 O   0  0  0  0  0  0  0  0  0  0  0  0
    4.0750   -4.1659    2.9272 C   0  0  1  0  0  0  0  0  0  0  0  0
    2.7011   -3.5856    3.3511 C   0  0  0  0  0  0  0  0  0  0  0  0
    2.6662   -2.1622    3.3268 O   0  0  0  0  0  0  0  0  0  0  0  0
    3.5137   -1.5372    2.4247 C   0  0  2  0  0  0  0  0  0  0  0  0
    3.4074   -0.1282    2.6477 O   0  0  0  0  0  0  0  0  0  0  0  0
    4.4363   -4.5096    1.4308 C   0  0  1  0  0  0  0  0  0  0  0  0
    4.9426   -5.9926    1.4148 C   0  0  0  0  0  0  0  0  0  0  0  0
    4.8158   -4.3369   -3.7718 H   0  0  0  0  0  0  0  0  0  0  0  0
    5.1460   -2.6267   -3.5805 H   0  0  0  0  0  0  0  0  0  0  0  0
    3.7009   -3.1393   -4.4084 H   0  0  0  0  0  0  0  0  0  0  0  0
    2.6593   -3.9394   -2.5286 H   0  0  0  0  0  0  0  0  0  0  0  0
    3.8595    0.0728    0.3011 H   0  0  0  0  0  0  0  0  0  0  0  0
    2.2224   -0.2294   -0.1386 H   0  0  0  0  0  0  0  0  0  0  0  0
    1.9105   -1.5279    1.2178 H   0  0  0  0  0  0  0  0  0  0  0  0
    2.8752   -6.2526   -0.2693 H   0  0  0  0  0  0  0  0  0  0  0  0
    0.9051   -4.1098   -0.8980 H   0  0  0  0  0  0  0  0  0  0  0  0
    0.2585   -5.7763   -0.6285 H   0  0  0  0  0  0  0  0  0  0  0  0
    1.3246   -5.3197   -1.8810 H   0  0  0  0  0  0  0  0  0  0  0  0
    0.7752   -5.4668    1.7813 H   0  0  0  0  0  0  0  0  0  0  0  0
    2.2617   -6.2345    2.2792 H   0  0  0  0  0  0  0  0  0  0  0  0
    1.1812   -7.0280    1.1738 H   0  0  0  0  0  0  0  0  0  0  0  0
    4.3124   -5.0845   -1.3956 H   0  0  0  0  0  0  0  0  0  0  0  0
    6.1829   -4.7555   -0.7571 H   0  0  0  0  0  0  0  0  0  0  0  0
    5.9338   -2.1184   -1.4691 H   0  0  0  0  0  0  0  0  0  0  0  0
    6.5741   -4.2089    1.2372 H   0  0  0  0  0  0  0  0  0  0  0  0
    6.9091   -2.3267    1.9250 H   0  0  0  0  0  0  0  0  0  0  0  0
    5.1422   -0.9073    0.3616 H   0  0  0  0  0  0  0  0  0  0  0  0
    4.9953   -0.8707    4.2437 H   0  0  0  0  0  0  0  0  0  0  0  0
    4.1984   -5.0732    3.5179 H   0  0  0  0  0  0  0  0  0  0  0  0
    1.8594   -3.9530    2.7947 H   0  0  0  0  0  0  0  0  0  0  0  0
    2.5028   -3.8562    4.3808 H   0  0  0  0  0  0  0  0  0  0  0  0
    2.5410    0.1346    2.3737 H   0  0  0  0  0  0  0  0  0  0  0  0
    5.8363   -6.1019    2.0366 H   0  0  0  0  0  0  0  0  0  0  0  0
    5.2235   -6.3441    0.4188 H   0  0  0  0  0  0  0  0  0  0  0  0
    4.2403   -6.7312    1.8007 H   0  0  0  0  0  0  0  0  0  0  0  0
  1  2  1  0
  1 29  1  0
  1 30  1  0
  1 31  1  0
  2 13  1  0
  2  3  1  0
  2 32  1  6
  3  4  1  0
  4  5  2  0
  4  6  1  0
  6  7  1  0
  6 33  1  0
  6 34  1  0
  7 25  1  0
  7  8  1  0
  7 35  1  1
  8  9  1  0
  9 27  1  0
  9 10  1  6
  9 13  1  0
 10 11  1  0
 10 12  1  0
 10 36  1  0
 11 37  1  0
 11 38  1  0
 11 39  1  0
 12 40  1  0
 12 41  1  0
 12 42  1  0
 13 14  1  0
 13 43  1  6
 14 15  1  0
 14 16  1  0
 14 44  1  1
 15 45  1  0
 16 27  1  0
 16 17  1  0
 16 46  1  1
 17 18  1  0
 17 19  1  0
 17 47  1  1
 18 48  1  0
 19 25  1  0
 19 20  1  1
 19 21  1  0
 20 49  1  0
 21 22  1  0
 22 23  1  0
 22 27  1  0
 22 50  1  1
 23 24  1  0
 23 51  1  0
 23 52  1  0
 24 25  1  0
 25 26  1  1
 26 53  1  0
 27 28  1  1
 28 54  1  0
 28 55  1  0
 28 56  1  0
M  END
>  <i_m_ct_stereo_status>  (26) 
1

>  <s_m_source_file>  (26) 
/var/tmp/pbs.5076255.sched01/tmp7me73ahx/0ll6f151o.sdf

>  <i_m_source_file_index>  (26) 
13

>  <i_lp_mmshare_version>  (26) 
48012

>  <i_f3d_flags>  (26) 
0

>  <s_epik_input>  (26) 
W0NIM11bQ0hdKFtDSDNdKVtDQEBdMTJbQ0BIXTNbQ0BIXShbQ0gzXSlPQyg9TylbQ0gyXVtDQEBIXShPMSlbQ0BdNChbT0hdKVtDQF01KFtPSF0pW0NASF0oW09IXSlbQ0BIXShbQ0BASF0zW09IXSlbQ0BAXTIoW0NIM10pW0NAQEhdKE81KVtDSDJdTzQ=

>  <s_epik_cmdline>  (26) 
J2VwaWtfcHl0aG9uJywgJy1waHQnLCAnMi4wJywgJy1waCcsICc3LjAnLCAnLXRuJywgJzgnLCAnLW1hJywgJzIwMCcsICctaW1hZScsICc8aW5maWxlLm1hZT4nLCAnLW9tYWUnLCAnPG91dGZpbGUubWFlPic=

>  <r_lp_tautomer_probability>  (26) 
1

>  <r_epik_Ionization_Penalty>  (26) 
3.27975e-05

>  <r_epik_Ionization_Penalty_Charging>  (26) 
0

>  <r_epik_Ionization_Penalty_Neutral>  (26) 
3.27975e-05

>  <r_epik_State_Penalty>  (26) 
-0

>  <r_epik_Charging_Adjusted_Penalty>  (26) 
0

>  <i_epik_Tot_Q>  (26) 
0

>  <i_epik_Tot_abs_Q>  (26) 
0

>  <s_epik_Chemistry_Notes>  (26) 
This compound has an ester and may undergo hydrolysis at high or low pH.

>  <s_lp_Force_Field>  (26) 
OPLS3e

>  <r_lp_Energy>  (26) 
121.524

>  <b_lp_Chiralities_Consistent>  (26) 
1

>  <s_lp_Variant>  (26) 
10:0-1

>  <s_i_glide_gridfile>  (26) 
pfpi4k_grid

>  <i_i_glide_lignum>  (26) 
13

>  <i_i_glide_rotatable_bonds>  (26) 
5

>  <r_i_docking_score>  (26) 
-2.71347

>  <r_i_glide_ligand_efficiency>  (26) 
-0.0969096

>  <r_i_glide_ligand_efficiency_sa>  (26) 
-0.294274

>  <r_i_glide_ligand_efficiency_ln>  (26) 
-0.626348

>  <r_i_glide_gscore>  (26) 
-2.71347

>  <r_i_glide_lipo>  (26) 
-0.530799

>  <r_i_glide_hbond>  (26) 
0

>  <r_i_glide_metal>  (26) 
-0

>  <r_i_glide_rewards>  (26) 
-1.27009

>  <r_i_glide_evdw>  (26) 
-9.60255

>  <r_i_glide_ecoul>  (26) 
-2.4027

>  <r_i_glide_erotb>  (26) 
0

>  <r_i_glide_esite>  (26) 
-0.0720424

>  <r_i_glide_emodel>  (26) 
-17.7222

>  <r_i_glide_energy>  (26) 
-12.0053

>  <r_i_glide_einternal>  (26) 
0.851286

>  <r_i_glide_intrahb_reward>  (26) 
-0.5

>  <i_i_glide_confnum>  (26) 
1

>  <i_i_glide_posenum>  (26) 
33

>  <r_i_glide_eff_state_penalty>  (26) 
0

>  <ligand_id>  (26) 
10

>  <original_smiles>  (26) 
CC1OC(=O)CC2OC3(C(C)C)C1C(O)C1C(O)C4(O)OC(COC24O)C13C

>  <smiles>  (26) 
[H]OC1([H])C2(O[H])OC3([H])C([H])([H])OC2(O[H])C2([H])OC4(C([H])(C([H])([H])[H])C([H])([H])[H])C([H])(C([H])(C([H])([H])[H])OC(=O)C2([H])[H])C([H])(O[H])C1([H])C34C([H])([H])[H]

$$$$
10:0:1
     RDKit          3D

 56 60  0  0  1  0  0  0  0  0999 V2000
    4.2315   -3.7311   -3.2757 C   0  0  0  0  0  0  0  0  0  0  0  0
    3.5646   -3.6232   -1.8866 C   0  0  2  0  0  0  0  0  0  0  0  0
    2.9856   -2.3747   -1.6675 O   0  0  0  0  0  0  0  0  0  0  0  0
    3.7105   -1.3207   -1.3681 C   0  0  0  0  0  0  0  0  0  0  0  0
    4.5711   -0.7990   -2.1019 O   0  0  0  0  0  0  0  0  0  0  0  0
    3.2997   -0.7358   -0.0202 C   0  0  0  0  0  0  0  0  0  0  0  0
    3.1233   -1.6898    1.1781 C   0  0  1  0  0  0  0  0  0  0  0  0
    2.7431   -3.0717    1.0289 O   0  0  0  0  0  0  0  0  0  0  0  0
    3.6156   -4.1897    0.7759 C   0  0  1  0  0  0  0  0  0  0  0  0
    2.6481   -5.4503    0.8713 C   0  0  0  0  0  0  0  0  0  0  0  0
    1.4865   -5.4674   -0.1575 C   0  0  0  0  0  0  0  0  0  0  0  0
    2.0027   -5.7508    2.2456 C   0  0  0  0  0  0  0  0  0  0  0  0
    4.3225   -4.1789   -0.6455 C   0  0  2  0  0  0  0  0  0  0  0  0
    5.8060   -3.7950   -0.4350 C   0  0  1  0  0  0  0  0  0  0  0  0
    6.4813   -2.9760   -1.3742 O   0  0  0  0  0  0  0  0  0  0  0  0
    5.9566   -3.4010    1.0386 C   0  0  1  0  0  0  0  0  0  0  0  0
    6.1295   -1.8942    1.4095 C   0  0  1  0  0  0  0  0  0  0  0  0
    6.1519   -0.8840    0.4336 O   0  0  0  0  0  0  0  0  0  0  0  0
    5.3469   -1.5115    2.6790 C   0  0  2  0  0  0  0  0  0  0  0  0
    5.9944   -0.3814    3.2433 O   0  0  0  0  0  0  0  0  0  0  0  0
    5.4810   -2.5997    3.5376 O   0  0  0  0  0  0  0  0  0  0  0  0
    4.5952   -3.6509    3.2624 C   0  0  1  0  0  0  0  0  0  0  0  0
    3.2436   -3.0959    3.7642 C   0  0  0  0  0  0  0  0  0  0  0  0
    3.1264   -1.7075    3.5608 O   0  0  0  0  0  0  0  0  0  0  0  0
    3.8214   -1.1831    2.4845 C   0  0  2  0  0  0  0  0  0  0  0  0
    3.6357    0.2261    2.5643 O   0  0  0  0  0  0  0  0  0  0  0  0
    4.8253   -4.1903    1.7903 C   0  0  1  0  0  0  0  0  0  0  0  0
    5.3789   -5.6428    1.9439 C   0  0  0  0  0  0  0  0  0  0  0  0
    4.7248   -4.6930   -3.4089 H   0  0  0  0  0  0  0  0  0  0  0  0
    4.9609   -2.9486   -3.4693 H   0  0  0  0  0  0  0  0  0  0  0  0
    3.4680   -3.6428   -4.0575 H   0  0  0  0  0  0  0  0  0  0  0  0
    2.6763   -4.2398   -1.9785 H   0  0  0  0  0  0  0  0  0  0  0  0
    3.9405    0.0956    0.1918 H   0  0  0  0  0  0  0  0  0  0  0  0
    2.3163   -0.2386   -0.1117 H   0  0  0  0  0  0  0  0  0  0  0  0
    2.1138   -1.3898    1.4488 H   0  0  0  0  0  0  0  0  0  0  0  0
    3.2399   -6.3358    0.6538 H   0  0  0  0  0  0  0  0  0  0  0  0
    1.1837   -4.4847   -0.4584 H   0  0  0  0  0  0  0  0  0  0  0  0
    0.6439   -6.0831    0.1811 H   0  0  0  0  0  0  0  0  0  0  0  0
    1.7868   -5.9320   -1.0758 H   0  0  0  0  0  0  0  0  0  0  0  0
    1.1846   -5.0569    2.4657 H   0  0  0  0  0  0  0  0  0  0  0  0
    2.7026   -5.7336    3.0794 H   0  0  0  0  0  0  0  0  0  0  0  0
    1.5608   -6.7499    2.2440 H   0  0  0  0  0  0  0  0  0  0  0  0
    4.4140   -5.2297   -0.9067 H   0  0  0  0  0  0  0  0  0  0  0  0
    6.3603   -4.7225   -0.5415 H   0  0  0  0  0  0  0  0  0  0  0  0
    6.4342   -3.3891   -2.2230 H   0  0  0  0  0  0  0  0  0  0  0  0
    6.9085   -3.8378    1.3531 H   0  0  0  0  0  0  0  0  0  0  0  0
    7.1637   -1.8417    1.6860 H   0  0  0  0  0  0  0  0  0  0  0  0
    6.4134   -0.0794    0.8629 H   0  0  0  0  0  0  0  0  0  0  0  0
    6.9253   -0.5233    3.1930 H   0  0  0  0  0  0  0  0  0  0  0  0
    4.8398   -4.4639    3.9554 H   0  0  0  0  0  0  0  0  0  0  0  0
    2.3589   -3.5571    3.3634 H   0  0  0  0  0  0  0  0  0  0  0  0
    3.1746   -3.2369    4.8418 H   0  0  0  0  0  0  0  0  0  0  0  0
    4.1808    0.4909    3.2919 H   0  0  0  0  0  0  0  0  0  0  0  0
    6.3219   -5.6466    2.5076 H   0  0  0  0  0  0  0  0  0  0  0  0
    5.5844   -6.1323    0.9867 H   0  0  0  0  0  0  0  0  0  0  0  0
    4.7089   -6.3077    2.4953 H   0  0  0  0  0  0  0  0  0  0  0  0
  1  2  1  0
  1 29  1  0
  1 30  1  0
  1 31  1  0
  2 13  1  0
  2  3  1  0
  2 32  1  6
  3  4  1  0
  4  5  2  0
  4  6  1  0
  6  7  1  0
  6 33  1  0
  6 34  1  0
  7 25  1  0
  7  8  1  0
  7 35  1  1
  8  9  1  0
  9 27  1  0
  9 10  1  6
  9 13  1  0
 10 11  1  0
 10 12  1  0
 10 36  1  0
 11 37  1  0
 11 38  1  0
 11 39  1  0
 12 40  1  0
 12 41  1  0
 12 42  1  0
 13 14  1  0
 13 43  1  6
 14 15  1  0
 14 16  1  0
 14 44  1  1
 15 45  1  0
 16 27  1  0
 16 17  1  0
 16 46  1  1
 17 18  1  0
 17 19  1  0
 17 47  1  1
 18 48  1  0
 19 25  1  0
 19 20  1  1
 19 21  1  0
 20 49  1  0
 21 22  1  0
 22 23  1  0
 22 27  1  0
 22 50  1  1
 23 24  1  0
 23 51  1  0
 23 52  1  0
 24 25  1  0
 25 26  1  1
 26 53  1  0
 27 28  1  1
 28 54  1  0
 28 55  1  0
 28 56  1  0
M  END
>  <i_m_ct_stereo_status>  (27) 
1

>  <s_m_source_file>  (27) 
/var/tmp/pbs.5076255.sched01/tmp7me73ahx/0ll6f151o.sdf

>  <i_m_source_file_index>  (27) 
13

>  <i_lp_mmshare_version>  (27) 
48012

>  <i_f3d_flags>  (27) 
0

>  <s_epik_input>  (27) 
W0NIM11bQ0hdKFtDSDNdKVtDQEBdMTJbQ0BIXTNbQ0BIXShbQ0gzXSlPQyg9TylbQ0gyXVtDQEBIXShPMSlbQ0BdNChbT0hdKVtDQF01KFtPSF0pW0NASF0oW09IXSlbQ0BIXShbQ0BASF0zW09IXSlbQ0BAXTIoW0NIM10pW0NAQEhdKE81KVtDSDJdTzQ=

>  <s_epik_cmdline>  (27) 
J2VwaWtfcHl0aG9uJywgJy1waHQnLCAnMi4wJywgJy1waCcsICc3LjAnLCAnLXRuJywgJzgnLCAnLW1hJywgJzIwMCcsICctaW1hZScsICc8aW5maWxlLm1hZT4nLCAnLW9tYWUnLCAnPG91dGZpbGUubWFlPic=

>  <r_lp_tautomer_probability>  (27) 
1

>  <r_epik_Ionization_Penalty>  (27) 
3.27975e-05

>  <r_epik_Ionization_Penalty_Charging>  (27) 
0

>  <r_epik_Ionization_Penalty_Neutral>  (27) 
3.27975e-05

>  <r_epik_State_Penalty>  (27) 
-0

>  <r_epik_Charging_Adjusted_Penalty>  (27) 
0

>  <i_epik_Tot_Q>  (27) 
0

>  <i_epik_Tot_abs_Q>  (27) 
0

>  <s_epik_Chemistry_Notes>  (27) 
This compound has an ester and may undergo hydrolysis at high or low pH.

>  <s_lp_Force_Field>  (27) 
OPLS3e

>  <r_lp_Energy>  (27) 
121.524

>  <b_lp_Chiralities_Consistent>  (27) 
1

>  <s_lp_Variant>  (27) 
10:0-1

>  <s_i_glide_gridfile>  (27) 
pfpi4k_grid

>  <i_i_glide_lignum>  (27) 
13

>  <i_i_glide_rotatable_bonds>  (27) 
5

>  <r_i_docking_score>  (27) 
-2.45491

>  <r_i_glide_ligand_efficiency>  (27) 
-0.0876753

>  <r_i_glide_ligand_efficiency_sa>  (27) 
-0.266234

>  <r_i_glide_ligand_efficiency_ln>  (27) 
-0.566665

>  <r_i_glide_gscore>  (27) 
-2.45491

>  <r_i_glide_lipo>  (27) 
-0.376411

>  <r_i_glide_hbond>  (27) 
0

>  <r_i_glide_metal>  (27) 
-0

>  <r_i_glide_rewards>  (27) 
-0.812101

>  <r_i_glide_evdw>  (27) 
-11.9274

>  <r_i_glide_ecoul>  (27) 
-3.91883

>  <r_i_glide_erotb>  (27) 
0

>  <r_i_glide_esite>  (27) 
-0.0822022

>  <r_i_glide_emodel>  (27) 
-16.9085

>  <r_i_glide_energy>  (27) 
-15.8462

>  <r_i_glide_einternal>  (27) 
1.11461

>  <r_i_glide_intrahb_reward>  (27) 
-0

>  <i_i_glide_confnum>  (27) 
2

>  <i_i_glide_posenum>  (27) 
4

>  <r_i_glide_eff_state_penalty>  (27) 
0

>  <ligand_id>  (27) 
10

>  <original_smiles>  (27) 
CC1OC(=O)CC2OC3(C(C)C)C1C(O)C1C(O)C4(O)OC(COC24O)C13C

>  <smiles>  (27) 
[H]OC1([H])C2(O[H])OC3([H])C([H])([H])OC2(O[H])C2([H])OC4(C([H])(C([H])([H])[H])C([H])([H])[H])C([H])(C([H])(C([H])([H])[H])OC(=O)C2([H])[H])C([H])(O[H])C1([H])C34C([H])([H])[H]

$$$$
10:0:2
     RDKit          3D

 56 60  0  0  1  0  0  0  0  0999 V2000
    5.0978   -3.5421   -1.2034 C   0  0  0  0  0  0  0  0  0  0  0  0
    3.9799   -3.7935   -0.1658 C   0  0  2  0  0  0  0  0  0  0  0  0
    3.0725   -2.7172   -0.0242 O   0  0  0  0  0  0  0  0  0  0  0  0
    3.4223   -1.6135    0.6178 C   0  0  0  0  0  0  0  0  0  0  0  0
    4.4230   -0.9303    0.4141 O   0  0  0  0  0  0  0  0  0  0  0  0
    2.4519   -1.3093    1.7448 C   0  0  0  0  0  0  0  0  0  0  0  0
    2.1933   -2.5056    2.7269 C   0  0  1  0  0  0  0  0  0  0  0  0
    2.2150   -3.8984    2.2887 O   0  0  0  0  0  0  0  0  0  0  0  0
    3.3115   -4.8526    2.2556 C   0  0  1  0  0  0  0  0  0  0  0  0
    2.5833   -6.2302    1.8606 C   0  0  0  0  0  0  0  0  0  0  0  0
    3.4290   -7.5319    1.7325 C   0  0  0  0  0  0  0  0  0  0  0  0
    1.7222   -6.1874    0.5674 C   0  0  0  0  0  0  0  0  0  0  0  0
    4.4126   -4.4472    1.1958 C   0  0  2  0  0  0  0  0  0  0  0  0
    5.6160   -3.8757    1.9850 C   0  0  1  0  0  0  0  0  0  0  0  0
    6.3638   -2.8153    1.4209 O   0  0  0  0  0  0  0  0  0  0  0  0
    5.1921   -3.7782    3.4699 C   0  0  1  0  0  0  0  0  0  0  0  0
    4.9567   -2.3757    4.1164 C   0  0  1  0  0  0  0  0  0  0  0  0
    5.0450   -1.2438    3.2771 O   0  0  0  0  0  0  0  0  0  0  0  0
    3.7102   -2.3843    5.0209 C   0  0  2  0  0  0  0  0  0  0  0  0
    3.8915   -1.3655    5.9830 O   0  0  0  0  0  0  0  0  0  0  0  0
    3.7410   -3.5840    5.7189 O   0  0  0  0  0  0  0  0  0  0  0  0
    3.2197   -4.6578    4.9716 C   0  0  1  0  0  0  0  0  0  0  0  0
    1.6965   -4.4051    4.9646 C   0  0  0  0  0  0  0  0  0  0  0  0
    1.3733   -3.0175    4.9099 O   0  0  0  0  0  0  0  0  0  0  0  0
    2.3068   -2.1914    4.2764 C   0  0  2  0  0  0  0  0  0  0  0  0
    1.8651   -0.8639    4.4625 O   0  0  0  0  0  0  0  0  0  0  0  0
    4.0652   -4.8673    3.6558 C   0  0  1  0  0  0  0  0  0  0  0  0
    4.8394   -6.1881    3.9194 C   0  0  0  0  0  0  0  0  0  0  0  0
    5.7872   -4.3847   -1.2308 H   0  0  0  0  0  0  0  0  0  0  0  0
    5.6881   -2.6506   -1.0000 H   0  0  0  0  0  0  0  0  0  0  0  0
    4.6798   -3.4275   -2.2036 H   0  0  0  0  0  0  0  0  0  0  0  0
    3.3706   -4.5411   -0.6595 H   0  0  0  0  0  0  0  0  0  0  0  0
    2.8273   -0.4407    2.2794 H   0  0  0  0  0  0  0  0  0  0  0  0
    1.5183   -0.9838    1.2876 H   0  0  0  0  0  0  0  0  0  0  0  0
    1.1069   -2.4480    2.6549 H   0  0  0  0  0  0  0  0  0  0  0  0
    1.8672   -6.4146    2.6549 H   0  0  0  0  0  0  0  0  0  0  0  0
    4.4052   -7.3574    1.2804 H   0  0  0  0  0  0  0  0  0  0  0  0
    2.9534   -8.2426    1.0382 H   0  0  0  0  0  0  0  0  0  0  0  0
    3.5655   -8.0115    2.6795 H   0  0  0  0  0  0  0  0  0  0  0  0
    2.3612   -6.2360   -0.3069 H   0  0  0  0  0  0  0  0  0  0  0  0
    1.0874   -5.3189    0.4712 H   0  0  0  0  0  0  0  0  0  0  0  0
    1.0750   -7.0638    0.5217 H   0  0  0  0  0  0  0  0  0  0  0  0
    4.8248   -5.3800    0.8181 H   0  0  0  0  0  0  0  0  0  0  0  0
    6.3559   -4.6759    1.9712 H   0  0  0  0  0  0  0  0  0  0  0  0
    5.8306   -2.0284    1.4330 H   0  0  0  0  0  0  0  0  0  0  0  0
    6.0513   -4.1244    4.0428 H   0  0  0  0  0  0  0  0  0  0  0  0
    5.7998   -2.2458    4.7988 H   0  0  0  0  0  0  0  0  0  0  0  0
    4.2882   -1.2162    2.7103 H   0  0  0  0  0  0  0  0  0  0  0  0
    3.1015   -1.3232    6.4963 H   0  0  0  0  0  0  0  0  0  0  0  0
    3.3405   -5.5315    5.6138 H   0  0  0  0  0  0  0  0  0  0  0  0
    1.1561   -4.9718    4.2140 H   0  0  0  0  0  0  0  0  0  0  0  0
    1.2839   -4.7407    5.9168 H   0  0  0  0  0  0  0  0  0  0  0  0
    1.0969   -0.7257    3.9350 H   0  0  0  0  0  0  0  0  0  0  0  0
    5.5515   -6.0684    4.7463 H   0  0  0  0  0  0  0  0  0  0  0  0
    5.4358   -6.4855    3.0648 H   0  0  0  0  0  0  0  0  0  0  0  0
    4.1663   -7.0002    4.1357 H   0  0  0  0  0  0  0  0  0  0  0  0
  1  2  1  0
  1 29  1  0
  1 30  1  0
  1 31  1  0
  2 13  1  0
  2  3  1  0
  2 32  1  6
  3  4  1  0
  4  5  2  0
  4  6  1  0
  6  7  1  0
  6 33  1  0
  6 34  1  0
  7 25  1  0
  7  8  1  0
  7 35  1  1
  8  9  1  0
  9 27  1  0
  9 10  1  6
  9 13  1  0
 10 11  1  0
 10 12  1  0
 10 36  1  0
 11 37  1  0
 11 38  1  0
 11 39  1  0
 12 40  1  0
 12 41  1  0
 12 42  1  0
 13 14  1  0
 13 43  1  6
 14 15  1  0
 14 16  1  0
 14 44  1  1
 15 45  1  0
 16 27  1  0
 16 17  1  0
 16 46  1  1
 17 18  1  0
 17 19  1  0
 17 47  1  1
 18 48  1  0
 19 25  1  0
 19 20  1  1
 19 21  1  0
 20 49  1  0
 21 22  1  0
 22 23  1  0
 22 27  1  0
 22 50  1  1
 23 24  1  0
 23 51  1  0
 23 52  1  0
 24 25  1  0
 25 26  1  6
 26 53  1  0
 27 28  1  1
 28 54  1  0
 28 55  1  0
 28 56  1  0
M  END
>  <i_m_ct_stereo_status>  (28) 
1

>  <s_m_source_file>  (28) 
/var/tmp/pbs.5076255.sched01/tmp7me73ahx/0ll6f151o.sdf

>  <i_m_source_file_index>  (28) 
13

>  <i_lp_mmshare_version>  (28) 
48012

>  <i_f3d_flags>  (28) 
0

>  <s_epik_input>  (28) 
W0NIM11bQ0hdKFtDSDNdKVtDQEBdMTJbQ0BIXTNbQ0BIXShbQ0gzXSlPQyg9TylbQ0gyXVtDQEBIXShPMSlbQ0BdNChbT0hdKVtDQF01KFtPSF0pW0NASF0oW09IXSlbQ0BIXShbQ0BASF0zW09IXSlbQ0BAXTIoW0NIM10pW0NAQEhdKE81KVtDSDJdTzQ=

>  <s_epik_cmdline>  (28) 
J2VwaWtfcHl0aG9uJywgJy1waHQnLCAnMi4wJywgJy1waCcsICc3LjAnLCAnLXRuJywgJzgnLCAnLW1hJywgJzIwMCcsICctaW1hZScsICc8aW5maWxlLm1hZT4nLCAnLW9tYWUnLCAnPG91dGZpbGUubWFlPic=

>  <r_lp_tautomer_probability>  (28) 
1

>  <r_epik_Ionization_Penalty>  (28) 
3.27975e-05

>  <r_epik_Ionization_Penalty_Charging>  (28) 
0

>  <r_epik_Ionization_Penalty_Neutral>  (28) 
3.27975e-05

>  <r_epik_State_Penalty>  (28) 
-0

>  <r_epik_Charging_Adjusted_Penalty>  (28) 
0

>  <i_epik_Tot_Q>  (28) 
0

>  <i_epik_Tot_abs_Q>  (28) 
0

>  <s_epik_Chemistry_Notes>  (28) 
This compound has an ester and may undergo hydrolysis at high or low pH.

>  <s_lp_Force_Field>  (28) 
OPLS3e

>  <r_lp_Energy>  (28) 
121.524

>  <b_lp_Chiralities_Consistent>  (28) 
1

>  <s_lp_Variant>  (28) 
10:0-1

>  <s_i_glide_gridfile>  (28) 
pfpi4k_grid

>  <i_i_glide_lignum>  (28) 
13

>  <i_i_glide_rotatable_bonds>  (28) 
5

>  <r_i_docking_score>  (28) 
-2.39487

>  <r_i_glide_ligand_efficiency>  (28) 
-0.085531

>  <r_i_glide_ligand_efficiency_sa>  (28) 
-0.259723

>  <r_i_glide_ligand_efficiency_ln>  (28) 
-0.552806

>  <r_i_glide_gscore>  (28) 
-2.39487

>  <r_i_glide_lipo>  (28) 
-0.223286

>  <r_i_glide_hbond>  (28) 
0

>  <r_i_glide_metal>  (28) 
-0

>  <r_i_glide_rewards>  (28) 
-1.17895

>  <r_i_glide_evdw>  (28) 
-15.8869

>  <r_i_glide_ecoul>  (28) 
-0.951886

>  <r_i_glide_erotb>  (28) 
0

>  <r_i_glide_esite>  (28) 
-0.0555026

>  <r_i_glide_emodel>  (28) 
-20.559

>  <r_i_glide_energy>  (28) 
-16.8388

>  <r_i_glide_einternal>  (28) 
5.76399

>  <r_i_glide_intrahb_reward>  (28) 
-0.5

>  <i_i_glide_confnum>  (28) 
1

>  <i_i_glide_posenum>  (28) 
27

>  <r_i_glide_eff_state_penalty>  (28) 
0

>  <ligand_id>  (28) 
10

>  <original_smiles>  (28) 
CC1OC(=O)CC2OC3(C(C)C)C1C(O)C1C(O)C4(O)OC(COC24O)C13C

>  <smiles>  (28) 
[H]OC1([H])C2(O[H])OC3([H])C([H])([H])OC2(O[H])C2([H])OC4(C([H])(C([H])([H])[H])C([H])([H])[H])C([H])(C([H])(C([H])([H])[H])OC(=O)C2([H])[H])C([H])(O[H])C1([H])C34C([H])([H])[H]

$$$$
11:0:0
     RDKit          3D

 73 78  0  0  1  0  0  0  0  0999 V2000
    3.6504   -0.8675   -4.1182 C   0  0  0  0  0  0  0  0  0  0  0  0
    3.8629   -1.3475   -2.6917 C   0  0  0  0  0  0  0  0  0  0  0  0
    4.8724   -0.9249   -1.9309 C   0  0  0  0  0  0  0  0  0  0  0  0
    5.1229   -1.3167   -0.4957 C   0  0  2  0  0  0  0  0  0  0  0  0
    6.5085   -1.3011   -0.2068 O   0  0  0  0  0  0  0  0  0  0  0  0
    7.2870   -2.4847   -0.3543 C   0  0  0  0  0  0  0  0  0  0  0  0
    7.6634   -2.7384   -1.8379 C   0  0  0  0  0  0  0  0  0  0  0  0
    8.6158   -1.9922    0.2655 C   0  0  0  0  0  0  0  0  0  0  0  0
    6.5683   -3.6564    0.4547 C   0  0  2  0  0  0  0  0  0  0  0  0
    6.5974   -3.0690    1.6857 O   0  0  0  0  0  0  0  0  0  0  0  0
    7.4483   -4.9471    0.6255 C   0  0  0  0  0  0  0  0  0  0  0  0
    7.5185   -5.7013    1.9872 C   0  0  0  0  0  0  0  0  0  0  0  0
    6.2650   -6.4358    2.5337 C   0  0  1  0  0  0  0  0  0  0  0  0
    6.5511   -7.1137    3.8833 C   0  0  0  0  0  0  0  0  0  0  0  0
    5.0001   -5.5552    2.5575 C   0  0  2  0  0  0  0  0  0  0  0  0
    5.2153   -4.5171    3.6821 C   0  0  0  0  0  0  0  0  0  0  0  0
    3.6169   -6.1930    2.8563 C   0  0  1  0  0  0  0  0  0  0  0  0
    2.9194   -6.1971    4.1231 N   0  0  0  0  0  0  0  0  0  0  0  0
    2.4116   -5.2688    4.9400 C   0  0  0  0  0  0  0  0  0  0  0  0
    1.9924   -5.7793    6.0761 N   0  0  0  0  0  0  0  0  0  0  0  0
    2.2719   -7.1266    5.9347 N   0  0  0  0  0  0  0  0  0  0  0  0
    2.8269   -7.3791    4.7857 N   0  0  0  0  0  0  0  0  0  0  0  0
    3.0610   -5.3218    1.7576 C   0  0  2  0  0  0  0  0  0  0  0  0
    1.8362   -4.4987    1.9366 C   0  0  0  0  0  0  0  0  0  0  0  0
    1.8683   -5.6141    1.0260 O   0  0  0  0  0  0  0  0  0  0  0  0
    4.4537   -5.1482    1.1096 C   0  0  2  0  0  0  0  0  0  0  0  0
    4.4511   -6.3991    0.1709 C   0  0  0  0  0  0  0  0  0  0  0  0
    5.0251   -3.8842    0.1790 C   0  0  2  0  0  0  0  0  0  0  0  0
    4.9898   -4.2605   -1.3191 C   0  0  0  0  0  0  0  0  0  0  0  0
    4.2699   -2.4723    0.1593 C   0  0  1  0  0  0  0  0  0  0  0  0
    3.9447   -1.9089    1.5728 C   0  0  0  0  0  0  0  0  0  0  0  0
    2.9088   -2.5762   -0.5988 C   0  0  0  0  0  0  0  0  0  0  0  0
    2.8441   -2.3123   -2.1475 C   0  0  0  0  0  0  0  0  0  0  0  0
    3.5982   -1.7290   -4.7802 H   0  0  0  0  0  0  0  0  0  0  0  0
    4.4716   -0.2289   -4.4442 H   0  0  0  0  0  0  0  0  0  0  0  0
    2.7214   -0.2993   -4.2247 H   0  0  0  0  0  0  0  0  0  0  0  0
    5.5711   -0.2023   -2.3162 H   0  0  0  0  0  0  0  0  0  0  0  0
    4.8111   -0.3907   -0.0257 H   0  0  0  0  0  0  0  0  0  0  0  0
    7.8073   -3.7964   -1.9931 H   0  0  0  0  0  0  0  0  0  0  0  0
    8.6290   -2.3032   -2.1290 H   0  0  0  0  0  0  0  0  0  0  0  0
    6.9068   -2.4102   -2.5488 H   0  0  0  0  0  0  0  0  0  0  0  0
    9.4176   -2.7355    0.2979 H   0  0  0  0  0  0  0  0  0  0  0  0
    8.4869   -1.4926    1.2197 H   0  0  0  0  0  0  0  0  0  0  0  0
    8.9902   -1.1764   -0.3346 H   0  0  0  0  0  0  0  0  0  0  0  0
    6.1810   -2.2307    1.5530 H   0  0  0  0  0  0  0  0  0  0  0  0
    7.2350   -5.6795   -0.1355 H   0  0  0  0  0  0  0  0  0  0  0  0
    8.4802   -4.6663    0.4308 H   0  0  0  0  0  0  0  0  0  0  0  0
    8.2685   -6.4769    1.8520 H   0  0  0  0  0  0  0  0  0  0  0  0
    7.9554   -5.0556    2.7460 H   0  0  0  0  0  0  0  0  0  0  0  0
    6.1044   -7.2771    1.8668 H   0  0  0  0  0  0  0  0  0  0  0  0
    6.8435   -6.4001    4.6548 H   0  0  0  0  0  0  0  0  0  0  0  0
    7.3633   -7.8309    3.7774 H   0  0  0  0  0  0  0  0  0  0  0  0
    5.6753   -7.6586    4.2404 H   0  0  0  0  0  0  0  0  0  0  0  0
    4.5750   -3.6533    3.5691 H   0  0  0  0  0  0  0  0  0  0  0  0
    6.2068   -4.1478    3.7510 H   0  0  0  0  0  0  0  0  0  0  0  0
    5.0386   -4.9174    4.6848 H   0  0  0  0  0  0  0  0  0  0  0  0
    3.6610   -7.2371    2.5718 H   0  0  0  0  0  0  0  0  0  0  0  0
    2.4235   -4.1944    4.7474 H   0  0  0  0  0  0  0  0  0  0  0  0
    1.1535   -4.6679    2.7603 H   0  0  0  0  0  0  0  0  0  0  0  0
    1.8219   -3.5220    1.4971 H   0  0  0  0  0  0  0  0  0  0  0  0
    3.7041   -6.3397   -0.6111 H   0  0  0  0  0  0  0  0  0  0  0  0
    4.2244   -7.3424    0.6523 H   0  0  0  0  0  0  0  0  0  0  0  0
    5.4080   -6.5979   -0.2825 H   0  0  0  0  0  0  0  0  0  0  0  0
    4.0086   -4.5918   -1.6209 H   0  0  0  0  0  0  0  0  0  0  0  0
    5.6934   -5.0352   -1.5308 H   0  0  0  0  0  0  0  0  0  0  0  0
    5.2440   -3.4678   -2.0031 H   0  0  0  0  0  0  0  0  0  0  0  0
    3.4312   -2.6101    2.1972 H   0  0  0  0  0  0  0  0  0  0  0  0
    3.3088   -1.0246    1.5107 H   0  0  0  0  0  0  0  0  0  0  0  0
    4.8015   -1.5747    2.1431 H   0  0  0  0  0  0  0  0  0  0  0  0
    2.4833   -3.5671   -0.5039 H   0  0  0  0  0  0  0  0  0  0  0  0
    2.2228   -1.9670   -0.0098 H   0  0  0  0  0  0  0  0  0  0  0  0
    1.8928   -1.8639   -2.3776 H   0  0  0  0  0  0  0  0  0  0  0  0
    2.8833   -3.2291   -2.7516 H   0  0  0  0  0  0  0  0  0  0  0  0
  1  2  1  0
  1 34  1  0
  1 35  1  0
  1 36  1  0
  2 33  1  0
  2  3  2  0
  3  4  1  0
  3 37  1  0
  4 30  1  0
  4  5  1  0
  4 38  1  1
  5  6  1  0
  6  7  1  0
  6  8  1  0
  6  9  1  0
  7 39  1  0
  7 40  1  0
  7 41  1  0
  8 42  1  0
  8 43  1  0
  8 44  1  0
  9 28  1  0
  9 10  1  1
  9 11  1  0
 10 45  1  0
 11 12  1  0
 11 46  1  0
 11 47  1  0
 12 13  1  0
 12 48  1  0
 12 49  1  0
 13 14  1  0
 13 15  1  0
 13 50  1  6
 14 51  1  0
 14 52  1  0
 14 53  1  0
 15 26  1  0
 15 16  1  1
 15 17  1  0
 16 54  1  0
 16 55  1  0
 16 56  1  0
 17 18  1  0
 17 23  1  0
 17 57  1  6
 18 22  1  0
 18 19  1  0
 19 20  2  0
 19 58  1  0
 20 21  1  0
 21 22  2  0
 23 25  1  6
 23 24  1  0
 23 26  1  0
 24 25  1  0
 24 59  1  0
 24 60  1  0
 26 27  1  6
 26 28  1  0
 27 61  1  0
 27 62  1  0
 27 63  1  0
 28 29  1  6
 28 30  1  0
 29 64  1  0
 29 65  1  0
 29 66  1  0
 30 31  1  1
 30 32  1  0
 31 67  1  0
 31 68  1  0
 31 69  1  0
 32 33  1  0
 32 70  1  0
 32 71  1  0
 33 72  1  0
 33 73  1  0
M  END
>  <i_m_ct_stereo_status>  (29) 
1

>  <s_m_source_file>  (29) 
/var/tmp/pbs.5076255.sched01/tmp7me73ahx/0ll6f151o.sdf

>  <i_m_source_file_index>  (29) 
14

>  <i_lp_mmshare_version>  (29) 
48012

>  <i_f3d_flags>  (29) 
0

>  <s_epik_input>  (29) 
W0NIMl0xW0NIMl1DKFtDSDNdKT1bQ0hdW0NASF0oT0MyKFtDSDNdKVtDSDNdKVtDQF0xKFtDSDNdKVtDQEBdMyhbQ0gzXSlbQ0BAXTIoW09IXSlbQ0gyXVtDSDJdW0NAQEhdKFtDSDNdKVtDQEBdKFtDSDNdKShbQ0BAXTMoW0NIM10pW0NAXTQ1W0NIMl1PNSlbQ0BIXTRuNltjSF1ubm42

>  <s_epik_cmdline>  (29) 
J2VwaWtfcHl0aG9uJywgJy1waHQnLCAnMi4wJywgJy1waCcsICc3LjAnLCAnLXRuJywgJzgnLCAnLW1hJywgJzIwMCcsICctaW1hZScsICc8aW5maWxlLm1hZT4nLCAnLW9tYWUnLCAnPG91dGZpbGUubWFlPic=

>  <r_lp_tautomer_probability>  (29) 
1

>  <r_epik_Ionization_Penalty>  (29) 
8.71786e-08

>  <r_epik_Ionization_Penalty_Charging>  (29) 
0

>  <r_epik_Ionization_Penalty_Neutral>  (29) 
8.71786e-08

>  <r_epik_State_Penalty>  (29) 
-0

>  <r_epik_Charging_Adjusted_Penalty>  (29) 
0

>  <i_epik_Tot_Q>  (29) 
0

>  <i_epik_Tot_abs_Q>  (29) 
0

>  <s_lp_Force_Field>  (29) 
OPLS3e

>  <r_lp_Energy>  (29) 
137.465

>  <b_lp_Chiralities_Consistent>  (29) 
1

>  <s_lp_Variant>  (29) 
11:0-1

>  <s_i_glide_gridfile>  (29) 
pfpi4k_grid

>  <i_i_glide_lignum>  (29) 
14

>  <i_i_glide_rotatable_bonds>  (29) 
2

>  <r_i_docking_score>  (29) 
-2.32537

>  <r_i_glide_ligand_efficiency>  (29) 
-0.0704658

>  <r_i_glide_ligand_efficiency_sa>  (29) 
-0.226021

>  <r_i_glide_ligand_efficiency_ln>  (29) 
-0.51715

>  <r_i_glide_gscore>  (29) 
-2.32537

>  <r_i_glide_lipo>  (29) 
-0.621314

>  <r_i_glide_hbond>  (29) 
-0.164295

>  <r_i_glide_metal>  (29) 
-0

>  <r_i_glide_rewards>  (29) 
-0.295767

>  <r_i_glide_evdw>  (29) 
-16.2941

>  <r_i_glide_ecoul>  (29) 
-3.50381

>  <r_i_glide_erotb>  (29) 
0.0963942

>  <r_i_glide_esite>  (29) 
-0.000114887

>  <r_i_glide_emodel>  (29) 
-17.0294

>  <r_i_glide_energy>  (29) 
-19.7979

>  <r_i_glide_einternal>  (29) 
0.973005

>  <r_i_glide_intrahb_reward>  (29) 
-0

>  <i_i_glide_confnum>  (29) 
2

>  <i_i_glide_posenum>  (29) 
35

>  <r_i_glide_eff_state_penalty>  (29) 
0

>  <ligand_id>  (29) 
11

>  <original_smiles>  (29) 
CC1=CC2OC(C)(C)C3(O)CCC(C)C4(C)C(n5cnnn5)C5(CO5)C4(C)C3(C)C2(C)CC1

>  <smiles>  (29) 
[H]OC12C([H])([H])C([H])([H])C([H])(C([H])([H])[H])C3(C([H])([H])[H])C([H])(n4nnnc4[H])C4(OC4([H])[H])C3(C([H])([H])[H])C1(C([H])([H])[H])C1(C([H])([H])[H])C([H])(OC2(C([H])([H])[H])C([H])([H])[H])C([H])=C(C([H])([H])[H])C([H])([H])C1([H])[H]

$$$$
11:0:1
     RDKit          3D

 73 78  0  0  1  0  0  0  0  0999 V2000
    3.5970   -0.7740   -4.0503 C   0  0  0  0  0  0  0  0  0  0  0  0
    3.8299   -1.2893   -2.6429 C   0  0  0  0  0  0  0  0  0  0  0  0
    4.8513   -0.8752   -1.8899 C   0  0  0  0  0  0  0  0  0  0  0  0
    5.1210   -1.3003   -0.4640 C   0  0  2  0  0  0  0  0  0  0  0  0
    6.5142   -1.3005   -0.2078 O   0  0  0  0  0  0  0  0  0  0  0  0
    7.2988   -2.4782   -0.3678 C   0  0  0  0  0  0  0  0  0  0  0  0
    7.6559   -2.7568   -1.8481 C   0  0  0  0  0  0  0  0  0  0  0  0
    8.6255   -1.9529    0.2415 C   0  0  0  0  0  0  0  0  0  0  0  0
    6.5915   -3.6602    0.4288 C   0  0  2  0  0  0  0  0  0  0  0  0
    6.6166   -3.1104    1.6849 O   0  0  0  0  0  0  0  0  0  0  0  0
    7.4978   -4.9338    0.5442 C   0  0  0  0  0  0  0  0  0  0  0  0
    7.5920   -5.7210    1.8839 C   0  0  0  0  0  0  0  0  0  0  0  0
    6.3480   -6.4775    2.4213 C   0  0  1  0  0  0  0  0  0  0  0  0
    6.6681   -7.1933    3.7450 C   0  0  0  0  0  0  0  0  0  0  0  0
    5.0599   -5.6175    2.4822 C   0  0  2  0  0  0  0  0  0  0  0  0
    5.2346   -4.6111    3.6383 C   0  0  0  0  0  0  0  0  0  0  0  0
    3.6863   -6.2838    2.7836 C   0  0  1  0  0  0  0  0  0  0  0  0
    3.0493   -6.4272    4.0627 N   0  0  0  0  0  0  0  0  0  0  0  0
    2.9832   -7.5224    4.8301 C   0  0  0  0  0  0  0  0  0  0  0  0
    2.4480   -7.2705    6.0041 N   0  0  0  0  0  0  0  0  0  0  0  0
    2.1622   -5.9260    5.9511 N   0  0  0  0  0  0  0  0  0  0  0  0
    2.5228   -5.4085    4.8011 N   0  0  0  0  0  0  0  0  0  0  0  0
    3.1003   -5.3715    1.7246 C   0  0  2  0  0  0  0  0  0  0  0  0
    1.8426   -4.5841    1.9013 C   0  0  0  0  0  0  0  0  0  0  0  0
    1.9169   -5.6903    0.9734 O   0  0  0  0  0  0  0  0  0  0  0  0
    4.4797   -5.1777    1.0607 C   0  0  2  0  0  0  0  0  0  0  0  0
    4.4840   -6.4188    0.0980 C   0  0  0  0  0  0  0  0  0  0  0  0
    5.0452   -3.8953    0.1466 C   0  0  2  0  0  0  0  0  0  0  0  0
    5.0091   -4.2460   -1.3616 C   0  0  0  0  0  0  0  0  0  0  0  0
    4.2849   -2.4817    0.1724 C   0  0  1  0  0  0  0  0  0  0  0  0
    3.9647   -1.9693    1.6080 C   0  0  0  0  0  0  0  0  0  0  0  0
    2.9190   -2.5723   -0.5769 C   0  0  0  0  0  0  0  0  0  0  0  0
    2.8333   -2.2799   -2.1108 C   0  0  0  0  0  0  0  0  0  0  0  0
    3.5522   -1.6146   -4.7394 H   0  0  0  0  0  0  0  0  0  0  0  0
    4.4010   -0.1107   -4.3657 H   0  0  0  0  0  0  0  0  0  0  0  0
    2.6604   -0.2155   -4.1261 H   0  0  0  0  0  0  0  0  0  0  0  0
    5.5321   -0.1424   -2.2864 H   0  0  0  0  0  0  0  0  0  0  0  0
    4.8035   -0.3888    0.0406 H   0  0  0  0  0  0  0  0  0  0  0  0
    7.7820   -3.8224   -2.0309 H   0  0  0  0  0  0  0  0  0  0  0  0
    8.6037   -2.2990   -2.1599 H   0  0  0  0  0  0  0  0  0  0  0  0
    6.9069   -2.3872   -2.5433 H   0  0  0  0  0  0  0  0  0  0  0  0
    9.4421   -2.6761    0.2496 H   0  0  0  0  0  0  0  0  0  0  0  0
    8.5061   -1.4913    1.2130 H   0  0  0  0  0  0  0  0  0  0  0  0
    8.9846   -1.1076   -0.3347 H   0  0  0  0  0  0  0  0  0  0  0  0
    6.2331   -2.2464    1.5810 H   0  0  0  0  0  0  0  0  0  0  0  0
    7.2840   -5.6387   -0.2402 H   0  0  0  0  0  0  0  0  0  0  0  0
    8.5242   -4.6325    0.3431 H   0  0  0  0  0  0  0  0  0  0  0  0
    8.3555   -6.4801    1.7201 H   0  0  0  0  0  0  0  0  0  0  0  0
    8.0236   -5.0861    2.6542 H   0  0  0  0  0  0  0  0  0  0  0  0
    6.1995   -7.3060    1.7324 H   0  0  0  0  0  0  0  0  0  0  0  0
    6.9596   -6.4986    4.5334 H   0  0  0  0  0  0  0  0  0  0  0  0
    7.4918   -7.8951    3.6116 H   0  0  0  0  0  0  0  0  0  0  0  0
    5.8117   -7.7672    4.0991 H   0  0  0  0  0  0  0  0  0  0  0  0
    4.5696   -3.7636    3.5612 H   0  0  0  0  0  0  0  0  0  0  0  0
    6.2187   -4.2148    3.7106 H   0  0  0  0  0  0  0  0  0  0  0  0
    5.0843   -5.0543    4.6228 H   0  0  0  0  0  0  0  0  0  0  0  0
    3.7561   -7.3150    2.4456 H   0  0  0  0  0  0  0  0  0  0  0  0
    3.3746   -8.4864    4.5423 H   0  0  0  0  0  0  0  0  0  0  0  0
    1.1896   -4.7776    2.7480 H   0  0  0  0  0  0  0  0  0  0  0  0
    1.8200   -3.5925    1.4873 H   0  0  0  0  0  0  0  0  0  0  0  0
    3.7514   -6.3714   -0.6991 H   0  0  0  0  0  0  0  0  0  0  0  0
    4.2871   -7.3829    0.5515 H   0  0  0  0  0  0  0  0  0  0  0  0
    5.4469   -6.5886   -0.3320 H   0  0  0  0  0  0  0  0  0  0  0  0
    4.0618   -4.6444   -1.6870 H   0  0  0  0  0  0  0  0  0  0  0  0
    5.7673   -4.9588   -1.6053 H   0  0  0  0  0  0  0  0  0  0  0  0
    5.1939   -3.4259   -2.0344 H   0  0  0  0  0  0  0  0  0  0  0  0
    3.4568   -2.6946    2.2142 H   0  0  0  0  0  0  0  0  0  0  0  0
    3.3192   -1.0893    1.5879 H   0  0  0  0  0  0  0  0  0  0  0  0
    4.8290   -1.6461    2.1759 H   0  0  0  0  0  0  0  0  0  0  0  0
    2.4842   -3.5578   -0.4854 H   0  0  0  0  0  0  0  0  0  0  0  0
    2.2485   -1.9349    0.0035 H   0  0  0  0  0  0  0  0  0  0  0  0
    1.8618   -1.8590   -2.3331 H   0  0  0  0  0  0  0  0  0  0  0  0
    2.8873   -3.1920   -2.7180 H   0  0  0  0  0  0  0  0  0  0  0  0
  1  2  1  0
  1 34  1  0
  1 35  1  0
  1 36  1  0
  2 33  1  0
  2  3  2  0
  3  4  1  0
  3 37  1  0
  4 30  1  0
  4  5  1  0
  4 38  1  1
  5  6  1  0
  6  7  1  0
  6  8  1  0
  6  9  1  0
  7 39  1  0
  7 40  1  0
  7 41  1  0
  8 42  1  0
  8 43  1  0
  8 44  1  0
  9 28  1  0
  9 10  1  1
  9 11  1  0
 10 45  1  0
 11 12  1  0
 11 46  1  0
 11 47  1  0
 12 13  1  0
 12 48  1  0
 12 49  1  0
 13 14  1  0
 13 15  1  0
 13 50  1  6
 14 51  1  0
 14 52  1  0
 14 53  1  0
 15 26  1  0
 15 16  1  1
 15 17  1  0
 16 54  1  0
 16 55  1  0
 16 56  1  0
 17 18  1  0
 17 23  1  0
 17 57  1  6
 18 22  1  0
 18 19  1  0
 19 20  2  0
 19 58  1  0
 20 21  1  0
 21 22  2  0
 23 25  1  6
 23 24  1  0
 23 26  1  0
 24 25  1  0
 24 59  1  0
 24 60  1  0
 26 27  1  6
 26 28  1  0
 27 61  1  0
 27 62  1  0
 27 63  1  0
 28 29  1  6
 28 30  1  0
 29 64  1  0
 29 65  1  0
 29 66  1  0
 30 31  1  1
 30 32  1  0
 31 67  1  0
 31 68  1  0
 31 69  1  0
 32 33  1  0
 32 70  1  0
 32 71  1  0
 33 72  1  0
 33 73  1  0
M  END
>  <i_m_ct_stereo_status>  (30) 
1

>  <s_m_source_file>  (30) 
/var/tmp/pbs.5076255.sched01/tmp7me73ahx/0ll6f151o.sdf

>  <i_m_source_file_index>  (30) 
14

>  <i_lp_mmshare_version>  (30) 
48012

>  <i_f3d_flags>  (30) 
0

>  <s_epik_input>  (30) 
W0NIMl0xW0NIMl1DKFtDSDNdKT1bQ0hdW0NASF0oT0MyKFtDSDNdKVtDSDNdKVtDQF0xKFtDSDNdKVtDQEBdMyhbQ0gzXSlbQ0BAXTIoW09IXSlbQ0gyXVtDSDJdW0NAQEhdKFtDSDNdKVtDQEBdKFtDSDNdKShbQ0BAXTMoW0NIM10pW0NAXTQ1W0NIMl1PNSlbQ0BIXTRuNltjSF1ubm42

>  <s_epik_cmdline>  (30) 
J2VwaWtfcHl0aG9uJywgJy1waHQnLCAnMi4wJywgJy1waCcsICc3LjAnLCAnLXRuJywgJzgnLCAnLW1hJywgJzIwMCcsICctaW1hZScsICc8aW5maWxlLm1hZT4nLCAnLW9tYWUnLCAnPG91dGZpbGUubWFlPic=

>  <r_lp_tautomer_probability>  (30) 
1

>  <r_epik_Ionization_Penalty>  (30) 
8.71786e-08

>  <r_epik_Ionization_Penalty_Charging>  (30) 
0

>  <r_epik_Ionization_Penalty_Neutral>  (30) 
8.71786e-08

>  <r_epik_State_Penalty>  (30) 
-0

>  <r_epik_Charging_Adjusted_Penalty>  (30) 
0

>  <i_epik_Tot_Q>  (30) 
0

>  <i_epik_Tot_abs_Q>  (30) 
0

>  <s_lp_Force_Field>  (30) 
OPLS3e

>  <r_lp_Energy>  (30) 
137.465

>  <b_lp_Chiralities_Consistent>  (30) 
1

>  <s_lp_Variant>  (30) 
11:0-1

>  <s_i_glide_gridfile>  (30) 
pfpi4k_grid

>  <i_i_glide_lignum>  (30) 
14

>  <i_i_glide_rotatable_bonds>  (30) 
2

>  <r_i_docking_score>  (30) 
-2.22546

>  <r_i_glide_ligand_efficiency>  (30) 
-0.0674382

>  <r_i_glide_ligand_efficiency_sa>  (30) 
-0.21631

>  <r_i_glide_ligand_efficiency_ln>  (30) 
-0.494931

>  <r_i_glide_gscore>  (30) 
-2.22546

>  <r_i_glide_lipo>  (30) 
-0.657539

>  <r_i_glide_hbond>  (30) 
-0.147048

>  <r_i_glide_metal>  (30) 
-0

>  <r_i_glide_rewards>  (30) 
-0.295767

>  <r_i_glide_evdw>  (30) 
-14.4698

>  <r_i_glide_ecoul>  (30) 
-3.31882

>  <r_i_glide_erotb>  (30) 
0.0963942

>  <r_i_glide_esite>  (30) 
-0.000187884

>  <r_i_glide_emodel>  (30) 
-16.4309

>  <r_i_glide_energy>  (30) 
-17.7886

>  <r_i_glide_einternal>  (30) 
0.0072917

>  <r_i_glide_intrahb_reward>  (30) 
-0

>  <i_i_glide_confnum>  (30) 
1

>  <i_i_glide_posenum>  (30) 
30

>  <r_i_glide_eff_state_penalty>  (30) 
0

>  <ligand_id>  (30) 
11

>  <original_smiles>  (30) 
CC1=CC2OC(C)(C)C3(O)CCC(C)C4(C)C(n5cnnn5)C5(CO5)C4(C)C3(C)C2(C)CC1

>  <smiles>  (30) 
[H]OC12C([H])([H])C([H])([H])C([H])(C([H])([H])[H])C3(C([H])([H])[H])C([H])(n4nnnc4[H])C4(OC4([H])[H])C3(C([H])([H])[H])C1(C([H])([H])[H])C1(C([H])([H])[H])C([H])(OC2(C([H])([H])[H])C([H])([H])[H])C([H])=C(C([H])([H])[H])C([H])([H])C1([H])[H]

$$$$
11:0:2
     RDKit          3D

 73 78  0  0  1  0  0  0  0  0999 V2000
    3.6661   -0.9517   -4.1588 C   0  0  0  0  0  0  0  0  0  0  0  0
    3.8492   -1.3838   -2.7163 C   0  0  0  0  0  0  0  0  0  0  0  0
    4.8659   -0.9426   -1.9673 C   0  0  0  0  0  0  0  0  0  0  0  0
    5.1252   -1.2943   -0.5245 C   0  0  2  0  0  0  0  0  0  0  0  0
    6.5235   -1.2610   -0.2632 O   0  0  0  0  0  0  0  0  0  0  0  0
    7.3019   -2.4521   -0.3389 C   0  0  0  0  0  0  0  0  0  0  0  0
    7.6830   -2.7947   -1.7982 C   0  0  0  0  0  0  0  0  0  0  0  0
    8.6250   -1.9171    0.2877 C   0  0  0  0  0  0  0  0  0  0  0  0
    6.5798   -3.6002    0.4893 C   0  0  2  0  0  0  0  0  0  0  0  0
    6.5477   -2.9834    1.6981 O   0  0  0  0  0  0  0  0  0  0  0  0
    7.4808   -4.8803    0.7152 C   0  0  0  0  0  0  0  0  0  0  0  0
    7.5445   -5.6441    2.0838 C   0  0  0  0  0  0  0  0  0  0  0  0
    6.2799   -6.3354    2.6497 C   0  0  1  0  0  0  0  0  0  0  0  0
    6.5682   -6.9605    4.0249 C   0  0  0  0  0  0  0  0  0  0  0  0
    5.0150   -5.4523    2.6407 C   0  0  2  0  0  0  0  0  0  0  0  0
    5.2190   -4.3667    3.7349 C   0  0  0  0  0  0  0  0  0  0  0  0
    3.6318   -6.0782    2.9650 C   0  0  1  0  0  0  0  0  0  0  0  0
    2.9390   -6.0832    4.2250 N   0  0  0  0  0  0  0  0  0  0  0  0
    2.4777   -5.1059    5.0425 C   0  0  0  0  0  0  0  0  0  0  0  0
    2.0335   -5.6082    6.1736 N   0  0  0  0  0  0  0  0  0  0  0  0
    2.2232   -6.9653    6.0368 N   0  0  0  0  0  0  0  0  0  0  0  0
    2.7653   -7.2403    4.8932 N   0  0  0  0  0  0  0  0  0  0  0  0
    3.0677   -5.2351    1.8392 C   0  0  2  0  0  0  0  0  0  0  0  0
    1.8335   -4.4216    1.9834 C   0  0  0  0  0  0  0  0  0  0  0  0
    1.8808   -5.5667    1.0976 O   0  0  0  0  0  0  0  0  0  0  0  0
    4.4698   -5.0864    1.1810 C   0  0  2  0  0  0  0  0  0  0  0  0
    4.4744   -6.3825    0.2849 C   0  0  0  0  0  0  0  0  0  0  0  0
    5.0437   -3.8532    0.2121 C   0  0  2  0  0  0  0  0  0  0  0  0
    5.0271   -4.2889   -1.2708 C   0  0  0  0  0  0  0  0  0  0  0  0
    4.2749   -2.4471    0.1511 C   0  0  1  0  0  0  0  0  0  0  0  0
    3.9292   -1.8475    1.5524 C   0  0  0  0  0  0  0  0  0  0  0  0
    2.9173   -2.5922   -0.6111 C   0  0  0  0  0  0  0  0  0  0  0  0
    2.8298   -2.3378   -2.1544 C   0  0  0  0  0  0  0  0  0  0  0  0
    3.6303   -1.8350   -4.7927 H   0  0  0  0  0  0  0  0  0  0  0  0
    4.4863   -0.3153   -4.4969 H   0  0  0  0  0  0  0  0  0  0  0  0
    2.7347   -0.3965   -4.2928 H   0  0  0  0  0  0  0  0  0  0  0  0
    5.5651   -0.2385   -2.3790 H   0  0  0  0  0  0  0  0  0  0  0  0
    4.8094   -0.3555   -0.0721 H   0  0  0  0  0  0  0  0  0  0  0  0
    7.8228   -3.8433   -1.8955 H   0  0  0  0  0  0  0  0  0  0  0  0
    8.6297   -2.3419   -2.1107 H   0  0  0  0  0  0  0  0  0  0  0  0
    6.9379   -2.4693   -2.5193 H   0  0  0  0  0  0  0  0  0  0  0  0
    9.4353   -2.6506    0.3340 H   0  0  0  0  0  0  0  0  0  0  0  0
    8.4988   -1.4267    1.2656 H   0  0  0  0  0  0  0  0  0  0  0  0
    9.0204   -1.1088   -0.3198 H   0  0  0  0  0  0  0  0  0  0  0  0
    7.4181   -2.9856    2.0345 H   0  0  0  0  0  0  0  0  0  0  0  0
    7.2799   -5.6227   -0.0438 H   0  0  0  0  0  0  0  0  0  0  0  0
    8.5139   -4.5989    0.5208 H   0  0  0  0  0  0  0  0  0  0  0  0
    8.2900   -6.4298    1.9439 H   0  0  0  0  0  0  0  0  0  0  0  0
    8.0130   -5.0608    2.8722 H   0  0  0  0  0  0  0  0  0  0  0  0
    6.1158   -7.1953    2.0101 H   0  0  0  0  0  0  0  0  0  0  0  0
    6.8525   -6.2209    4.7763 H   0  0  0  0  0  0  0  0  0  0  0  0
    7.3909   -7.6719    3.9471 H   0  0  0  0  0  0  0  0  0  0  0  0
    5.6983   -7.5023    4.3970 H   0  0  0  0  0  0  0  0  0  0  0  0
    4.5743   -3.5025    3.6108 H   0  0  0  0  0  0  0  0  0  0  0  0
    6.2088   -3.9786    3.8056 H   0  0  0  0  0  0  0  0  0  0  0  0
    5.0572   -4.7363    4.7498 H   0  0  0  0  0  0  0  0  0  0  0  0
    3.6803   -7.1356    2.6982 H   0  0  0  0  0  0  0  0  0  0  0  0
    2.5581   -4.0545    4.8404 H   0  0  0  0  0  0  0  0  0  0  0  0
    1.1446   -4.5761    2.8200 H   0  0  0  0  0  0  0  0  0  0  0  0
    1.7770   -3.4527    1.5092 H   0  0  0  0  0  0  0  0  0  0  0  0
    3.7299   -6.3647   -0.5035 H   0  0  0  0  0  0  0  0  0  0  0  0
    4.2549   -7.3147    0.7967 H   0  0  0  0  0  0  0  0  0  0  0  0
    5.4328   -6.5983   -0.1610 H   0  0  0  0  0  0  0  0  0  0  0  0
    4.0589   -4.6632   -1.5596 H   0  0  0  0  0  0  0  0  0  0  0  0
    5.7665   -5.0430   -1.4715 H   0  0  0  0  0  0  0  0  0  0  0  0
    5.2442   -3.5061   -1.9750 H   0  0  0  0  0  0  0  0  0  0  0  0
    3.4171   -2.5329    2.1987 H   0  0  0  0  0  0  0  0  0  0  0  0
    3.2910   -0.9646    1.4731 H   0  0  0  0  0  0  0  0  0  0  0  0
    4.7905   -1.4979    2.1132 H   0  0  0  0  0  0  0  0  0  0  0  0
    2.4887   -3.5767   -0.4814 H   0  0  0  0  0  0  0  0  0  0  0  0
    2.2300   -1.9772   -0.0460 H   0  0  0  0  0  0  0  0  0  0  0  0
    1.8530   -1.9323   -2.4002 H   0  0  0  0  0  0  0  0  0  0  0  0
    2.9004   -3.2669   -2.7253 H   0  0  0  0  0  0  0  0  0  0  0  0
  1  2  1  0
  1 34  1  0
  1 35  1  0
  1 36  1  0
  2 33  1  0
  2  3  2  0
  3  4  1  0
  3 37  1  0
  4 30  1  0
  4  5  1  0
  4 38  1  1
  5  6  1  0
  6  7  1  0
  6  8  1  0
  6  9  1  0
  7 39  1  0
  7 40  1  0
  7 41  1  0
  8 42  1  0
  8 43  1  0
  8 44  1  0
  9 28  1  0
  9 10  1  1
  9 11  1  0
 10 45  1  0
 11 12  1  0
 11 46  1  0
 11 47  1  0
 12 13  1  0
 12 48  1  0
 12 49  1  0
 13 14  1  0
 13 15  1  0
 13 50  1  6
 14 51  1  0
 14 52  1  0
 14 53  1  0
 15 26  1  0
 15 16  1  1
 15 17  1  0
 16 54  1  0
 16 55  1  0
 16 56  1  0
 17 18  1  0
 17 23  1  0
 17 57  1  6
 18 22  1  0
 18 19  1  0
 19 20  2  0
 19 58  1  0
 20 21  1  0
 21 22  2  0
 23 25  1  6
 23 24  1  0
 23 26  1  0
 24 25  1  0
 24 59  1  0
 24 60  1  0
 26 27  1  6
 26 28  1  0
 27 61  1  0
 27 62  1  0
 27 63  1  0
 28 29  1  6
 28 30  1  0
 29 64  1  0
 29 65  1  0
 29 66  1  0
 30 31  1  1
 30 32  1  0
 31 67  1  0
 31 68  1  0
 31 69  1  0
 32 33  1  0
 32 70  1  0
 32 71  1  0
 33 72  1  0
 33 73  1  0
M  END
>  <i_m_ct_stereo_status>  (31) 
1

>  <s_m_source_file>  (31) 
/var/tmp/pbs.5076255.sched01/tmp7me73ahx/0ll6f151o.sdf

>  <i_m_source_file_index>  (31) 
14

>  <i_lp_mmshare_version>  (31) 
48012

>  <i_f3d_flags>  (31) 
0

>  <s_epik_input>  (31) 
W0NIMl0xW0NIMl1DKFtDSDNdKT1bQ0hdW0NASF0oT0MyKFtDSDNdKVtDSDNdKVtDQF0xKFtDSDNdKVtDQEBdMyhbQ0gzXSlbQ0BAXTIoW09IXSlbQ0gyXVtDSDJdW0NAQEhdKFtDSDNdKVtDQEBdKFtDSDNdKShbQ0BAXTMoW0NIM10pW0NAXTQ1W0NIMl1PNSlbQ0BIXTRuNltjSF1ubm42

>  <s_epik_cmdline>  (31) 
J2VwaWtfcHl0aG9uJywgJy1waHQnLCAnMi4wJywgJy1waCcsICc3LjAnLCAnLXRuJywgJzgnLCAnLW1hJywgJzIwMCcsICctaW1hZScsICc8aW5maWxlLm1hZT4nLCAnLW9tYWUnLCAnPG91dGZpbGUubWFlPic=

>  <r_lp_tautomer_probability>  (31) 
1

>  <r_epik_Ionization_Penalty>  (31) 
8.71786e-08

>  <r_epik_Ionization_Penalty_Charging>  (31) 
0

>  <r_epik_Ionization_Penalty_Neutral>  (31) 
8.71786e-08

>  <r_epik_State_Penalty>  (31) 
-0

>  <r_epik_Charging_Adjusted_Penalty>  (31) 
0

>  <i_epik_Tot_Q>  (31) 
0

>  <i_epik_Tot_abs_Q>  (31) 
0

>  <s_lp_Force_Field>  (31) 
OPLS3e

>  <r_lp_Energy>  (31) 
137.465

>  <b_lp_Chiralities_Consistent>  (31) 
1

>  <s_lp_Variant>  (31) 
11:0-1

>  <s_i_glide_gridfile>  (31) 
pfpi4k_grid

>  <i_i_glide_lignum>  (31) 
14

>  <i_i_glide_rotatable_bonds>  (31) 
2

>  <r_i_docking_score>  (31) 
-2.21466

>  <r_i_glide_ligand_efficiency>  (31) 
-0.0671109

>  <r_i_glide_ligand_efficiency_sa>  (31) 
-0.215261

>  <r_i_glide_ligand_efficiency_ln>  (31) 
-0.492529

>  <r_i_glide_gscore>  (31) 
-2.21466

>  <r_i_glide_lipo>  (31) 
-0.60823

>  <r_i_glide_hbond>  (31) 
-0.162627

>  <r_i_glide_metal>  (31) 
-0

>  <r_i_glide_rewards>  (31) 
-0.295767

>  <r_i_glide_evdw>  (31) 
-15.8527

>  <r_i_glide_ecoul>  (31) 
-3.01176

>  <r_i_glide_erotb>  (31) 
0.0963942

>  <r_i_glide_esite>  (31) 
-3.10201e-05

>  <r_i_glide_emodel>  (31) 
-17.1102

>  <r_i_glide_energy>  (31) 
-18.8645

>  <r_i_glide_einternal>  (31) 
1.27727

>  <r_i_glide_intrahb_reward>  (31) 
-0

>  <i_i_glide_confnum>  (31) 
2

>  <i_i_glide_posenum>  (31) 
1

>  <r_i_glide_eff_state_penalty>  (31) 
0

>  <ligand_id>  (31) 
11

>  <original_smiles>  (31) 
CC1=CC2OC(C)(C)C3(O)CCC(C)C4(C)C(n5cnnn5)C5(CO5)C4(C)C3(C)C2(C)CC1

>  <smiles>  (31) 
[H]OC12C([H])([H])C([H])([H])C([H])(C([H])([H])[H])C3(C([H])([H])[H])C([H])(n4nnnc4[H])C4(OC4([H])[H])C3(C([H])([H])[H])C1(C([H])([H])[H])C1(C([H])([H])[H])C([H])(OC2(C([H])([H])[H])C([H])([H])[H])C([H])=C(C([H])([H])[H])C([H])([H])C1([H])[H]

$$$$
12:0:0
     RDKit          3D

 29 35  0  0  1  0  0  0  0  0999 V2000
    7.0737   -3.4220    1.2764 O   0  0  0  0  0  0  0  0  0  0  0  0
    6.3794   -3.1940    0.2851 C   0  0  0  0  0  0  0  0  0  0  0  0
    5.9363   -1.7152   -0.1807 C   0  0  1  0  0  0  0  0  0  0  0  0
    5.9607   -2.8099   -0.9936 C   0  0  2  0  0  0  0  0  0  0  0  0
    4.4743   -3.6632   -0.4774 C   0  0  2  0  0  0  0  0  0  0  0  0
    5.7308   -4.1855   -0.7870 C   0  0  1  0  0  0  0  0  0  0  0  0
    5.4770   -3.4060   -2.1489 C   0  0  1  0  0  0  0  0  0  0  0  0
    4.2698   -2.4981   -2.5142 C   0  0  1  0  0  0  0  0  0  0  0  0
    3.6127   -3.1195   -3.7872 C   0  0  0  0  0  0  0  0  0  0  0  0
    2.2412   -2.6778   -3.5383 C   0  0  0  0  0  0  0  0  0  0  0  0
    2.6163   -2.1855   -2.2281 N   0  0  1  0  0  0  0  0  0  0  0  0
    3.0364   -3.3060   -1.1948 C   0  0  1  0  0  0  0  0  0  0  0  0
    3.4726   -2.0705   -0.9121 C   0  0  1  0  0  0  0  0  0  0  0  0
    4.6033   -1.1170   -0.8689 C   0  0  2  0  0  0  0  0  0  0  0  0
    3.8331   -1.2332   -2.2902 C   0  0  1  0  0  0  0  0  0  0  0  0
    6.8162   -1.0686   -0.2140 H   0  0  0  0  0  0  0  0  0  0  0  0
    6.3850   -2.2007   -1.8448 H   0  0  0  0  0  0  0  0  0  0  0  0
    4.2574   -3.8977    0.5831 H   0  0  0  0  0  0  0  0  0  0  0  0
    5.7763   -5.2689   -0.7201 H   0  0  0  0  0  0  0  0  0  0  0  0
    6.1764   -3.6916   -2.9530 H   0  0  0  0  0  0  0  0  0  0  0  0
    4.0375   -2.7323   -4.7122 H   0  0  0  0  0  0  0  0  0  0  0  0
    3.6646   -4.2118   -3.7941 H   0  0  0  0  0  0  0  0  0  0  0  0
    1.9344   -1.8781   -4.2179 H   0  0  0  0  0  0  0  0  0  0  0  0
    1.4918   -3.4600   -3.4609 H   0  0  0  0  0  0  0  0  0  0  0  0
    2.1912   -3.6129   -0.5843 H   0  0  0  0  0  0  0  0  0  0  0  0
    2.7131   -1.4242   -0.3488 H   0  0  0  0  0  0  0  0  0  0  0  0
    4.3317   -0.1568   -0.4192 H   0  0  0  0  0  0  0  0  0  0  0  0
    4.0452   -0.5615   -3.1244 H   0  0  0  0  0  0  0  0  0  0  0  0
    1.8493   -1.6516   -1.8069 H   0  0  0  0  0  0  0  0  0  0  0  0
  1  2  2  0
  2  6  1  0
  2  3  1  0
  3 14  1  0
  3  4  1  0
  3 16  1  6
  4  7  1  0
  4  5  1  0
  4 17  1  1
  5 12  1  0
  5  6  1  0
  5 18  1  1
  6  7  1  0
  6 19  1  6
  7  8  1  0
  7 20  1  6
  8 13  1  0
  8 15  1  0
  8  9  1  6
  9 10  1  0
  9 21  1  0
  9 22  1  0
 10 11  1  0
 10 23  1  0
 10 24  1  0
 11 15  1  0
 11 12  1  0
 11 29  1  1
 12 13  1  0
 12 25  1  1
 13 14  1  0
 13 26  1  6
 14 15  1  0
 14 27  1  1
 15 28  1  6
M  CHG  1  11   1
M  END
>  <i_m_ct_stereo_status>  (32) 
1

>  <s_m_source_file>  (32) 
/var/tmp/pbs.5076255.sched01/tmp7me73ahx/0ll6f151o.sdf

>  <i_m_source_file_index>  (32) 
15

>  <i_lp_mmshare_version>  (32) 
48012

>  <i_f3d_flags>  (32) 
0

>  <s_epik_input>  (32) 
Tz1DMVtDQEhdMltDQEBIXTNbQ0BIXShOKFtDQEhdNDUpW0NIMl1bQ0gyXTYpW0NIXTdbQ0BIXTVbQ0BASF0xW0NAQEhdM1tDQEBIXTJbQ0BAXTQ2Nw==

>  <s_epik_cmdline>  (32) 
J2VwaWtfcHl0aG9uJywgJy1waHQnLCAnMi4wJywgJy1waCcsICc3LjAnLCAnLXRuJywgJzgnLCAnLW1hJywgJzIwMCcsICctaW1hZScsICc8aW5maWxlLm1hZT4nLCAnLW9tYWUnLCAnPG91dGZpbGUubWFlPic=

>  <r_epik_Ionization_Penalty>  (32) 
0.000620034

>  <r_epik_Ionization_Penalty_Charging>  (32) 
0.000620034

>  <r_epik_Ionization_Penalty_Neutral>  (32) 
1.09667e-12

>  <r_epik_State_Penalty>  (32) 
0.000391379

>  <r_epik_Charging_Adjusted_Penalty>  (32) 
0.00101141

>  <i_epik_Tot_Q>  (32) 
1

>  <i_epik_Tot_abs_Q>  (32) 
1

>  <s_lp_Force_Field>  (32) 
OPLS3e

>  <r_lp_Energy>  (32) 
709.35

>  <b_lp_Chiralities_Consistent>  (32) 
1

>  <s_lp_Variant>  (32) 
12:0-1

>  <s_i_glide_gridfile>  (32) 
pfpi4k_grid

>  <i_i_glide_lignum>  (32) 
15

>  <i_i_glide_rotatable_bonds>  (32) 
0

>  <r_i_docking_score>  (32) 
-5.08987

>  <r_i_glide_ligand_efficiency>  (32) 
-0.339324

>  <r_i_glide_ligand_efficiency_sa>  (32) 
-0.836846

>  <r_i_glide_ligand_efficiency_ln>  (32) 
-1.37265

>  <r_i_glide_gscore>  (32) 
-5.08987

>  <r_i_glide_lipo>  (32) 
-0.798337

>  <r_i_glide_hbond>  (32) 
-0.2

>  <r_i_glide_metal>  (32) 
-0

>  <r_i_glide_rewards>  (32) 
-2.16079

>  <r_i_glide_evdw>  (32) 
-19.0553

>  <r_i_glide_ecoul>  (32) 
-6.0472

>  <r_i_glide_erotb>  (32) 
0

>  <r_i_glide_esite>  (32) 
-0.0708995

>  <r_i_glide_emodel>  (32) 
-34.5241

>  <r_i_glide_energy>  (32) 
-25.1025

>  <r_i_glide_einternal>  (32) 
0

>  <r_i_glide_intrahb_reward>  (32) 
-0

>  <i_i_glide_confnum>  (32) 
1

>  <i_i_glide_posenum>  (32) 
1

>  <r_i_glide_eff_state_penalty>  (32) 
0

>  <ligand_id>  (32) 
12

>  <original_smiles>  (32) 
O=C1C2C3C4C1C3C13CCN5C4C1C2C53

>  <smiles>  (32) 
[H]C1([H])C23C4([H])C5([H])C(=O)C6([H])C4([H])C5([H])C4([H])C2([H])C6([H])C3([H])[N+]4([H])C1([H])[H]

$$$$
12:0:1
     RDKit          3D

 29 35  0  0  1  0  0  0  0  0999 V2000
    6.3536   -4.4667    2.0090 O   0  0  0  0  0  0  0  0  0  0  0  0
    5.9553   -3.9286    0.9690 C   0  0  0  0  0  0  0  0  0  0  0  0
    5.8067   -2.3373    0.7795 C   0  0  1  0  0  0  0  0  0  0  0  0
    5.8658   -3.2334   -0.2492 C   0  0  2  0  0  0  0  0  0  0  0  0
    4.2241   -3.9283   -0.2395 C   0  0  2  0  0  0  0  0  0  0  0  0
    5.4548   -4.5578   -0.4257 C   0  0  1  0  0  0  0  0  0  0  0  0
    5.5962   -3.4747   -1.5857 C   0  0  1  0  0  0  0  0  0  0  0  0
    4.6033   -2.3228   -1.9477 C   0  0  1  0  0  0  0  0  0  0  0  0
    4.1766   -2.5657   -3.4349 C   0  0  0  0  0  0  0  0  0  0  0  0
    2.8553   -1.9701   -3.3558 C   0  0  0  0  0  0  0  0  0  0  0  0
    3.0137   -1.8198   -1.9157 N   0  0  1  0  0  0  0  0  0  0  0  0
    3.0389   -3.1870   -1.1154 C   0  0  1  0  0  0  0  0  0  0  0  0
    3.5242   -2.1232   -0.4737 C   0  0  1  0  0  0  0  0  0  0  0  0
    4.7232   -1.4004    0.0188 C   0  0  2  0  0  0  0  0  0  0  0  0
    4.3121   -1.0824   -1.5037 C   0  0  1  0  0  0  0  0  0  0  0  0
    6.7508   -1.8539    1.0474 H   0  0  0  0  0  0  0  0  0  0  0  0
    6.5350   -2.5454   -0.8356 H   0  0  0  0  0  0  0  0  0  0  0  0
    3.7504   -4.3276    0.6605 H   0  0  0  0  0  0  0  0  0  0  0  0
    5.3510   -5.6229   -0.6277 H   0  0  0  0  0  0  0  0  0  0  0  0
    6.4119   -3.7024   -2.2914 H   0  0  0  0  0  0  0  0  0  0  0  0
    4.8285   -2.0565   -4.1415 H   0  0  0  0  0  0  0  0  0  0  0  0
    4.0957   -3.6267   -3.6803 H   0  0  0  0  0  0  0  0  0  0  0  0
    2.7845   -0.9979   -3.8495 H   0  0  0  0  0  0  0  0  0  0  0  0
    2.0025   -2.6221   -3.6113 H   0  0  0  0  0  0  0  0  0  0  0  0
    2.0325   -3.4687   -0.7640 H   0  0  0  0  0  0  0  0  0  0  0  0
    2.7462   -1.4704    0.0675 H   0  0  0  0  0  0  0  0  0  0  0  0
    4.4802   -0.5221    0.6151 H   0  0  0  0  0  0  0  0  0  0  0  0
    4.7539   -0.3047   -2.0969 H   0  0  0  0  0  0  0  0  0  0  0  0
    2.2159   -1.3021   -1.5489 H   0  0  0  0  0  0  0  0  0  0  0  0
  1  2  2  0
  2  6  1  0
  2  3  1  0
  3 14  1  0
  3  4  1  0
  3 16  1  6
  4  7  1  0
  4  5  1  0
  4 17  1  1
  5 12  1  0
  5  6  1  0
  5 18  1  1
  6  7  1  0
  6 19  1  6
  7  8  1  0
  7 20  1  6
  8 13  1  0
  8 15  1  0
  8  9  1  6
  9 10  1  0
  9 21  1  0
  9 22  1  0
 10 11  1  0
 10 23  1  0
 10 24  1  0
 11 15  1  0
 11 12  1  0
 11 29  1  1
 12 13  1  0
 12 25  1  1
 13 14  1  0
 13 26  1  6
 14 15  1  0
 14 27  1  1
 15 28  1  6
M  CHG  1  11   1
M  END
>  <i_m_ct_stereo_status>  (33) 
1

>  <s_m_source_file>  (33) 
/var/tmp/pbs.5076255.sched01/tmp7me73ahx/0ll6f151o.sdf

>  <i_m_source_file_index>  (33) 
15

>  <i_lp_mmshare_version>  (33) 
48012

>  <i_f3d_flags>  (33) 
0

>  <s_epik_input>  (33) 
Tz1DMVtDQEhdMltDQEBIXTNbQ0BIXShOKFtDQEhdNDUpW0NIMl1bQ0gyXTYpW0NIXTdbQ0BIXTVbQ0BASF0xW0NAQEhdM1tDQEBIXTJbQ0BAXTQ2Nw==

>  <s_epik_cmdline>  (33) 
J2VwaWtfcHl0aG9uJywgJy1waHQnLCAnMi4wJywgJy1waCcsICc3LjAnLCAnLXRuJywgJzgnLCAnLW1hJywgJzIwMCcsICctaW1hZScsICc8aW5maWxlLm1hZT4nLCAnLW9tYWUnLCAnPG91dGZpbGUubWFlPic=

>  <r_epik_Ionization_Penalty>  (33) 
0.000620034

>  <r_epik_Ionization_Penalty_Charging>  (33) 
0.000620034

>  <r_epik_Ionization_Penalty_Neutral>  (33) 
1.09667e-12

>  <r_epik_State_Penalty>  (33) 
0.000391379

>  <r_epik_Charging_Adjusted_Penalty>  (33) 
0.00101141

>  <i_epik_Tot_Q>  (33) 
1

>  <i_epik_Tot_abs_Q>  (33) 
1

>  <s_lp_Force_Field>  (33) 
OPLS3e

>  <r_lp_Energy>  (33) 
709.35

>  <b_lp_Chiralities_Consistent>  (33) 
1

>  <s_lp_Variant>  (33) 
12:0-1

>  <s_i_glide_gridfile>  (33) 
pfpi4k_grid

>  <i_i_glide_lignum>  (33) 
15

>  <i_i_glide_rotatable_bonds>  (33) 
0

>  <r_i_docking_score>  (33) 
-4.84894

>  <r_i_glide_ligand_efficiency>  (33) 
-0.323262

>  <r_i_glide_ligand_efficiency_sa>  (33) 
-0.797234

>  <r_i_glide_ligand_efficiency_ln>  (33) 
-1.30768

>  <r_i_glide_gscore>  (33) 
-4.84894

>  <r_i_glide_lipo>  (33) 
-0.610208

>  <r_i_glide_hbond>  (33) 
-0.2

>  <r_i_glide_metal>  (33) 
-0

>  <r_i_glide_rewards>  (33) 
-2.15177

>  <r_i_glide_evdw>  (33) 
-19.6055

>  <r_i_glide_ecoul>  (33) 
-5.47209

>  <r_i_glide_erotb>  (33) 
0

>  <r_i_glide_esite>  (33) 
-0.0858663

>  <r_i_glide_emodel>  (33) 
-34.0112

>  <r_i_glide_energy>  (33) 
-25.0776

>  <r_i_glide_einternal>  (33) 
0

>  <r_i_glide_intrahb_reward>  (33) 
-0

>  <i_i_glide_confnum>  (33) 
1

>  <i_i_glide_posenum>  (33) 
4

>  <r_i_glide_eff_state_penalty>  (33) 
0

>  <ligand_id>  (33) 
12

>  <original_smiles>  (33) 
O=C1C2C3C4C1C3C13CCN5C4C1C2C53

>  <smiles>  (33) 
[H]C1([H])C23C4([H])C5([H])C(=O)C6([H])C4([H])C5([H])C4([H])C2([H])C6([H])C3([H])[N+]4([H])C1([H])[H]

$$$$
12:0:2
     RDKit          3D

 29 35  0  0  1  0  0  0  0  0999 V2000
    5.2487   -1.1098    3.0729 O   0  0  0  0  0  0  0  0  0  0  0  0
    4.9302   -1.3413    1.9019 C   0  0  0  0  0  0  0  0  0  0  0  0
    3.5706   -2.0806    1.4853 C   0  0  1  0  0  0  0  0  0  0  0  0
    4.3318   -1.3405    0.6331 C   0  0  2  0  0  0  0  0  0  0  0  0
    5.6659   -2.4418    0.2318 C   0  0  2  0  0  0  0  0  0  0  0  0
    5.6966   -1.0677    0.5075 C   0  0  1  0  0  0  0  0  0  0  0  0
    4.6415   -1.0506   -0.6883 C   0  0  1  0  0  0  0  0  0  0  0  0
    4.0301   -2.2561   -1.4484 C   0  0  1  0  0  0  0  0  0  0  0  0
    4.3855   -2.0536   -2.9600 C   0  0  0  0  0  0  0  0  0  0  0  0
    4.4388   -3.4540   -3.3455 C   0  0  0  0  0  0  0  0  0  0  0  0
    4.2855   -3.8611   -1.9614 N   0  0  1  0  0  0  0  0  0  0  0  0
    5.5118   -3.5089   -1.0139 C   0  0  1  0  0  0  0  0  0  0  0  0
    4.3304   -3.7261   -0.4036 C   0  0  1  0  0  0  0  0  0  0  0  0
    3.1883   -3.1600    0.3413 C   0  0  2  0  0  0  0  0  0  0  0  0
    3.0643   -3.1825   -1.2776 C   0  0  1  0  0  0  0  0  0  0  0  0
    2.7192   -1.5578    1.9424 H   0  0  0  0  0  0  0  0  0  0  0  0
    3.4081   -0.8736    0.1787 H   0  0  0  0  0  0  0  0  0  0  0  0
    6.2412   -2.9582    1.0186 H   0  0  0  0  0  0  0  0  0  0  0  0
    6.6896   -0.6489    0.4210 H   0  0  0  0  0  0  0  0  0  0  0  0
    4.4767   -0.0407   -1.0934 H   0  0  0  0  0  0  0  0  0  0  0  0
    3.6401   -1.4757   -3.5092 H   0  0  0  0  0  0  0  0  0  0  0  0
    5.3747   -1.6084   -3.0829 H   0  0  0  0  0  0  0  0  0  0  0  0
    3.5783   -3.7634   -3.9435 H   0  0  0  0  0  0  0  0  0  0  0  0
    5.3800   -3.8177   -3.7626 H   0  0  0  0  0  0  0  0  0  0  0  0
    6.1984   -4.3372   -0.9269 H   0  0  0  0  0  0  0  0  0  0  0  0
    4.0908   -4.8378   -0.2076 H   0  0  0  0  0  0  0  0  0  0  0  0
    2.5107   -3.9251    0.7237 H   0  0  0  0  0  0  0  0  0  0  0  0
    2.1416   -2.9202   -1.7883 H   0  0  0  0  0  0  0  0  0  0  0  0
    4.0892   -4.8423   -1.9410 H   0  0  0  0  0  0  0  0  0  0  0  0
  1  2  2  0
  2  6  1  0
  2  3  1  0
  3 14  1  0
  3  4  1  0
  3 16  1  1
  4  7  1  0
  4  5  1  0
  4 17  1  1
  5 12  1  0
  5  6  1  0
  5 18  1  1
  6  7  1  0
  6 19  1  1
  7  8  1  0
  7 20  1  6
  8 13  1  0
  8 15  1  0
  8  9  1  6
  9 10  1  0
  9 21  1  0
  9 22  1  0
 10 11  1  0
 10 23  1  0
 10 24  1  0
 11 15  1  0
 11 12  1  0
 11 29  1  6
 12 13  1  0
 12 25  1  1
 13 14  1  0
 13 26  1  6
 14 15  1  0
 14 27  1  1
 15 28  1  1
M  CHG  1  11   1
M  END
>  <i_m_ct_stereo_status>  (34) 
1

>  <s_m_source_file>  (34) 
/var/tmp/pbs.5076255.sched01/tmp7me73ahx/0ll6f151o.sdf

>  <i_m_source_file_index>  (34) 
15

>  <i_lp_mmshare_version>  (34) 
48012

>  <i_f3d_flags>  (34) 
0

>  <s_epik_input>  (34) 
Tz1DMVtDQEhdMltDQEBIXTNbQ0BIXShOKFtDQEhdNDUpW0NIMl1bQ0gyXTYpW0NIXTdbQ0BIXTVbQ0BASF0xW0NAQEhdM1tDQEBIXTJbQ0BAXTQ2Nw==

>  <s_epik_cmdline>  (34) 
J2VwaWtfcHl0aG9uJywgJy1waHQnLCAnMi4wJywgJy1waCcsICc3LjAnLCAnLXRuJywgJzgnLCAnLW1hJywgJzIwMCcsICctaW1hZScsICc8aW5maWxlLm1hZT4nLCAnLW9tYWUnLCAnPG91dGZpbGUubWFlPic=

>  <r_epik_Ionization_Penalty>  (34) 
0.000620034

>  <r_epik_Ionization_Penalty_Charging>  (34) 
0.000620034

>  <r_epik_Ionization_Penalty_Neutral>  (34) 
1.09667e-12

>  <r_epik_State_Penalty>  (34) 
0.000391379

>  <r_epik_Charging_Adjusted_Penalty>  (34) 
0.00101141

>  <i_epik_Tot_Q>  (34) 
1

>  <i_epik_Tot_abs_Q>  (34) 
1

>  <s_lp_Force_Field>  (34) 
OPLS3e

>  <r_lp_Energy>  (34) 
709.35

>  <b_lp_Chiralities_Consistent>  (34) 
1

>  <s_lp_Variant>  (34) 
12:0-1

>  <s_i_glide_gridfile>  (34) 
pfpi4k_grid

>  <i_i_glide_lignum>  (34) 
15

>  <i_i_glide_rotatable_bonds>  (34) 
0

>  <r_i_docking_score>  (34) 
-4.39045

>  <r_i_glide_ligand_efficiency>  (34) 
-0.292696

>  <r_i_glide_ligand_efficiency_sa>  (34) 
-0.721852

>  <r_i_glide_ligand_efficiency_ln>  (34) 
-1.18403

>  <r_i_glide_gscore>  (34) 
-4.39045

>  <r_i_glide_lipo>  (34) 
-0.495671

>  <r_i_glide_hbond>  (34) 
0

>  <r_i_glide_metal>  (34) 
-0

>  <r_i_glide_rewards>  (34) 
-2.14874

>  <r_i_glide_evdw>  (34) 
-19.7719

>  <r_i_glide_ecoul>  (34) 
-4.78902

>  <r_i_glide_erotb>  (34) 
0

>  <r_i_glide_esite>  (34) 
-0.0390912

>  <r_i_glide_emodel>  (34) 
-32.6447

>  <r_i_glide_energy>  (34) 
-24.5609

>  <r_i_glide_einternal>  (34) 
0

>  <r_i_glide_intrahb_reward>  (34) 
-0

>  <i_i_glide_confnum>  (34) 
2

>  <i_i_glide_posenum>  (34) 
34

>  <r_i_glide_eff_state_penalty>  (34) 
0

>  <ligand_id>  (34) 
12

>  <original_smiles>  (34) 
O=C1C2C3C4C1C3C13CCN5C4C1C2C53

>  <smiles>  (34) 
[H]C1([H])C23C4([H])C5([H])C(=O)C6([H])C4([H])C5([H])C4([H])C2([H])C6([H])C3([H])[N+]4([H])C1([H])[H]

$$$$
13:0:0
     RDKit          3D

 16 17  0  0  1  0  0  0  0  0999 V2000
   -4.5667  -10.3005   -5.9123 Cl  0  0  0  0  0  0  0  0  0  0  0  0
   -4.2558   -8.8010   -4.9887 C   0  0  0  0  0  0  0  0  0  0  0  0
   -5.2867   -7.7603   -5.2838 C   0  0  0  0  0  0  0  0  0  0  0  0
   -6.1622   -7.7817   -6.3004 N   0  0  0  0  0  0  0  0  0  0  0  0
   -6.8978   -6.6288   -6.1148 C   0  0  0  0  0  0  0  0  0  0  0  0
   -7.9082   -6.1783   -6.8634 N   0  0  0  0  0  0  0  0  0  0  0  0
   -8.4655   -5.0046   -6.4732 C   0  0  0  0  0  0  0  0  0  0  0  0
   -8.0420   -4.2489   -5.3567 C   0  0  0  0  0  0  0  0  0  0  0  0
   -6.9675   -4.7270   -4.5818 C   0  0  0  0  0  0  0  0  0  0  0  0
   -6.4022   -5.9421   -4.9865 C   0  0  0  0  0  0  0  0  0  0  0  0
   -5.3581   -6.6710   -4.4521 O   0  0  0  0  0  0  0  0  0  0  0  0
   -4.2699   -9.0468   -3.9270 H   0  0  0  0  0  0  0  0  0  0  0  0
   -3.2641   -8.4293   -5.2448 H   0  0  0  0  0  0  0  0  0  0  0  0
   -9.2822   -4.6458   -7.0825 H   0  0  0  0  0  0  0  0  0  0  0  0
   -8.5273   -3.3175   -5.1118 H   0  0  0  0  0  0  0  0  0  0  0  0
   -6.5994   -4.1881   -3.7212 H   0  0  0  0  0  0  0  0  0  0  0  0
  1  2  1  0
  2  3  1  0
  2 12  1  0
  2 13  1  0
  3 11  1  0
  3  4  2  0
  4  5  1  0
  5 10  2  0
  5  6  1  0
  6  7  2  0
  7  8  1  0
  7 14  1  0
  8  9  2  0
  8 15  1  0
  9 10  1  0
  9 16  1  0
 10 11  1  0
M  END
>  <i_m_ct_stereo_status>  (35) 
1

>  <s_m_source_file>  (35) 
/var/tmp/pbs.5076255.sched01/tmp7me73ahx/0ll6f151o.sdf

>  <i_m_source_file_index>  (35) 
16

>  <i_lp_mmshare_version>  (35) 
48012

>  <i_f3d_flags>  (35) 
0

>  <s_epik_input>  (35) 
Q2xbQ0gyXWMobjEpb2MoYzEyKVtjSF1bY0hdW2NIXW4y

>  <s_epik_cmdline>  (35) 
J2VwaWtfcHl0aG9uJywgJy1waHQnLCAnMi4wJywgJy1waCcsICc3LjAnLCAnLXRuJywgJzgnLCAnLW1hJywgJzIwMCcsICctaW1hZScsICc8aW5maWxlLm1hZT4nLCAnLW9tYWUnLCAnPG91dGZpbGUubWFlPic=

>  <r_lp_tautomer_probability>  (35) 
1

>  <r_epik_Ionization_Penalty>  (35) 
1.04174e-08

>  <r_epik_Ionization_Penalty_Charging>  (35) 
0

>  <r_epik_Ionization_Penalty_Neutral>  (35) 
1.04174e-08

>  <r_epik_State_Penalty>  (35) 
-0

>  <r_epik_Charging_Adjusted_Penalty>  (35) 
0

>  <i_epik_Tot_Q>  (35) 
0

>  <i_epik_Tot_abs_Q>  (35) 
0

>  <s_lp_Force_Field>  (35) 
OPLS3e

>  <r_lp_Energy>  (35) 
11.7705

>  <b_lp_Chiralities_Consistent>  (35) 
1

>  <s_lp_Variant>  (35) 
13:0-1

>  <s_i_glide_gridfile>  (35) 
pfpi4k_grid

>  <i_i_glide_lignum>  (35) 
16

>  <i_i_glide_rotatable_bonds>  (35) 
1

>  <r_i_docking_score>  (35) 
-6.63274

>  <r_i_glide_ligand_efficiency>  (35) 
-0.602976

>  <r_i_glide_ligand_efficiency_sa>  (35) 
-1.34101

>  <r_i_glide_ligand_efficiency_ln>  (35) 
-1.95201

>  <r_i_glide_gscore>  (35) 
-6.63274

>  <r_i_glide_lipo>  (35) 
-1.73647

>  <r_i_glide_hbond>  (35) 
-0.0715434

>  <r_i_glide_metal>  (35) 
-0

>  <r_i_glide_rewards>  (35) 
-3.30922

>  <r_i_glide_evdw>  (35) 
-23.3913

>  <r_i_glide_ecoul>  (35) 
-2.30622

>  <r_i_glide_erotb>  (35) 
0

>  <r_i_glide_esite>  (35) 
0

>  <r_i_glide_emodel>  (35) 
-35.5944

>  <r_i_glide_energy>  (35) 
-25.6975

>  <r_i_glide_einternal>  (35) 
1.27862

>  <r_i_glide_intrahb_reward>  (35) 
-0

>  <i_i_glide_confnum>  (35) 
1

>  <i_i_glide_posenum>  (35) 
1

>  <r_i_glide_eff_state_penalty>  (35) 
0

>  <ligand_id>  (35) 
13

>  <original_smiles>  (35) 
ClCc1nc2ncccc2o1

>  <smiles>  (35) 
[H]c1nc2nc(C([H])([H])Cl)oc2c([H])c1[H]

$$$$
13:0:1
     RDKit          3D

 16 17  0  0  1  0  0  0  0  0999 V2000
   -4.7851  -10.6776   -7.0617 Cl  0  0  0  0  0  0  0  0  0  0  0  0
   -4.4036   -9.7657   -5.5747 C   0  0  0  0  0  0  0  0  0  0  0  0
   -5.1628   -8.4815   -5.5266 C   0  0  0  0  0  0  0  0  0  0  0  0
   -6.4337   -8.2972   -5.9254 N   0  0  0  0  0  0  0  0  0  0  0  0
   -6.6613   -6.9587   -5.6713 C   0  0  0  0  0  0  0  0  0  0  0  0
   -7.7780   -6.2563   -5.8989 N   0  0  0  0  0  0  0  0  0  0  0  0
   -7.7503   -4.9479   -5.5359 C   0  0  0  0  0  0  0  0  0  0  0  0
   -6.6306   -4.2975   -4.9699 C   0  0  0  0  0  0  0  0  0  0  0  0
   -5.4603   -5.0449   -4.7531 C   0  0  0  0  0  0  0  0  0  0  0  0
   -5.4965   -6.3958   -5.1143 C   0  0  0  0  0  0  0  0  0  0  0  0
   -4.5273   -7.3779   -5.0282 O   0  0  0  0  0  0  0  0  0  0  0  0
   -4.6560  -10.3867   -4.7188 H   0  0  0  0  0  0  0  0  0  0  0  0
   -3.3308   -9.5712   -5.5478 H   0  0  0  0  0  0  0  0  0  0  0  0
   -8.6592   -4.3905   -5.7145 H   0  0  0  0  0  0  0  0  0  0  0  0
   -6.6699   -3.2494   -4.7131 H   0  0  0  0  0  0  0  0  0  0  0  0
   -4.5784   -4.5934   -4.3309 H   0  0  0  0  0  0  0  0  0  0  0  0
  1  2  1  0
  2  3  1  0
  2 12  1  0
  2 13  1  0
  3 11  1  0
  3  4  2  0
  4  5  1  0
  5 10  2  0
  5  6  1  0
  6  7  2  0
  7  8  1  0
  7 14  1  0
  8  9  2  0
  8 15  1  0
  9 10  1  0
  9 16  1  0
 10 11  1  0
M  END
>  <i_m_ct_stereo_status>  (36) 
1

>  <s_m_source_file>  (36) 
/var/tmp/pbs.5076255.sched01/tmp7me73ahx/0ll6f151o.sdf

>  <i_m_source_file_index>  (36) 
16

>  <i_lp_mmshare_version>  (36) 
48012

>  <i_f3d_flags>  (36) 
0

>  <s_epik_input>  (36) 
Q2xbQ0gyXWMobjEpb2MoYzEyKVtjSF1bY0hdW2NIXW4y

>  <s_epik_cmdline>  (36) 
J2VwaWtfcHl0aG9uJywgJy1waHQnLCAnMi4wJywgJy1waCcsICc3LjAnLCAnLXRuJywgJzgnLCAnLW1hJywgJzIwMCcsICctaW1hZScsICc8aW5maWxlLm1hZT4nLCAnLW9tYWUnLCAnPG91dGZpbGUubWFlPic=

>  <r_lp_tautomer_probability>  (36) 
1

>  <r_epik_Ionization_Penalty>  (36) 
1.04174e-08

>  <r_epik_Ionization_Penalty_Charging>  (36) 
0

>  <r_epik_Ionization_Penalty_Neutral>  (36) 
1.04174e-08

>  <r_epik_State_Penalty>  (36) 
-0

>  <r_epik_Charging_Adjusted_Penalty>  (36) 
0

>  <i_epik_Tot_Q>  (36) 
0

>  <i_epik_Tot_abs_Q>  (36) 
0

>  <s_lp_Force_Field>  (36) 
OPLS3e

>  <r_lp_Energy>  (36) 
11.7705

>  <b_lp_Chiralities_Consistent>  (36) 
1

>  <s_lp_Variant>  (36) 
13:0-1

>  <s_i_glide_gridfile>  (36) 
pfpi4k_grid

>  <i_i_glide_lignum>  (36) 
16

>  <i_i_glide_rotatable_bonds>  (36) 
1

>  <r_i_docking_score>  (36) 
-6.41425

>  <r_i_glide_ligand_efficiency>  (36) 
-0.583114

>  <r_i_glide_ligand_efficiency_sa>  (36) 
-1.29683

>  <r_i_glide_ligand_efficiency_ln>  (36) 
-1.88771

>  <r_i_glide_gscore>  (36) 
-6.41425

>  <r_i_glide_lipo>  (36) 
-1.53099

>  <r_i_glide_hbond>  (36) 
-0.106449

>  <r_i_glide_metal>  (36) 
-0

>  <r_i_glide_rewards>  (36) 
-3.31663

>  <r_i_glide_evdw>  (36) 
-21.6791

>  <r_i_glide_ecoul>  (36) 
-2.50814

>  <r_i_glide_erotb>  (36) 
0

>  <r_i_glide_esite>  (36) 
0

>  <r_i_glide_emodel>  (36) 
-34.1116

>  <r_i_glide_energy>  (36) 
-24.1873

>  <r_i_glide_einternal>  (36) 
0.48317

>  <r_i_glide_intrahb_reward>  (36) 
-0

>  <i_i_glide_confnum>  (36) 
2

>  <i_i_glide_posenum>  (36) 
6

>  <r_i_glide_eff_state_penalty>  (36) 
0

>  <ligand_id>  (36) 
13

>  <original_smiles>  (36) 
ClCc1nc2ncccc2o1

>  <smiles>  (36) 
[H]c1nc2nc(C([H])([H])Cl)oc2c([H])c1[H]

$$$$
13:0:2
     RDKit          3D

 16 17  0  0  1  0  0  0  0  0999 V2000
   -0.0222   -3.5252    5.6771 Cl  0  0  0  0  0  0  0  0  0  0  0  0
    0.2701   -2.2015    4.5102 C   0  0  0  0  0  0  0  0  0  0  0  0
   -0.4344   -0.9462    4.9098 C   0  0  0  0  0  0  0  0  0  0  0  0
   -1.0587   -0.7269    6.0761 N   0  0  0  0  0  0  0  0  0  0  0  0
   -1.4996    0.5735    5.9616 C   0  0  0  0  0  0  0  0  0  0  0  0
   -2.1858    1.2708    6.8717 N   0  0  0  0  0  0  0  0  0  0  0  0
   -2.5094    2.5436    6.5181 C   0  0  0  0  0  0  0  0  0  0  0  0
   -2.1851    3.1392    5.2757 C   0  0  0  0  0  0  0  0  0  0  0  0
   -1.4687    2.3849    4.3244 C   0  0  0  0  0  0  0  0  0  0  0  0
   -1.1281    1.0801    4.7000 C   0  0  0  0  0  0  0  0  0  0  0  0
   -0.4404    0.0949    4.0174 O   0  0  0  0  0  0  0  0  0  0  0  0
    1.3432   -2.0248    4.4537 H   0  0  0  0  0  0  0  0  0  0  0  0
   -0.0858   -2.5246    3.5307 H   0  0  0  0  0  0  0  0  0  0  0  0
   -3.0701    3.1054    7.2515 H   0  0  0  0  0  0  0  0  0  0  0  0
   -2.4925    4.1459    5.0533 H   0  0  0  0  0  0  0  0  0  0  0  0
   -1.1974    2.7880    3.3588 H   0  0  0  0  0  0  0  0  0  0  0  0
  1  2  1  0
  2  3  1  0
  2 12  1  0
  2 13  1  0
  3 11  1  0
  3  4  2  0
  4  5  1  0
  5 10  2  0
  5  6  1  0
  6  7  2  0
  7  8  1  0
  7 14  1  0
  8  9  2  0
  8 15  1  0
  9 10  1  0
  9 16  1  0
 10 11  1  0
M  END
>  <i_m_ct_stereo_status>  (37) 
1

>  <s_m_source_file>  (37) 
/var/tmp/pbs.5076255.sched01/tmp7me73ahx/0ll6f151o.sdf

>  <i_m_source_file_index>  (37) 
16

>  <i_lp_mmshare_version>  (37) 
48012

>  <i_f3d_flags>  (37) 
0

>  <s_epik_input>  (37) 
Q2xbQ0gyXWMobjEpb2MoYzEyKVtjSF1bY0hdW2NIXW4y

>  <s_epik_cmdline>  (37) 
J2VwaWtfcHl0aG9uJywgJy1waHQnLCAnMi4wJywgJy1waCcsICc3LjAnLCAnLXRuJywgJzgnLCAnLW1hJywgJzIwMCcsICctaW1hZScsICc8aW5maWxlLm1hZT4nLCAnLW9tYWUnLCAnPG91dGZpbGUubWFlPic=

>  <r_lp_tautomer_probability>  (37) 
1

>  <r_epik_Ionization_Penalty>  (37) 
1.04174e-08

>  <r_epik_Ionization_Penalty_Charging>  (37) 
0

>  <r_epik_Ionization_Penalty_Neutral>  (37) 
1.04174e-08

>  <r_epik_State_Penalty>  (37) 
-0

>  <r_epik_Charging_Adjusted_Penalty>  (37) 
0

>  <i_epik_Tot_Q>  (37) 
0

>  <i_epik_Tot_abs_Q>  (37) 
0

>  <s_lp_Force_Field>  (37) 
OPLS3e

>  <r_lp_Energy>  (37) 
11.7705

>  <b_lp_Chiralities_Consistent>  (37) 
1

>  <s_lp_Variant>  (37) 
13:0-1

>  <s_i_glide_gridfile>  (37) 
pfpi4k_grid

>  <i_i_glide_lignum>  (37) 
16

>  <i_i_glide_rotatable_bonds>  (37) 
1

>  <r_i_docking_score>  (37) 
-4.1158

>  <r_i_glide_ligand_efficiency>  (37) 
-0.374164

>  <r_i_glide_ligand_efficiency_sa>  (37) 
-0.832133

>  <r_i_glide_ligand_efficiency_ln>  (37) 
-1.21128

>  <r_i_glide_gscore>  (37) 
-4.1158

>  <r_i_glide_lipo>  (37) 
-0.185506

>  <r_i_glide_hbond>  (37) 
-0.142903

>  <r_i_glide_metal>  (37) 
-0

>  <r_i_glide_rewards>  (37) 
-2.25

>  <r_i_glide_evdw>  (37) 
-12.6409

>  <r_i_glide_ecoul>  (37) 
-5.64247

>  <r_i_glide_erotb>  (37) 
0

>  <r_i_glide_esite>  (37) 
-0.0589783

>  <r_i_glide_emodel>  (37) 
-24.1797

>  <r_i_glide_energy>  (37) 
-18.2833

>  <r_i_glide_einternal>  (37) 
1.28524

>  <r_i_glide_intrahb_reward>  (37) 
-0

>  <i_i_glide_confnum>  (37) 
2

>  <i_i_glide_posenum>  (37) 
11

>  <r_i_glide_eff_state_penalty>  (37) 
0

>  <ligand_id>  (37) 
13

>  <original_smiles>  (37) 
ClCc1nc2ncccc2o1

>  <smiles>  (37) 
[H]c1nc2nc(C([H])([H])Cl)oc2c([H])c1[H]

$$$$
14:0:0
     RDKit          3D

 46 48  0  0  1  0  0  0  0  0999 V2000
   -0.2789    1.3193    2.0970 C   0  0  0  0  0  0  0  0  0  0  0  0
    1.2599    0.9125    3.0077 S   0  0  0  0  0  0  0  0  0  0  0  0
    2.3697    1.5927    2.3289 O   0  0  0  0  0  0  0  0  0  0  0  0
    1.0120    1.1442    4.4361 O   0  0  0  0  0  0  0  0  0  0  0  0
    1.4388   -0.8022    2.7693 N   0  0  0  0  0  0  0  0  0  0  0  0
    0.9204   -1.7730    3.7519 C   0  0  0  0  0  0  0  0  0  0  0  0
    2.0393   -2.6676    4.3134 C   0  0  0  0  0  0  0  0  0  0  0  0
    2.8311   -3.1963    3.2540 O   0  0  0  0  0  0  0  0  0  0  0  0
    3.4728   -2.2061    2.4509 C   0  0  1  0  0  0  0  0  0  0  0  0
    4.4323   -1.3653    3.3179 C   0  0  0  0  0  0  0  0  0  0  0  0
    5.2719   -0.4222    2.4616 C   0  0  0  0  0  0  0  0  0  0  0  0
    6.0041   -1.1811    1.3459 C   0  0  0  0  0  0  0  0  0  0  0  0
    5.0872   -2.0473    0.5763 N   0  0  0  0  0  0  0  0  0  0  0  0
    5.0415   -1.9977   -0.7688 C   0  0  0  0  0  0  0  0  0  0  0  0
    5.6544   -1.1311   -1.4000 O   0  0  0  0  0  0  0  0  0  0  0  0
    4.2171   -3.0136   -1.5779 C   0  0  0  0  0  0  0  0  0  0  0  0
    5.0618   -3.7378   -2.6559 C   0  0  0  0  0  0  0  0  0  0  0  0
    4.3211   -3.4708   -3.9302 C   0  0  0  0  0  0  0  0  0  0  0  0
    3.2523   -2.6908   -3.7660 C   0  0  0  0  0  0  0  0  0  0  0  0
    3.0560   -2.2970   -2.3332 C   0  0  0  0  0  0  0  0  0  0  0  0
    4.3015   -2.9900    1.4094 C   0  0  0  0  0  0  0  0  0  0  0  0
    2.3718   -1.3449    1.7650 C   0  0  0  0  0  0  0  0  0  0  0  0
   -0.4522    2.3989    2.1692 H   0  0  0  0  0  0  0  0  0  0  0  0
   -1.1289    0.7821    2.5218 H   0  0  0  0  0  0  0  0  0  0  0  0
   -0.1545    1.0736    1.0398 H   0  0  0  0  0  0  0  0  0  0  0  0
    0.4162   -1.2661    4.5717 H   0  0  0  0  0  0  0  0  0  0  0  0
    0.1842   -2.4049    3.2619 H   0  0  0  0  0  0  0  0  0  0  0  0
    2.6536   -2.1303    5.0332 H   0  0  0  0  0  0  0  0  0  0  0  0
    1.6208   -3.4942    4.8882 H   0  0  0  0  0  0  0  0  0  0  0  0
    3.9129   -0.7599    4.0616 H   0  0  0  0  0  0  0  0  0  0  0  0
    5.0962   -2.0426    3.8600 H   0  0  0  0  0  0  0  0  0  0  0  0
    4.6375    0.3397    2.0083 H   0  0  0  0  0  0  0  0  0  0  0  0
    5.9741    0.1124    3.1112 H   0  0  0  0  0  0  0  0  0  0  0  0
    6.5439   -0.4431    0.7453 H   0  0  0  0  0  0  0  0  0  0  0  0
    6.7677   -1.8061    1.7984 H   0  0  0  0  0  0  0  0  0  0  0  0
    3.7866   -3.8230   -1.0024 H   0  0  0  0  0  0  0  0  0  0  0  0
    6.1052   -3.4351   -2.7263 H   0  0  0  0  0  0  0  0  0  0  0  0
    5.0260   -4.8104   -2.4670 H   0  0  0  0  0  0  0  0  0  0  0  0
    4.6485   -3.9031   -4.8623 H   0  0  0  0  0  0  0  0  0  0  0  0
    2.5836   -2.3668   -4.5429 H   0  0  0  0  0  0  0  0  0  0  0  0
    2.0914   -2.6604   -1.9642 H   0  0  0  0  0  0  0  0  0  0  0  0
    3.0537   -1.2092   -2.2399 H   0  0  0  0  0  0  0  0  0  0  0  0
    4.9930   -3.6896    1.8974 H   0  0  0  0  0  0  0  0  0  0  0  0
    3.5840   -3.6063    0.8814 H   0  0  0  0  0  0  0  0  0  0  0  0
    1.8038   -1.9441    1.0538 H   0  0  0  0  0  0  0  0  0  0  0  0
    2.7917   -0.5441    1.1555 H   0  0  0  0  0  0  0  0  0  0  0  0
  1  2  1  0
  1 23  1  0
  1 24  1  0
  1 25  1  0
  2  3  2  0
  2  4  2  0
  2  5  1  0
  5 22  1  0
  5  6  1  0
  6  7  1  0
  6 26  1  0
  6 27  1  0
  7  8  1  0
  7 28  1  0
  7 29  1  0
  9  8  1  1
  9 21  1  0
  9 10  1  0
  9 22  1  0
 10 11  1  0
 10 30  1  0
 10 31  1  0
 11 12  1  0
 11 32  1  0
 11 33  1  0
 12 13  1  0
 12 34  1  0
 12 35  1  0
 13 14  1  0
 13 21  1  0
 14 15  2  0
 14 16  1  0
 16 20  1  0
 16 17  1  0
 16 36  1  0
 17 18  1  0
 17 37  1  0
 17 38  1  0
 18 19  2  0
 18 39  1  0
 19 20  1  0
 19 40  1  0
 20 41  1  0
 20 42  1  0
 21 43  1  0
 21 44  1  0
 22 45  1  0
 22 46  1  0
M  END
>  <i_m_ct_stereo_status>  (38) 
1

>  <s_m_source_file>  (38) 
/var/tmp/pbs.5076255.sched01/tmp7me73ahx/0ll6f151o.sdf

>  <i_m_source_file_index>  (38) 
17

>  <i_lp_mmshare_version>  (38) 
48012

>  <i_f3d_flags>  (38) 
0

>  <s_epik_input>  (38) 
W0NIM11TKD1PKSg9TylOKFtDSDJdMSlbQ0gyXVtDSDJdT1tDQF0xMltDSDJdW0NIMl1bQ0gyXU4oW0NIMl0yKUMoPU8pW0NIXTNbQ0gyXVtDSF09W0NIXVtDSDJdMw==

>  <s_epik_cmdline>  (38) 
J2VwaWtfcHl0aG9uJywgJy1waHQnLCAnMi4wJywgJy1waCcsICc3LjAnLCAnLXRuJywgJzgnLCAnLW1hJywgJzIwMCcsICctaW1hZScsICc8aW5maWxlLm1hZT4nLCAnLW9tYWUnLCAnPG91dGZpbGUubWFlPic=

>  <r_lp_tautomer_probability>  (38) 
1

>  <r_epik_Ionization_Penalty>  (38) 
9.24425e-09

>  <r_epik_Ionization_Penalty_Charging>  (38) 
0

>  <r_epik_Ionization_Penalty_Neutral>  (38) 
9.24425e-09

>  <r_epik_State_Penalty>  (38) 
-0

>  <r_epik_Charging_Adjusted_Penalty>  (38) 
0

>  <i_epik_Tot_Q>  (38) 
0

>  <i_epik_Tot_abs_Q>  (38) 
0

>  <s_lp_Force_Field>  (38) 
OPLS3e

>  <r_lp_Energy>  (38) 
29.076

>  <b_lp_Chiralities_Consistent>  (38) 
1

>  <s_lp_Variant>  (38) 
14:0-1

>  <s_i_glide_gridfile>  (38) 
pfpi4k_grid

>  <i_i_glide_lignum>  (38) 
17

>  <i_i_glide_rotatable_bonds>  (38) 
3

>  <r_i_docking_score>  (38) 
-3.67947

>  <r_i_glide_ligand_efficiency>  (38) 
-0.167249

>  <r_i_glide_ligand_efficiency_sa>  (38) 
-0.468637

>  <r_i_glide_ligand_efficiency_ln>  (38) 
-0.899397

>  <r_i_glide_gscore>  (38) 
-3.67947

>  <r_i_glide_lipo>  (38) 
-0.618839

>  <r_i_glide_hbond>  (38) 
-0.0453664

>  <r_i_glide_metal>  (38) 
-0

>  <r_i_glide_rewards>  (38) 
-1.22141

>  <r_i_glide_evdw>  (38) 
-29.5917

>  <r_i_glide_ecoul>  (38) 
-3.92247

>  <r_i_glide_erotb>  (38) 
0.348239

>  <r_i_glide_esite>  (38) 
-0.0741448

>  <r_i_glide_emodel>  (38) 
-40.3504

>  <r_i_glide_energy>  (38) 
-33.5142

>  <r_i_glide_einternal>  (38) 
2.62759

>  <r_i_glide_intrahb_reward>  (38) 
-0

>  <i_i_glide_confnum>  (38) 
3

>  <i_i_glide_posenum>  (38) 
14

>  <r_i_glide_eff_state_penalty>  (38) 
0

>  <ligand_id>  (38) 
14

>  <original_smiles>  (38) 
CS(=O)(=O)N1CCOC2(CCCN(C(=O)C3CC=CC3)C2)C1

>  <smiles>  (38) 
[H]C1=C([H])C([H])([H])C([H])(C(=O)N2C([H])([H])C([H])([H])C([H])([H])C3(OC([H])([H])C([H])([H])N(S(=O)(=O)C([H])([H])[H])C3([H])[H])C2([H])[H])C1([H])[H]

$$$$
14:0:1
     RDKit          3D

 46 48  0  0  1  0  0  0  0  0999 V2000
    7.7355   -4.0223    0.6720 C   0  0  0  0  0  0  0  0  0  0  0  0
    6.9277   -2.6397   -0.1830 S   0  0  0  0  0  0  0  0  0  0  0  0
    7.3965   -1.4058    0.4491 O   0  0  0  0  0  0  0  0  0  0  0  0
    7.1355   -2.8197   -1.6285 O   0  0  0  0  0  0  0  0  0  0  0  0
    5.2383   -2.7852    0.1134 N   0  0  0  0  0  0  0  0  0  0  0  0
    4.5037   -1.9050    1.0481 C   0  0  0  0  0  0  0  0  0  0  0  0
    3.8309   -2.6957    2.1788 C   0  0  0  0  0  0  0  0  0  0  0  0
    3.1126   -3.8074    1.6419 O   0  0  0  0  0  0  0  0  0  0  0  0
    3.8865   -4.7325    0.8714 C   0  0  1  0  0  0  0  0  0  0  0  0
    4.9978   -5.3993    1.7119 C   0  0  0  0  0  0  0  0  0  0  0  0
    4.4245   -6.1803    2.8873 C   0  0  0  0  0  0  0  0  0  0  0  0
    3.4728   -7.2503    2.3857 C   0  0  0  0  0  0  0  0  0  0  0  0
    2.3933   -6.6401    1.5726 N   0  0  0  0  0  0  0  0  0  0  0  0
    1.0745   -6.8037    1.7637 C   0  0  0  0  0  0  0  0  0  0  0  0
    0.2319   -6.2708    1.0436 O   0  0  0  0  0  0  0  0  0  0  0  0
    0.5536   -7.6620    2.9287 C   0  0  0  0  0  0  0  0  0  0  0  0
   -0.6861   -8.5391    2.5814 C   0  0  0  0  0  0  0  0  0  0  0  0
   -1.7036   -8.0841    3.5961 C   0  0  0  0  0  0  0  0  0  0  0  0
   -1.2749   -7.1263    4.3914 C   0  0  0  0  0  0  0  0  0  0  0  0
    0.1530   -6.7271    4.1053 C   0  0  0  0  0  0  0  0  0  0  0  0
    2.9038   -5.8407    0.4351 C   0  0  0  0  0  0  0  0  0  0  0  0
    4.4928   -3.9696   -0.3507 C   0  0  0  0  0  0  0  0  0  0  0  0
    8.8057   -3.9608    0.5187 H   0  0  0  0  0  0  0  0  0  0  0  0
    7.3566   -4.9589    0.2754 H   0  0  0  0  0  0  0  0  0  0  0  0
    7.5744   -3.9150    1.7348 H   0  0  0  0  0  0  0  0  0  0  0  0
    5.1622   -1.1577    1.4900 H   0  0  0  0  0  0  0  0  0  0  0  0
    3.7357   -1.3651    0.4914 H   0  0  0  0  0  0  0  0  0  0  0  0
    4.5638   -3.0063    2.9310 H   0  0  0  0  0  0  0  0  0  0  0  0
    3.1200   -2.0533    2.7126 H   0  0  0  0  0  0  0  0  0  0  0  0
    5.5573   -6.1011    1.0856 H   0  0  0  0  0  0  0  0  0  0  0  0
    5.7044   -4.6764    2.0902 H   0  0  0  0  0  0  0  0  0  0  0  0
    5.2430   -6.6014    3.4743 H   0  0  0  0  0  0  0  0  0  0  0  0
    3.8434   -5.5344    3.5502 H   0  0  0  0  0  0  0  0  0  0  0  0
    4.0125   -7.9762    1.7728 H   0  0  0  0  0  0  0  0  0  0  0  0
    3.1789   -7.7498    3.3102 H   0  0  0  0  0  0  0  0  0  0  0  0
    1.2584   -8.4044    3.3025 H   0  0  0  0  0  0  0  0  0  0  0  0
   -1.0517   -8.4678    1.5644 H   0  0  0  0  0  0  0  0  0  0  0  0
   -0.4517   -9.5907    2.7519 H   0  0  0  0  0  0  0  0  0  0  0  0
   -2.6811   -8.5683    3.6483 H   0  0  0  0  0  0  0  0  0  0  0  0
   -1.8464   -6.6549    5.1877 H   0  0  0  0  0  0  0  0  0  0  0  0
    0.7743   -6.9038    4.9831 H   0  0  0  0  0  0  0  0  0  0  0  0
    0.1887   -5.6652    3.8927 H   0  0  0  0  0  0  0  0  0  0  0  0
    2.1339   -5.4086   -0.1982 H   0  0  0  0  0  0  0  0  0  0  0  0
    3.4396   -6.5156   -0.2302 H   0  0  0  0  0  0  0  0  0  0  0  0
    3.7035   -3.6627   -1.0421 H   0  0  0  0  0  0  0  0  0  0  0  0
    5.1464   -4.6305   -0.9253 H   0  0  0  0  0  0  0  0  0  0  0  0
  1  2  1  0
  1 23  1  0
  1 24  1  0
  1 25  1  0
  2  3  2  0
  2  4  2  0
  2  5  1  0
  5 22  1  0
  5  6  1  0
  6  7  1  0
  6 26  1  0
  6 27  1  0
  7  8  1  0
  7 28  1  0
  7 29  1  0
  9  8  1  1
  9 21  1  0
  9 10  1  0
  9 22  1  0
 10 11  1  0
 10 30  1  0
 10 31  1  0
 11 12  1  0
 11 32  1  0
 11 33  1  0
 12 13  1  0
 12 34  1  0
 12 35  1  0
 13 14  1  0
 13 21  1  0
 14 15  2  0
 14 16  1  0
 16 20  1  0
 16 17  1  0
 16 36  1  0
 17 18  1  0
 17 37  1  0
 17 38  1  0
 18 19  2  0
 18 39  1  0
 19 20  1  0
 19 40  1  0
 20 41  1  0
 20 42  1  0
 21 43  1  0
 21 44  1  0
 22 45  1  0
 22 46  1  0
M  END
>  <i_m_ct_stereo_status>  (39) 
1

>  <s_m_source_file>  (39) 
/var/tmp/pbs.5076255.sched01/tmp7me73ahx/0ll6f151o.sdf

>  <i_m_source_file_index>  (39) 
17

>  <i_lp_mmshare_version>  (39) 
48012

>  <i_f3d_flags>  (39) 
0

>  <s_epik_input>  (39) 
W0NIM11TKD1PKSg9TylOKFtDSDJdMSlbQ0gyXVtDSDJdT1tDQF0xMltDSDJdW0NIMl1bQ0gyXU4oW0NIMl0yKUMoPU8pW0NIXTNbQ0gyXVtDSF09W0NIXVtDSDJdMw==

>  <s_epik_cmdline>  (39) 
J2VwaWtfcHl0aG9uJywgJy1waHQnLCAnMi4wJywgJy1waCcsICc3LjAnLCAnLXRuJywgJzgnLCAnLW1hJywgJzIwMCcsICctaW1hZScsICc8aW5maWxlLm1hZT4nLCAnLW9tYWUnLCAnPG91dGZpbGUubWFlPic=

>  <r_lp_tautomer_probability>  (39) 
1

>  <r_epik_Ionization_Penalty>  (39) 
9.24425e-09

>  <r_epik_Ionization_Penalty_Charging>  (39) 
0

>  <r_epik_Ionization_Penalty_Neutral>  (39) 
9.24425e-09

>  <r_epik_State_Penalty>  (39) 
-0

>  <r_epik_Charging_Adjusted_Penalty>  (39) 
0

>  <i_epik_Tot_Q>  (39) 
0

>  <i_epik_Tot_abs_Q>  (39) 
0

>  <s_lp_Force_Field>  (39) 
OPLS3e

>  <r_lp_Energy>  (39) 
29.076

>  <b_lp_Chiralities_Consistent>  (39) 
1

>  <s_lp_Variant>  (39) 
14:0-1

>  <s_i_glide_gridfile>  (39) 
pfpi4k_grid

>  <i_i_glide_lignum>  (39) 
17

>  <i_i_glide_rotatable_bonds>  (39) 
3

>  <r_i_docking_score>  (39) 
-3.61522

>  <r_i_glide_ligand_efficiency>  (39) 
-0.164328

>  <r_i_glide_ligand_efficiency_sa>  (39) 
-0.460455

>  <r_i_glide_ligand_efficiency_ln>  (39) 
-0.883693

>  <r_i_glide_gscore>  (39) 
-3.61522

>  <r_i_glide_lipo>  (39) 
-0.213312

>  <r_i_glide_hbond>  (39) 
-0.166402

>  <r_i_glide_metal>  (39) 
-0

>  <r_i_glide_rewards>  (39) 
-1.22559

>  <r_i_glide_evdw>  (39) 
-28.3462

>  <r_i_glide_ecoul>  (39) 
-5.29289

>  <r_i_glide_erotb>  (39) 
0.348239

>  <r_i_glide_esite>  (39) 
-0.14692

>  <r_i_glide_emodel>  (39) 
-40.2103

>  <r_i_glide_energy>  (39) 
-33.6391

>  <r_i_glide_einternal>  (39) 
1.86613

>  <r_i_glide_intrahb_reward>  (39) 
-0

>  <i_i_glide_confnum>  (39) 
5

>  <i_i_glide_posenum>  (39) 
37

>  <r_i_glide_eff_state_penalty>  (39) 
0

>  <ligand_id>  (39) 
14

>  <original_smiles>  (39) 
CS(=O)(=O)N1CCOC2(CCCN(C(=O)C3CC=CC3)C2)C1

>  <smiles>  (39) 
[H]C1=C([H])C([H])([H])C([H])(C(=O)N2C([H])([H])C([H])([H])C([H])([H])C3(OC([H])([H])C([H])([H])N(S(=O)(=O)C([H])([H])[H])C3([H])[H])C2([H])[H])C1([H])[H]

$$$$
14:0:2
     RDKit          3D

 46 48  0  0  1  0  0  0  0  0999 V2000
    7.3023   -2.7924   -1.8239 C   0  0  0  0  0  0  0  0  0  0  0  0
    7.0566   -2.7596    0.0006 S   0  0  0  0  0  0  0  0  0  0  0  0
    7.6655   -3.9623    0.5760 O   0  0  0  0  0  0  0  0  0  0  0  0
    7.4700   -1.4242    0.4641 O   0  0  0  0  0  0  0  0  0  0  0  0
    5.3292   -2.8749    0.1647 N   0  0  0  0  0  0  0  0  0  0  0  0
    4.5806   -1.9764    1.0722 C   0  0  0  0  0  0  0  0  0  0  0  0
    3.8619   -2.7419    2.1968 C   0  0  0  0  0  0  0  0  0  0  0  0
    3.1451   -3.8455    1.6571 O   0  0  0  0  0  0  0  0  0  0  0  0
    3.9569   -4.8023    0.9728 C   0  0  1  0  0  0  0  0  0  0  0  0
    5.0270   -5.4130    1.9042 C   0  0  0  0  0  0  0  0  0  0  0  0
    4.3712   -6.1329    3.0840 C   0  0  0  0  0  0  0  0  0  0  0  0
    3.4332   -7.2233    2.5766 C   0  0  0  0  0  0  0  0  0  0  0  0
    2.4183   -6.6667    1.6550 N   0  0  0  0  0  0  0  0  0  0  0  0
    1.0774   -6.8349    1.7828 C   0  0  0  0  0  0  0  0  0  0  0  0
    0.2709   -6.2640    1.0379 O   0  0  0  0  0  0  0  0  0  0  0  0
    0.5095   -7.6809    2.9403 C   0  0  0  0  0  0  0  0  0  0  0  0
   -0.7261   -8.5343    2.5467 C   0  0  0  0  0  0  0  0  0  0  0  0
   -1.7933   -8.0742    3.4943 C   0  0  0  0  0  0  0  0  0  0  0  0
   -1.3813   -7.1241    4.3209 C   0  0  0  0  0  0  0  0  0  0  0  0
    0.0625   -6.7572    4.1084 C   0  0  0  0  0  0  0  0  0  0  0  0
    3.0037   -5.9287    0.5110 C   0  0  0  0  0  0  0  0  0  0  0  0
    4.6313   -4.1111   -0.2369 C   0  0  0  0  0  0  0  0  0  0  0  0
    8.3769   -2.7106   -2.0368 H   0  0  0  0  0  0  0  0  0  0  0  0
    6.7536   -1.9720   -2.2836 H   0  0  0  0  0  0  0  0  0  0  0  0
    6.9271   -3.7350   -2.2265 H   0  0  0  0  0  0  0  0  0  0  0  0
    5.2481   -1.2353    1.5152 H   0  0  0  0  0  0  0  0  0  0  0  0
    3.8482   -1.4323    0.4757 H   0  0  0  0  0  0  0  0  0  0  0  0
    4.5628   -3.0722    2.9657 H   0  0  0  0  0  0  0  0  0  0  0  0
    3.1584   -2.0794    2.7058 H   0  0  0  0  0  0  0  0  0  0  0  0
    5.6115   -6.1418    1.3435 H   0  0  0  0  0  0  0  0  0  0  0  0
    5.7442   -4.6823    2.2598 H   0  0  0  0  0  0  0  0  0  0  0  0
    5.1390   -6.5721    3.7158 H   0  0  0  0  0  0  0  0  0  0  0  0
    3.8138   -5.4286    3.7053 H   0  0  0  0  0  0  0  0  0  0  0  0
    3.9983   -7.9957    2.0503 H   0  0  0  0  0  0  0  0  0  0  0  0
    3.0306   -7.6881    3.4716 H   0  0  0  0  0  0  0  0  0  0  0  0
    1.2212   -8.4141    3.3030 H   0  0  0  0  0  0  0  0  0  0  0  0
   -1.0403   -8.4216    1.5138 H   0  0  0  0  0  0  0  0  0  0  0  0
   -0.5280   -9.5907    2.7122 H   0  0  0  0  0  0  0  0  0  0  0  0
   -2.7782   -8.5103    3.4834 H   0  0  0  0  0  0  0  0  0  0  0  0
   -1.9863   -6.6511    5.0794 H   0  0  0  0  0  0  0  0  0  0  0  0
    0.6402   -6.9452    5.0139 H   0  0  0  0  0  0  0  0  0  0  0  0
    0.1387   -5.6938    3.8818 H   0  0  0  0  0  0  0  0  0  0  0  0
    2.2482   -5.5277   -0.1678 H   0  0  0  0  0  0  0  0  0  0  0  0
    3.5595   -6.6429   -0.0985 H   0  0  0  0  0  0  0  0  0  0  0  0
    3.8880   -3.8549   -0.9920 H   0  0  0  0  0  0  0  0  0  0  0  0
    5.3285   -4.8043   -0.7116 H   0  0  0  0  0  0  0  0  0  0  0  0
  1  2  1  0
  1 23  1  0
  1 24  1  0
  1 25  1  0
  2  3  2  0
  2  4  2  0
  2  5  1  0
  5 22  1  0
  5  6  1  0
  6  7  1  0
  6 26  1  0
  6 27  1  0
  7  8  1  0
  7 28  1  0
  7 29  1  0
  9  8  1  1
  9 21  1  0
  9 10  1  0
  9 22  1  0
 10 11  1  0
 10 30  1  0
 10 31  1  0
 11 12  1  0
 11 32  1  0
 11 33  1  0
 12 13  1  0
 12 34  1  0
 12 35  1  0
 13 14  1  0
 13 21  1  0
 14 15  2  0
 14 16  1  0
 16 20  1  0
 16 17  1  0
 16 36  1  0
 17 18  1  0
 17 37  1  0
 17 38  1  0
 18 19  2  0
 18 39  1  0
 19 20  1  0
 19 40  1  0
 20 41  1  0
 20 42  1  0
 21 43  1  0
 21 44  1  0
 22 45  1  0
 22 46  1  0
M  END
>  <i_m_ct_stereo_status>  (40) 
1

>  <s_m_source_file>  (40) 
/var/tmp/pbs.5076255.sched01/tmp7me73ahx/0ll6f151o.sdf

>  <i_m_source_file_index>  (40) 
17

>  <i_lp_mmshare_version>  (40) 
48012

>  <i_f3d_flags>  (40) 
0

>  <s_epik_input>  (40) 
W0NIM11TKD1PKSg9TylOKFtDSDJdMSlbQ0gyXVtDSDJdT1tDQF0xMltDSDJdW0NIMl1bQ0gyXU4oW0NIMl0yKUMoPU8pW0NIXTNbQ0gyXVtDSF09W0NIXVtDSDJdMw==

>  <s_epik_cmdline>  (40) 
J2VwaWtfcHl0aG9uJywgJy1waHQnLCAnMi4wJywgJy1waCcsICc3LjAnLCAnLXRuJywgJzgnLCAnLW1hJywgJzIwMCcsICctaW1hZScsICc8aW5maWxlLm1hZT4nLCAnLW9tYWUnLCAnPG91dGZpbGUubWFlPic=

>  <r_lp_tautomer_probability>  (40) 
1

>  <r_epik_Ionization_Penalty>  (40) 
9.24425e-09

>  <r_epik_Ionization_Penalty_Charging>  (40) 
0

>  <r_epik_Ionization_Penalty_Neutral>  (40) 
9.24425e-09

>  <r_epik_State_Penalty>  (40) 
-0

>  <r_epik_Charging_Adjusted_Penalty>  (40) 
0

>  <i_epik_Tot_Q>  (40) 
0

>  <i_epik_Tot_abs_Q>  (40) 
0

>  <s_lp_Force_Field>  (40) 
OPLS3e

>  <r_lp_Energy>  (40) 
29.076

>  <b_lp_Chiralities_Consistent>  (40) 
1

>  <s_lp_Variant>  (40) 
14:0-1

>  <s_i_glide_gridfile>  (40) 
pfpi4k_grid

>  <i_i_glide_lignum>  (40) 
17

>  <i_i_glide_rotatable_bonds>  (40) 
3

>  <r_i_docking_score>  (40) 
-3.50932

>  <r_i_glide_ligand_efficiency>  (40) 
-0.159514

>  <r_i_glide_ligand_efficiency_sa>  (40) 
-0.446966

>  <r_i_glide_ligand_efficiency_ln>  (40) 
-0.857805

>  <r_i_glide_gscore>  (40) 
-3.50932

>  <r_i_glide_lipo>  (40) 
-0.0706059

>  <r_i_glide_hbond>  (40) 
-0.16

>  <r_i_glide_metal>  (40) 
-0

>  <r_i_glide_rewards>  (40) 
-1.30659

>  <r_i_glide_evdw>  (40) 
-27.5052

>  <r_i_glide_ecoul>  (40) 
-5.57509

>  <r_i_glide_erotb>  (40) 
0.348239

>  <r_i_glide_esite>  (40) 
-0.108834

>  <r_i_glide_emodel>  (40) 
-39.6894

>  <r_i_glide_energy>  (40) 
-33.0803

>  <r_i_glide_einternal>  (40) 
2.58599

>  <r_i_glide_intrahb_reward>  (40) 
-0

>  <i_i_glide_confnum>  (40) 
5

>  <i_i_glide_posenum>  (40) 
1

>  <r_i_glide_eff_state_penalty>  (40) 
0

>  <ligand_id>  (40) 
14

>  <original_smiles>  (40) 
CS(=O)(=O)N1CCOC2(CCCN(C(=O)C3CC=CC3)C2)C1

>  <smiles>  (40) 
[H]C1=C([H])C([H])([H])C([H])(C(=O)N2C([H])([H])C([H])([H])C([H])([H])C3(OC([H])([H])C([H])([H])N(S(=O)(=O)C([H])([H])[H])C3([H])[H])C2([H])[H])C1([H])[H]

$$$$
15:0:0
     RDKit          3D

 36 38  0  0  1  0  0  0  0  0999 V2000
    5.5265   -2.6651   -2.4770 C   0  0  0  0  0  0  0  0  0  0  0  0
    6.1937   -2.0441   -1.5047 N   0  0  0  0  0  0  0  0  0  0  0  0
    5.5091   -1.8035   -0.3685 C   0  0  0  0  0  0  0  0  0  0  0  0
    4.1462   -2.1450   -0.2265 C   0  0  0  0  0  0  0  0  0  0  0  0
    3.3825   -1.8791    1.0493 C   0  0  0  0  0  0  0  0  0  0  0  0
    2.6153   -0.6165    0.9571 N   0  0  0  0  0  0  0  0  0  0  0  0
    1.8668   -0.3195    2.1719 C   0  0  0  0  0  0  0  0  0  0  0  0
    1.1020    0.9854    2.0501 C   0  0  2  0  0  0  0  0  0  0  0  0
    1.4624    2.1735    2.9196 C   0  0  0  0  0  0  0  0  0  0  0  0
    0.1775    1.4159    3.1840 C   0  0  0  0  0  0  0  0  0  0  0  0
    0.0006    0.5820    4.4223 C   0  0  0  0  0  0  0  0  0  0  0  0
   -1.1142    1.2217    5.2555 C   0  0  0  0  0  0  0  0  0  0  0  0
   -1.7512    2.2984    4.3775 C   0  0  0  0  0  0  0  0  0  0  0  0
   -1.1596    2.0889    3.0031 C   0  0  0  0  0  0  0  0  0  0  0  0
    3.5588   -2.7975   -1.3321 C   0  0  0  0  0  0  0  0  0  0  0  0
    4.2533   -3.0410   -2.4607 N   0  0  0  0  0  0  0  0  0  0  0  0
    6.0571   -2.8453   -3.3911 H   0  0  0  0  0  0  0  0  0  0  0  0
    6.0632   -1.3238    0.4270 H   0  0  0  0  0  0  0  0  0  0  0  0
    2.7115   -2.7125    1.2426 H   0  0  0  0  0  0  0  0  0  0  0  0
    4.0787   -1.8532    1.8836 H   0  0  0  0  0  0  0  0  0  0  0  0
    3.2658    0.1505    0.8059 H   0  0  0  0  0  0  0  0  0  0  0  0
    1.1481   -1.1137    2.3613 H   0  0  0  0  0  0  0  0  0  0  0  0
    2.5044   -0.2694    3.0499 H   0  0  0  0  0  0  0  0  0  0  0  0
    0.7035    1.1899    1.0581 H   0  0  0  0  0  0  0  0  0  0  0  0
    2.2749    2.0586    3.6359 H   0  0  0  0  0  0  0  0  0  0  0  0
    1.3967    3.1612    2.4615 H   0  0  0  0  0  0  0  0  0  0  0  0
   -0.3095   -0.4183    4.1233 H   0  0  0  0  0  0  0  0  0  0  0  0
    0.9390    0.5126    4.9758 H   0  0  0  0  0  0  0  0  0  0  0  0
   -1.8371    0.4634    5.5611 H   0  0  0  0  0  0  0  0  0  0  0  0
   -0.6939    1.6659    6.1571 H   0  0  0  0  0  0  0  0  0  0  0  0
   -2.8358    2.2496    4.3663 H   0  0  0  0  0  0  0  0  0  0  0  0
   -1.4607    3.2755    4.7456 H   0  0  0  0  0  0  0  0  0  0  0  0
   -1.0300    3.0267    2.4879 H   0  0  0  0  0  0  0  0  0  0  0  0
   -1.7976    1.4484    2.4067 H   0  0  0  0  0  0  0  0  0  0  0  0
    2.5279   -3.1296   -1.3186 H   0  0  0  0  0  0  0  0  0  0  0  0
    1.9441   -0.6715    0.1994 H   0  0  0  0  0  0  0  0  0  0  0  0
  1 16  2  0
  1  2  1  0
  1 17  1  0
  2  3  2  0
  3  4  1  0
  3 18  1  0
  4  5  1  0
  4 15  2  0
  5  6  1  0
  5 19  1  0
  5 20  1  0
  6  7  1  0
  6 21  1  0
  6 36  1  0
  7  8  1  0
  7 22  1  0
  7 23  1  0
  8 10  1  0
  8  9  1  0
  8 24  1  6
  9 10  1  0
  9 25  1  0
  9 26  1  0
 10 14  1  0
 10 11  1  0
 11 12  1  0
 11 27  1  0
 11 28  1  0
 12 13  1  0
 12 29  1  0
 12 30  1  0
 13 14  1  0
 13 31  1  0
 13 32  1  0
 14 33  1  0
 14 34  1  0
 15 16  1  0
 15 35  1  0
M  CHG  1   6   1
M  END
>  <i_m_ct_stereo_status>  (41) 
1

>  <s_m_source_file>  (41) 
/var/tmp/pbs.5076255.sched01/tmp7me73ahx/0ll6f151o.sdf

>  <i_m_source_file_index>  (41) 
18

>  <i_lp_mmshare_version>  (41) 
48012

>  <i_f3d_flags>  (41) 
0

>  <s_epik_input>  (41) 
W2NIXTFuW2NIXW5bY0hdYzFbQ0gyXVtOSF1bQ0gyXVtDQEhdKFtDSDJdMilDMjNbQ0gyXVtDSDJdW0NIMl1bQ0gyXTM=

>  <s_epik_cmdline>  (41) 
J2VwaWtfcHl0aG9uJywgJy1waHQnLCAnMi4wJywgJy1waCcsICc3LjAnLCAnLXRuJywgJzgnLCAnLW1hJywgJzIwMCcsICctaW1hZScsICc8aW5maWxlLm1hZT4nLCAnLW9tYWUnLCAnPG91dGZpbGUubWFlPic=

>  <r_lp_tautomer_probability>  (41) 
1

>  <r_epik_Ionization_Penalty>  (41) 
0.0304228

>  <r_epik_Ionization_Penalty_Charging>  (41) 
0.030422

>  <r_epik_Ionization_Penalty_Neutral>  (41) 
8.284e-07

>  <r_epik_State_Penalty>  (41) 
0.0250848

>  <r_epik_Charging_Adjusted_Penalty>  (41) 
0.0555068

>  <i_epik_Tot_Q>  (41) 
1

>  <i_epik_Tot_abs_Q>  (41) 
1

>  <s_epik_Chemistry_Notes>  (41) 
This compound contains an electron-poor aromatic ring that is susceptible to covalent hydrolysis at low pH, typically resulting in measured values for nitrogen ring protonation that are around two units higher than predicted values.

>  <s_lp_Force_Field>  (41) 
OPLS3e

>  <r_lp_Energy>  (41) 
30.7133

>  <b_lp_Chiralities_Consistent>  (41) 
1

>  <s_lp_Variant>  (41) 
15:0-1

>  <s_i_glide_gridfile>  (41) 
pfpi4k_grid

>  <i_i_glide_lignum>  (41) 
18

>  <i_i_glide_rotatable_bonds>  (41) 
4

>  <r_i_docking_score>  (41) 
-4.12594

>  <r_i_glide_ligand_efficiency>  (41) 
-0.257871

>  <r_i_glide_ligand_efficiency_sa>  (41) 
-0.649794

>  <r_i_glide_ligand_efficiency_ln>  (41) 
-1.09366

>  <r_i_glide_gscore>  (41) 
-4.12594

>  <r_i_glide_lipo>  (41) 
0

>  <r_i_glide_hbond>  (41) 
-0.318305

>  <r_i_glide_metal>  (41) 
-0

>  <r_i_glide_rewards>  (41) 
-2.068

>  <r_i_glide_evdw>  (41) 
-21.601

>  <r_i_glide_ecoul>  (41) 
-8.65646

>  <r_i_glide_erotb>  (41) 
0.705091

>  <r_i_glide_esite>  (41) 
-0.0662064

>  <r_i_glide_emodel>  (41) 
-39.4134

>  <r_i_glide_energy>  (41) 
-30.2574

>  <r_i_glide_einternal>  (41) 
0.253809

>  <r_i_glide_intrahb_reward>  (41) 
-0

>  <i_i_glide_confnum>  (41) 
1

>  <i_i_glide_posenum>  (41) 
8

>  <r_i_glide_eff_state_penalty>  (41) 
0

>  <ligand_id>  (41) 
15

>  <original_smiles>  (41) 
c1ncc(CNCC2CC23CCCC3)cn1

>  <smiles>  (41) 
[H]c1nc([H])c(C([H])([H])[N+]([H])([H])C([H])([H])C2([H])C([H])([H])C23C([H])([H])C([H])([H])C([H])([H])C3([H])[H])c([H])n1

$$$$
15:0:1
     RDKit          3D

 36 38  0  0  1  0  0  0  0  0999 V2000
    4.7398   -3.4314   -1.7992 C   0  0  0  0  0  0  0  0  0  0  0  0
    4.6442   -3.7757   -0.5178 N   0  0  0  0  0  0  0  0  0  0  0  0
    4.2953   -2.8050    0.3521 C   0  0  0  0  0  0  0  0  0  0  0  0
    4.0356   -1.4864   -0.0633 C   0  0  0  0  0  0  0  0  0  0  0  0
    3.6559   -0.3883    0.9148 C   0  0  0  0  0  0  0  0  0  0  0  0
    2.2229   -0.4268    1.2511 N   0  0  0  0  0  0  0  0  0  0  0  0
    1.7979    0.7114    2.0822 C   0  0  0  0  0  0  0  0  0  0  0  0
    0.3964    0.5173    2.6141 C   0  0  2  0  0  0  0  0  0  0  0  0
   -0.7518    1.3436    2.0833 C   0  0  0  0  0  0  0  0  0  0  0  0
   -0.2276    1.6043    3.4792 C   0  0  0  0  0  0  0  0  0  0  0  0
    0.5091    2.8723    3.8058 C   0  0  0  0  0  0  0  0  0  0  0  0
   -0.3403    3.6554    4.8085 C   0  0  0  0  0  0  0  0  0  0  0  0
   -1.4689    2.7285    5.2495 C   0  0  0  0  0  0  0  0  0  0  0  0
   -1.1087    1.3699    4.6805 C   0  0  0  0  0  0  0  0  0  0  0  0
    4.1975   -1.2418   -1.4465 C   0  0  0  0  0  0  0  0  0  0  0  0
    4.5669   -2.2151   -2.3068 N   0  0  0  0  0  0  0  0  0  0  0  0
    5.0138   -4.2098   -2.4880 H   0  0  0  0  0  0  0  0  0  0  0  0
    4.2217   -3.0997    1.3898 H   0  0  0  0  0  0  0  0  0  0  0  0
    4.2668   -0.4888    1.8084 H   0  0  0  0  0  0  0  0  0  0  0  0
    3.9269    0.5741    0.4885 H   0  0  0  0  0  0  0  0  0  0  0  0
    1.6570   -0.4595    0.4038 H   0  0  0  0  0  0  0  0  0  0  0  0
    2.4620    0.8365    2.9308 H   0  0  0  0  0  0  0  0  0  0  0  0
    1.8458    1.6383    1.5222 H   0  0  0  0  0  0  0  0  0  0  0  0
    0.1733   -0.4917    2.9512 H   0  0  0  0  0  0  0  0  0  0  0  0
   -0.5221    2.0713    1.3115 H   0  0  0  0  0  0  0  0  0  0  0  0
   -1.7177    0.8490    1.9728 H   0  0  0  0  0  0  0  0  0  0  0  0
    1.4587    2.6088    4.2675 H   0  0  0  0  0  0  0  0  0  0  0  0
    0.7093    3.4444    2.8986 H   0  0  0  0  0  0  0  0  0  0  0  0
    0.2795    3.9808    5.6454 H   0  0  0  0  0  0  0  0  0  0  0  0
   -0.7372    4.5473    4.3286 H   0  0  0  0  0  0  0  0  0  0  0  0
   -1.5928    2.7056    6.3272 H   0  0  0  0  0  0  0  0  0  0  0  0
   -2.3986    3.0609    4.8055 H   0  0  0  0  0  0  0  0  0  0  0  0
   -1.9859    0.8181    4.3917 H   0  0  0  0  0  0  0  0  0  0  0  0
   -0.5586    0.7946    5.4102 H   0  0  0  0  0  0  0  0  0  0  0  0
    4.0623   -0.2606   -1.8767 H   0  0  0  0  0  0  0  0  0  0  0  0
    2.0402   -1.2672    1.7825 H   0  0  0  0  0  0  0  0  0  0  0  0
  1 16  2  0
  1  2  1  0
  1 17  1  0
  2  3  2  0
  3  4  1  0
  3 18  1  0
  4  5  1  0
  4 15  2  0
  5  6  1  0
  5 19  1  0
  5 20  1  0
  6  7  1  0
  6 21  1  0
  6 36  1  0
  7  8  1  0
  7 22  1  0
  7 23  1  0
  8 10  1  0
  8  9  1  0
  8 24  1  1
  9 10  1  0
  9 25  1  0
  9 26  1  0
 10 14  1  0
 10 11  1  0
 11 12  1  0
 11 27  1  0
 11 28  1  0
 12 13  1  0
 12 29  1  0
 12 30  1  0
 13 14  1  0
 13 31  1  0
 13 32  1  0
 14 33  1  0
 14 34  1  0
 15 16  1  0
 15 35  1  0
M  CHG  1   6   1
M  END
>  <i_m_ct_stereo_status>  (42) 
1

>  <s_m_source_file>  (42) 
/var/tmp/pbs.5076255.sched01/tmp7me73ahx/0ll6f151o.sdf

>  <i_m_source_file_index>  (42) 
18

>  <i_lp_mmshare_version>  (42) 
48012

>  <i_f3d_flags>  (42) 
0

>  <s_epik_input>  (42) 
W2NIXTFuW2NIXW5bY0hdYzFbQ0gyXVtOSF1bQ0gyXVtDQEhdKFtDSDJdMilDMjNbQ0gyXVtDSDJdW0NIMl1bQ0gyXTM=

>  <s_epik_cmdline>  (42) 
J2VwaWtfcHl0aG9uJywgJy1waHQnLCAnMi4wJywgJy1waCcsICc3LjAnLCAnLXRuJywgJzgnLCAnLW1hJywgJzIwMCcsICctaW1hZScsICc8aW5maWxlLm1hZT4nLCAnLW9tYWUnLCAnPG91dGZpbGUubWFlPic=

>  <r_lp_tautomer_probability>  (42) 
1

>  <r_epik_Ionization_Penalty>  (42) 
0.0304228

>  <r_epik_Ionization_Penalty_Charging>  (42) 
0.030422

>  <r_epik_Ionization_Penalty_Neutral>  (42) 
8.284e-07

>  <r_epik_State_Penalty>  (42) 
0.0250848

>  <r_epik_Charging_Adjusted_Penalty>  (42) 
0.0555068

>  <i_epik_Tot_Q>  (42) 
1

>  <i_epik_Tot_abs_Q>  (42) 
1

>  <s_epik_Chemistry_Notes>  (42) 
This compound contains an electron-poor aromatic ring that is susceptible to covalent hydrolysis at low pH, typically resulting in measured values for nitrogen ring protonation that are around two units higher than predicted values.

>  <s_lp_Force_Field>  (42) 
OPLS3e

>  <r_lp_Energy>  (42) 
30.7133

>  <b_lp_Chiralities_Consistent>  (42) 
1

>  <s_lp_Variant>  (42) 
15:0-1

>  <s_i_glide_gridfile>  (42) 
pfpi4k_grid

>  <i_i_glide_lignum>  (42) 
18

>  <i_i_glide_rotatable_bonds>  (42) 
4

>  <r_i_docking_score>  (42) 
-3.72482

>  <r_i_glide_ligand_efficiency>  (42) 
-0.232801

>  <r_i_glide_ligand_efficiency_sa>  (42) 
-0.586623

>  <r_i_glide_ligand_efficiency_ln>  (42) 
-0.987339

>  <r_i_glide_gscore>  (42) 
-3.72482

>  <r_i_glide_lipo>  (42) 
-0.00713455

>  <r_i_glide_hbond>  (42) 
-0.2

>  <r_i_glide_metal>  (42) 
-0

>  <r_i_glide_rewards>  (42) 
-1.95572

>  <r_i_glide_evdw>  (42) 
-21.15

>  <r_i_glide_ecoul>  (42) 
-7.47499

>  <r_i_glide_erotb>  (42) 
0.705091

>  <r_i_glide_esite>  (42) 
-0.0883117

>  <r_i_glide_emodel>  (42) 
-36.7303

>  <r_i_glide_energy>  (42) 
-28.625

>  <r_i_glide_einternal>  (42) 
0.433758

>  <r_i_glide_intrahb_reward>  (42) 
-0

>  <i_i_glide_confnum>  (42) 
1

>  <i_i_glide_posenum>  (42) 
12

>  <r_i_glide_eff_state_penalty>  (42) 
0

>  <ligand_id>  (42) 
15

>  <original_smiles>  (42) 
c1ncc(CNCC2CC23CCCC3)cn1

>  <smiles>  (42) 
[H]c1nc([H])c(C([H])([H])[N+]([H])([H])C([H])([H])C2([H])C([H])([H])C23C([H])([H])C([H])([H])C([H])([H])C3([H])[H])c([H])n1

$$$$
15:0:2
     RDKit          3D

 36 38  0  0  1  0  0  0  0  0999 V2000
    5.1445   -2.5734   -0.7561 C   0  0  0  0  0  0  0  0  0  0  0  0
    5.7348   -1.4301   -0.4011 N   0  0  0  0  0  0  0  0  0  0  0  0
    5.0533   -0.6472    0.4607 C   0  0  0  0  0  0  0  0  0  0  0  0
    3.7780   -1.0060    0.9430 C   0  0  0  0  0  0  0  0  0  0  0  0
    3.0137   -0.1353    1.9163 C   0  0  0  0  0  0  0  0  0  0  0  0
    1.8475    0.5260    1.2870 N   0  0  0  0  0  0  0  0  0  0  0  0
    1.1899    1.5298    2.1384 C   0  0  0  0  0  0  0  0  0  0  0  0
    0.4902    0.8909    3.3314 C   0  0  2  0  0  0  0  0  0  0  0  0
   -0.9900    0.6255    3.2760 C   0  0  0  0  0  0  0  0  0  0  0  0
   -0.4535    1.7180    4.1672 C   0  0  0  0  0  0  0  0  0  0  0  0
   -0.6993    3.1740    3.8598 C   0  0  0  0  0  0  0  0  0  0  0  0
   -1.5529    3.7319    4.9967 C   0  0  0  0  0  0  0  0  0  0  0  0
   -1.5839    2.6549    6.0905 C   0  0  0  0  0  0  0  0  0  0  0  0
   -0.5579    1.5994    5.6707 C   0  0  0  0  0  0  0  0  0  0  0  0
    3.2686   -2.2432    0.5010 C   0  0  0  0  0  0  0  0  0  0  0  0
    3.9609   -3.0278   -0.3464 N   0  0  0  0  0  0  0  0  0  0  0  0
    5.6823   -3.1938   -1.4544 H   0  0  0  0  0  0  0  0  0  0  0  0
    5.5324    0.2703    0.7711 H   0  0  0  0  0  0  0  0  0  0  0  0
    2.6932   -0.7643    2.7457 H   0  0  0  0  0  0  0  0  0  0  0  0
    3.6790    0.6231    2.3341 H   0  0  0  0  0  0  0  0  0  0  0  0
    2.1563    0.9905    0.4468 H   0  0  0  0  0  0  0  0  0  0  0  0
    1.9201    2.2614    2.4895 H   0  0  0  0  0  0  0  0  0  0  0  0
    0.4683    2.0795    1.5325 H   0  0  0  0  0  0  0  0  0  0  0  0
    1.0974    0.1935    3.9091 H   0  0  0  0  0  0  0  0  0  0  0  0
   -1.5269    0.9242    2.3742 H   0  0  0  0  0  0  0  0  0  0  0  0
   -1.3361   -0.2969    3.7383 H   0  0  0  0  0  0  0  0  0  0  0  0
    0.2642    3.6892    3.8332 H   0  0  0  0  0  0  0  0  0  0  0  0
   -1.1812    3.2852    2.8850 H   0  0  0  0  0  0  0  0  0  0  0  0
   -1.1153    4.6613    5.3628 H   0  0  0  0  0  0  0  0  0  0  0  0
   -2.5640    3.9377    4.6464 H   0  0  0  0  0  0  0  0  0  0  0  0
   -1.3785    3.0618    7.0846 H   0  0  0  0  0  0  0  0  0  0  0  0
   -2.5739    2.1956    6.1144 H   0  0  0  0  0  0  0  0  0  0  0  0
   -0.8704    0.5974    5.9598 H   0  0  0  0  0  0  0  0  0  0  0  0
    0.4169    1.8081    6.1177 H   0  0  0  0  0  0  0  0  0  0  0  0
    2.3096   -2.6123    0.8361 H   0  0  0  0  0  0  0  0  0  0  0  0
    1.1636   -0.1634    0.9787 H   0  0  0  0  0  0  0  0  0  0  0  0
  1 16  2  0
  1  2  1  0
  1 17  1  0
  2  3  2  0
  3  4  1  0
  3 18  1  0
  4  5  1  0
  4 15  2  0
  5  6  1  0
  5 19  1  0
  5 20  1  0
  6  7  1  0
  6 21  1  0
  6 36  1  0
  7  8  1  0
  7 22  1  0
  7 23  1  0
  8 10  1  0
  8  9  1  0
  8 24  1  1
  9 10  1  0
  9 25  1  0
  9 26  1  0
 10 14  1  0
 10 11  1  0
 11 12  1  0
 11 27  1  0
 11 28  1  0
 12 13  1  0
 12 29  1  0
 12 30  1  0
 13 14  1  0
 13 31  1  0
 13 32  1  0
 14 33  1  0
 14 34  1  0
 15 16  1  0
 15 35  1  0
M  CHG  1   6   1
M  END
>  <i_m_ct_stereo_status>  (43) 
1

>  <s_m_source_file>  (43) 
/var/tmp/pbs.5076255.sched01/tmp7me73ahx/0ll6f151o.sdf

>  <i_m_source_file_index>  (43) 
18

>  <i_lp_mmshare_version>  (43) 
48012

>  <i_f3d_flags>  (43) 
0

>  <s_epik_input>  (43) 
W2NIXTFuW2NIXW5bY0hdYzFbQ0gyXVtOSF1bQ0gyXVtDQEhdKFtDSDJdMilDMjNbQ0gyXVtDSDJdW0NIMl1bQ0gyXTM=

>  <s_epik_cmdline>  (43) 
J2VwaWtfcHl0aG9uJywgJy1waHQnLCAnMi4wJywgJy1waCcsICc3LjAnLCAnLXRuJywgJzgnLCAnLW1hJywgJzIwMCcsICctaW1hZScsICc8aW5maWxlLm1hZT4nLCAnLW9tYWUnLCAnPG91dGZpbGUubWFlPic=

>  <r_lp_tautomer_probability>  (43) 
1

>  <r_epik_Ionization_Penalty>  (43) 
0.0304228

>  <r_epik_Ionization_Penalty_Charging>  (43) 
0.030422

>  <r_epik_Ionization_Penalty_Neutral>  (43) 
8.284e-07

>  <r_epik_State_Penalty>  (43) 
0.0250848

>  <r_epik_Charging_Adjusted_Penalty>  (43) 
0.0555068

>  <i_epik_Tot_Q>  (43) 
1

>  <i_epik_Tot_abs_Q>  (43) 
1

>  <s_epik_Chemistry_Notes>  (43) 
This compound contains an electron-poor aromatic ring that is susceptible to covalent hydrolysis at low pH, typically resulting in measured values for nitrogen ring protonation that are around two units higher than predicted values.

>  <s_lp_Force_Field>  (43) 
OPLS3e

>  <r_lp_Energy>  (43) 
30.7133

>  <b_lp_Chiralities_Consistent>  (43) 
1

>  <s_lp_Variant>  (43) 
15:0-1

>  <s_i_glide_gridfile>  (43) 
pfpi4k_grid

>  <i_i_glide_lignum>  (43) 
18

>  <i_i_glide_rotatable_bonds>  (43) 
4

>  <r_i_docking_score>  (43) 
-3.34243

>  <r_i_glide_ligand_efficiency>  (43) 
-0.208902

>  <r_i_glide_ligand_efficiency_sa>  (43) 
-0.5264

>  <r_i_glide_ligand_efficiency_ln>  (43) 
-0.885978

>  <r_i_glide_gscore>  (43) 
-3.34243

>  <r_i_glide_lipo>  (43) 
-0.191384

>  <r_i_glide_hbond>  (43) 
-0.138446

>  <r_i_glide_metal>  (43) 
-0

>  <r_i_glide_rewards>  (43) 
-1.92056

>  <r_i_glide_evdw>  (43) 
-19.8702

>  <r_i_glide_ecoul>  (43) 
-4.87645

>  <r_i_glide_erotb>  (43) 
0.705091

>  <r_i_glide_esite>  (43) 
-0.072158

>  <r_i_glide_emodel>  (43) 
-31.4867

>  <r_i_glide_energy>  (43) 
-24.7466

>  <r_i_glide_einternal>  (43) 
1.37739

>  <r_i_glide_intrahb_reward>  (43) 
-0

>  <i_i_glide_confnum>  (43) 
4

>  <i_i_glide_posenum>  (43) 
34

>  <r_i_glide_eff_state_penalty>  (43) 
0

>  <ligand_id>  (43) 
15

>  <original_smiles>  (43) 
c1ncc(CNCC2CC23CCCC3)cn1

>  <smiles>  (43) 
[H]c1nc([H])c(C([H])([H])[N+]([H])([H])C([H])([H])C2([H])C([H])([H])C23C([H])([H])C([H])([H])C([H])([H])C3([H])[H])c([H])n1

$$$$
15:1:0
     RDKit          3D

 35 37  0  0  1  0  0  0  0  0999 V2000
    5.0592   -3.1890   -2.7779 C   0  0  0  0  0  0  0  0  0  0  0  0
    4.1361   -2.2558   -2.9980 N   0  0  0  0  0  0  0  0  0  0  0  0
    3.8839   -1.4098   -1.9732 C   0  0  0  0  0  0  0  0  0  0  0  0
    4.5962   -1.4863   -0.7605 C   0  0  0  0  0  0  0  0  0  0  0  0
    4.3195   -0.5513    0.3934 C   0  0  0  0  0  0  0  0  0  0  0  0
    3.0021   -0.8051    0.9574 N   0  0  0  0  0  0  0  0  0  0  0  0
    2.6434    0.2701    1.8616 C   0  0  0  0  0  0  0  0  0  0  0  0
    1.2128    0.0813    2.3239 C   0  0  2  0  0  0  0  0  0  0  0  0
    0.0863    0.8763    1.6966 C   0  0  0  0  0  0  0  0  0  0  0  0
    0.5614    1.2116    3.0947 C   0  0  0  0  0  0  0  0  0  0  0  0
    1.2822    2.4990    3.3622 C   0  0  0  0  0  0  0  0  0  0  0  0
    0.3244    3.3663    4.1660 C   0  0  0  0  0  0  0  0  0  0  0  0
   -0.6241    2.4042    4.8770 C   0  0  0  0  0  0  0  0  0  0  0  0
   -0.3358    1.0211    4.2843 C   0  0  0  0  0  0  0  0  0  0  0  0
    5.5585   -2.5066   -0.6594 C   0  0  0  0  0  0  0  0  0  0  0  0
    5.8024   -3.3510   -1.6829 N   0  0  0  0  0  0  0  0  0  0  0  0
    5.2569   -3.8647   -3.5981 H   0  0  0  0  0  0  0  0  0  0  0  0
    3.1114   -0.6736   -2.1358 H   0  0  0  0  0  0  0  0  0  0  0  0
    5.0794   -0.6509    1.1675 H   0  0  0  0  0  0  0  0  0  0  0  0
    4.3764    0.4743    0.0444 H   0  0  0  0  0  0  0  0  0  0  0  0
    2.2866   -0.8718    0.2390 H   0  0  0  0  0  0  0  0  0  0  0  0
    3.3047    0.3085    2.7305 H   0  0  0  0  0  0  0  0  0  0  0  0
    2.7203    1.2256    1.3453 H   0  0  0  0  0  0  0  0  0  0  0  0
    0.9768   -0.9234    2.6612 H   0  0  0  0  0  0  0  0  0  0  0  0
    0.3418    1.5586    0.8926 H   0  0  0  0  0  0  0  0  0  0  0  0
   -0.8749    0.3850    1.5873 H   0  0  0  0  0  0  0  0  0  0  0  0
    2.1612    2.2591    3.9543 H   0  0  0  0  0  0  0  0  0  0  0  0
    1.5925    2.9825    2.4296 H   0  0  0  0  0  0  0  0  0  0  0  0
    0.8564    4.0226    4.8482 H   0  0  0  0  0  0  0  0  0  0  0  0
   -0.2280    3.9735    3.4573 H   0  0  0  0  0  0  0  0  0  0  0  0
   -0.4443    2.3941    5.9511 H   0  0  0  0  0  0  0  0  0  0  0  0
   -1.6667    2.6773    4.7064 H   0  0  0  0  0  0  0  0  0  0  0  0
   -1.2492    0.5366    3.9799 H   0  0  0  0  0  0  0  0  0  0  0  0
    0.1635    0.4065    5.0237 H   0  0  0  0  0  0  0  0  0  0  0  0
    6.1449   -2.6497    0.2332 H   0  0  0  0  0  0  0  0  0  0  0  0
  1 16  2  0
  1  2  1  0
  1 17  1  0
  2  3  2  0
  3  4  1  0
  3 18  1  0
  4  5  1  0
  4 15  2  0
  5  6  1  0
  5 19  1  0
  5 20  1  0
  6  7  1  0
  6 21  1  0
  7  8  1  0
  7 22  1  0
  7 23  1  0
  8 10  1  0
  8  9  1  0
  8 24  1  1
  9 10  1  0
  9 25  1  0
  9 26  1  0
 10 14  1  0
 10 11  1  0
 11 12  1  0
 11 27  1  0
 11 28  1  0
 12 13  1  0
 12 29  1  0
 12 30  1  0
 13 14  1  0
 13 31  1  0
 13 32  1  0
 14 33  1  0
 14 34  1  0
 15 16  1  0
 15 35  1  0
M  END
>  <i_m_ct_stereo_status>  (44) 
1

>  <s_m_source_file>  (44) 
/var/tmp/pbs.5076255.sched01/tmp7me73ahx/0ll6f151o.sdf

>  <i_m_source_file_index>  (44) 
19

>  <i_lp_mmshare_version>  (44) 
48012

>  <i_f3d_flags>  (44) 
0

>  <s_epik_input>  (44) 
W2NIXTFuW2NIXW5bY0hdYzFbQ0gyXVtOSF1bQ0gyXVtDQEhdKFtDSDJdMilDMjNbQ0gyXVtDSDJdW0NIMl1bQ0gyXTM=

>  <s_epik_cmdline>  (44) 
J2VwaWtfcHl0aG9uJywgJy1waHQnLCAnMi4wJywgJy1waCcsICc3LjAnLCAnLXRuJywgJzgnLCAnLW1hJywgJzIwMCcsICctaW1hZScsICc8aW5maWxlLm1hZT4nLCAnLW9tYWUnLCAnPG91dGZpbGUubWFlPic=

>  <r_lp_tautomer_probability>  (44) 
1

>  <r_epik_Ionization_Penalty>  (44) 
1.77433

>  <r_epik_Ionization_Penalty_Charging>  (44) 
0

>  <r_epik_Ionization_Penalty_Neutral>  (44) 
1.77433

>  <r_epik_State_Penalty>  (44) 
1.88598

>  <r_epik_Charging_Adjusted_Penalty>  (44) 
1.88598

>  <i_epik_Tot_Q>  (44) 
0

>  <i_epik_Tot_abs_Q>  (44) 
0

>  <s_epik_Chemistry_Notes>  (44) 
This compound contains an electron-poor aromatic ring that is susceptible to covalent hydrolysis at low pH, typically resulting in measured values for nitrogen ring protonation that are around two units higher than predicted values.

>  <s_lp_Force_Field>  (44) 
OPLS3e

>  <r_lp_Energy>  (44) 
30.0627

>  <b_lp_Chiralities_Consistent>  (44) 
1

>  <s_lp_Variant>  (44) 
15:0-2

>  <s_i_glide_gridfile>  (44) 
pfpi4k_grid

>  <i_i_glide_lignum>  (44) 
19

>  <i_i_glide_rotatable_bonds>  (44) 
4

>  <r_i_docking_score>  (44) 
-3.26902

>  <r_i_glide_ligand_efficiency>  (44) 
-0.204314

>  <r_i_glide_ligand_efficiency_sa>  (44) 
-0.514839

>  <r_i_glide_ligand_efficiency_ln>  (44) 
-0.86652

>  <r_i_glide_gscore>  (44) 
-3.26902

>  <r_i_glide_lipo>  (44) 
-0.112576

>  <r_i_glide_hbond>  (44) 
-0.16

>  <r_i_glide_metal>  (44) 
-0

>  <r_i_glide_rewards>  (44) 
-2.19663

>  <r_i_glide_evdw>  (44) 
-20.6499

>  <r_i_glide_ecoul>  (44) 
-3.18621

>  <r_i_glide_erotb>  (44) 
0.710612

>  <r_i_glide_esite>  (44) 
0

>  <r_i_glide_emodel>  (44) 
-28.7045

>  <r_i_glide_energy>  (44) 
-23.8361

>  <r_i_glide_einternal>  (44) 
0.596644

>  <r_i_glide_intrahb_reward>  (44) 
-0

>  <i_i_glide_confnum>  (44) 
1

>  <i_i_glide_posenum>  (44) 
19

>  <r_i_glide_eff_state_penalty>  (44) 
0

>  <ligand_id>  (44) 
15

>  <original_smiles>  (44) 
c1ncc(CNCC2CC23CCCC3)cn1

>  <smiles>  (44) 
[H]c1nc([H])c(C([H])([H])N([H])C([H])([H])C2([H])C([H])([H])C23C([H])([H])C([H])([H])C([H])([H])C3([H])[H])c([H])n1

$$$$
15:1:1
     RDKit          3D

 35 37  0  0  1  0  0  0  0  0999 V2000
    4.2033   -1.1112   -3.5148 C   0  0  0  0  0  0  0  0  0  0  0  0
    4.5717   -0.8705   -2.2589 N   0  0  0  0  0  0  0  0  0  0  0  0
    4.1160   -1.7436   -1.3305 C   0  0  0  0  0  0  0  0  0  0  0  0
    3.3501   -2.8613   -1.6927 C   0  0  0  0  0  0  0  0  0  0  0  0
    2.8655   -3.8414   -0.6636 C   0  0  0  0  0  0  0  0  0  0  0  0
    3.9722   -4.4421    0.0553 N   0  0  0  0  0  0  0  0  0  0  0  0
    3.6104   -5.7629    0.5425 C   0  0  0  0  0  0  0  0  0  0  0  0
    2.3296   -5.7718    1.3646 C   0  0  2  0  0  0  0  0  0  0  0  0
    2.3802   -5.8495    2.8707 C   0  0  0  0  0  0  0  0  0  0  0  0
    1.9302   -7.0434    2.0519 C   0  0  0  0  0  0  0  0  0  0  0  0
    2.7783   -8.2852    1.9553 C   0  0  0  0  0  0  0  0  0  0  0  0
    2.0322   -9.3455    2.7472 C   0  0  0  0  0  0  0  0  0  0  0  0
    0.5526   -8.9387    2.6967 C   0  0  0  0  0  0  0  0  0  0  0  0
    0.5078   -7.5306    2.0918 C   0  0  0  0  0  0  0  0  0  0  0  0
    3.0313   -3.0117   -3.0559 C   0  0  0  0  0  0  0  0  0  0  0  0
    3.4792   -2.1360   -3.9805 N   0  0  0  0  0  0  0  0  0  0  0  0
    4.5666   -0.4118   -4.2604 H   0  0  0  0  0  0  0  0  0  0  0  0
    4.3915   -1.5594   -0.3042 H   0  0  0  0  0  0  0  0  0  0  0  0
    2.2193   -3.3124    0.0348 H   0  0  0  0  0  0  0  0  0  0  0  0
    2.2614   -4.5994   -1.1585 H   0  0  0  0  0  0  0  0  0  0  0  0
    4.7805   -4.5158   -0.5472 H   0  0  0  0  0  0  0  0  0  0  0  0
    3.5019   -6.4367   -0.3094 H   0  0  0  0  0  0  0  0  0  0  0  0
    4.4410   -6.1450    1.1374 H   0  0  0  0  0  0  0  0  0  0  0  0
    1.4806   -5.2483    0.9369 H   0  0  0  0  0  0  0  0  0  0  0  0
    3.3697   -5.8768    3.3232 H   0  0  0  0  0  0  0  0  0  0  0  0
    1.6405   -5.2502    3.3933 H   0  0  0  0  0  0  0  0  0  0  0  0
    2.8501   -8.5688    0.8991 H   0  0  0  0  0  0  0  0  0  0  0  0
    3.7842   -8.0985    2.3480 H   0  0  0  0  0  0  0  0  0  0  0  0
    2.2072  -10.3371    2.3433 H   0  0  0  0  0  0  0  0  0  0  0  0
    2.3820   -9.3071    3.7750 H   0  0  0  0  0  0  0  0  0  0  0  0
   -0.0344   -9.6370    2.0852 H   0  0  0  0  0  0  0  0  0  0  0  0
    0.1193   -8.9351    3.7060 H   0  0  0  0  0  0  0  0  0  0  0  0
   -0.1084   -6.8576    2.6920 H   0  0  0  0  0  0  0  0  0  0  0  0
    0.1034   -7.5812    1.0751 H   0  0  0  0  0  0  0  0  0  0  0  0
    2.4340   -3.8366   -3.4130 H   0  0  0  0  0  0  0  0  0  0  0  0
  1 16  2  0
  1  2  1  0
  1 17  1  0
  2  3  2  0
  3  4  1  0
  3 18  1  0
  4  5  1  0
  4 15  2  0
  5  6  1  0
  5 19  1  0
  5 20  1  0
  6  7  1  0
  6 21  1  0
  7  8  1  0
  7 22  1  0
  7 23  1  0
  8 10  1  0
  8  9  1  0
  8 24  1  1
  9 10  1  0
  9 25  1  0
  9 26  1  0
 10 14  1  0
 10 11  1  0
 11 12  1  0
 11 27  1  0
 11 28  1  0
 12 13  1  0
 12 29  1  0
 12 30  1  0
 13 14  1  0
 13 31  1  0
 13 32  1  0
 14 33  1  0
 14 34  1  0
 15 16  1  0
 15 35  1  0
M  END
>  <i_m_ct_stereo_status>  (45) 
1

>  <s_m_source_file>  (45) 
/var/tmp/pbs.5076255.sched01/tmp7me73ahx/0ll6f151o.sdf

>  <i_m_source_file_index>  (45) 
19

>  <i_lp_mmshare_version>  (45) 
48012

>  <i_f3d_flags>  (45) 
0

>  <s_epik_input>  (45) 
W2NIXTFuW2NIXW5bY0hdYzFbQ0gyXVtOSF1bQ0gyXVtDQEhdKFtDSDJdMilDMjNbQ0gyXVtDSDJdW0NIMl1bQ0gyXTM=

>  <s_epik_cmdline>  (45) 
J2VwaWtfcHl0aG9uJywgJy1waHQnLCAnMi4wJywgJy1waCcsICc3LjAnLCAnLXRuJywgJzgnLCAnLW1hJywgJzIwMCcsICctaW1hZScsICc8aW5maWxlLm1hZT4nLCAnLW9tYWUnLCAnPG91dGZpbGUubWFlPic=

>  <r_lp_tautomer_probability>  (45) 
1

>  <r_epik_Ionization_Penalty>  (45) 
1.77433

>  <r_epik_Ionization_Penalty_Charging>  (45) 
0

>  <r_epik_Ionization_Penalty_Neutral>  (45) 
1.77433

>  <r_epik_State_Penalty>  (45) 
1.88598

>  <r_epik_Charging_Adjusted_Penalty>  (45) 
1.88598

>  <i_epik_Tot_Q>  (45) 
0

>  <i_epik_Tot_abs_Q>  (45) 
0

>  <s_epik_Chemistry_Notes>  (45) 
This compound contains an electron-poor aromatic ring that is susceptible to covalent hydrolysis at low pH, typically resulting in measured values for nitrogen ring protonation that are around two units higher than predicted values.

>  <s_lp_Force_Field>  (45) 
OPLS3e

>  <r_lp_Energy>  (45) 
30.0627

>  <b_lp_Chiralities_Consistent>  (45) 
1

>  <s_lp_Variant>  (45) 
15:0-2

>  <s_i_glide_gridfile>  (45) 
pfpi4k_grid

>  <i_i_glide_lignum>  (45) 
19

>  <i_i_glide_rotatable_bonds>  (45) 
4

>  <r_i_docking_score>  (45) 
-3.07169

>  <r_i_glide_ligand_efficiency>  (45) 
-0.191981

>  <r_i_glide_ligand_efficiency_sa>  (45) 
-0.483761

>  <r_i_glide_ligand_efficiency_ln>  (45) 
-0.814213

>  <r_i_glide_gscore>  (45) 
-3.07169

>  <r_i_glide_lipo>  (45) 
-0.0790867

>  <r_i_glide_hbond>  (45) 
-0.112416

>  <r_i_glide_metal>  (45) 
-0

>  <r_i_glide_rewards>  (45) 
-2.18887

>  <r_i_glide_evdw>  (45) 
-21.886

>  <r_i_glide_ecoul>  (45) 
-2.05089

>  <r_i_glide_erotb>  (45) 
0.710612

>  <r_i_glide_esite>  (45) 
0

>  <r_i_glide_emodel>  (45) 
-26.6755

>  <r_i_glide_energy>  (45) 
-23.9368

>  <r_i_glide_einternal>  (45) 
3.662

>  <r_i_glide_intrahb_reward>  (45) 
-0

>  <i_i_glide_confnum>  (45) 
1

>  <i_i_glide_posenum>  (45) 
30

>  <r_i_glide_eff_state_penalty>  (45) 
0

>  <ligand_id>  (45) 
15

>  <original_smiles>  (45) 
c1ncc(CNCC2CC23CCCC3)cn1

>  <smiles>  (45) 
[H]c1nc([H])c(C([H])([H])N([H])C([H])([H])C2([H])C([H])([H])C23C([H])([H])C([H])([H])C([H])([H])C3([H])[H])c([H])n1

$$$$
15:1:2
     RDKit          3D

 35 37  0  0  1  0  0  0  0  0999 V2000
    5.6011   -2.8059   -1.8541 C   0  0  0  0  0  0  0  0  0  0  0  0
    4.4195   -2.2893   -2.1642 N   0  0  0  0  0  0  0  0  0  0  0  0
    3.8935   -1.4186   -1.2755 C   0  0  0  0  0  0  0  0  0  0  0  0
    4.5664   -1.0661   -0.0946 C   0  0  0  0  0  0  0  0  0  0  0  0
    3.9771   -0.0896    0.9049 C   0  0  0  0  0  0  0  0  0  0  0  0
    2.6169   -0.4471    1.2595 N   0  0  0  0  0  0  0  0  0  0  0  0
    2.0460    0.5699    2.1179 C   0  0  0  0  0  0  0  0  0  0  0  0
    0.6143    0.1988    2.4383 C   0  0  2  0  0  0  0  0  0  0  0  0
   -0.5326    1.0435    1.9326 C   0  0  0  0  0  0  0  0  0  0  0  0
   -0.1455    1.0930    3.3948 C   0  0  0  0  0  0  0  0  0  0  0  0
    0.4781    2.3261    3.9734 C   0  0  0  0  0  0  0  0  0  0  0  0
   -0.5695    2.9383    4.8939 C   0  0  0  0  0  0  0  0  0  0  0  0
   -1.4823    1.7926    5.3238 C   0  0  0  0  0  0  0  0  0  0  0  0
   -1.0747    0.5998    4.4716 C   0  0  0  0  0  0  0  0  0  0  0  0
    5.8231   -1.6621    0.1120 C   0  0  0  0  0  0  0  0  0  0  0  0
    6.3521   -2.5149   -0.7925 N   0  0  0  0  0  0  0  0  0  0  0  0
    6.0076   -3.5091   -2.5627 H   0  0  0  0  0  0  0  0  0  0  0  0
    2.9358   -0.9980   -1.5341 H   0  0  0  0  0  0  0  0  0  0  0  0
    4.5945   -0.0496    1.8032 H   0  0  0  0  0  0  0  0  0  0  0  0
    4.0192    0.9121    0.4820 H   0  0  0  0  0  0  0  0  0  0  0  0
    2.0085   -0.5508    0.4362 H   0  0  0  0  0  0  0  0  0  0  0  0
    2.6164    0.6474    3.0446 H   0  0  0  0  0  0  0  0  0  0  0  0
    2.0682    1.5409    1.6255 H   0  0  0  0  0  0  0  0  0  0  0  0
    0.4375   -0.8674    2.5534 H   0  0  0  0  0  0  0  0  0  0  0  0
   -0.2720    1.8933    1.3041 H   0  0  0  0  0  0  0  0  0  0  0  0
   -1.4574    0.5454    1.6578 H   0  0  0  0  0  0  0  0  0  0  0  0
    1.3388    2.0079    4.5554 H   0  0  0  0  0  0  0  0  0  0  0  0
    0.8056    3.0145    3.1845 H   0  0  0  0  0  0  0  0  0  0  0  0
   -0.1107    3.4572    5.7344 H   0  0  0  0  0  0  0  0  0  0  0  0
   -1.1315    3.6571    4.3042 H   0  0  0  0  0  0  0  0  0  0  0  0
   -1.3477    1.5601    6.3749 H   0  0  0  0  0  0  0  0  0  0  0  0
   -2.5282    2.0386    5.1530 H   0  0  0  0  0  0  0  0  0  0  0  0
   -1.9343    0.1424    4.0171 H   0  0  0  0  0  0  0  0  0  0  0  0
   -0.5639   -0.1339    5.0814 H   0  0  0  0  0  0  0  0  0  0  0  0
    6.4212   -1.4519    0.9851 H   0  0  0  0  0  0  0  0  0  0  0  0
  1 16  2  0
  1  2  1  0
  1 17  1  0
  2  3  2  0
  3  4  1  0
  3 18  1  0
  4  5  1  0
  4 15  2  0
  5  6  1  0
  5 19  1  0
  5 20  1  0
  6  7  1  0
  6 21  1  0
  7  8  1  0
  7 22  1  0
  7 23  1  0
  8 10  1  0
  8  9  1  0
  8 24  1  1
  9 10  1  0
  9 25  1  0
  9 26  1  0
 10 14  1  0
 10 11  1  0
 11 12  1  0
 11 27  1  0
 11 28  1  0
 12 13  1  0
 12 29  1  0
 12 30  1  0
 13 14  1  0
 13 31  1  0
 13 32  1  0
 14 33  1  0
 14 34  1  0
 15 16  1  0
 15 35  1  0
M  END
>  <i_m_ct_stereo_status>  (46) 
1

>  <s_m_source_file>  (46) 
/var/tmp/pbs.5076255.sched01/tmp7me73ahx/0ll6f151o.sdf

>  <i_m_source_file_index>  (46) 
19

>  <i_lp_mmshare_version>  (46) 
48012

>  <i_f3d_flags>  (46) 
0

>  <s_epik_input>  (46) 
W2NIXTFuW2NIXW5bY0hdYzFbQ0gyXVtOSF1bQ0gyXVtDQEhdKFtDSDJdMilDMjNbQ0gyXVtDSDJdW0NIMl1bQ0gyXTM=

>  <s_epik_cmdline>  (46) 
J2VwaWtfcHl0aG9uJywgJy1waHQnLCAnMi4wJywgJy1waCcsICc3LjAnLCAnLXRuJywgJzgnLCAnLW1hJywgJzIwMCcsICctaW1hZScsICc8aW5maWxlLm1hZT4nLCAnLW9tYWUnLCAnPG91dGZpbGUubWFlPic=

>  <r_lp_tautomer_probability>  (46) 
1

>  <r_epik_Ionization_Penalty>  (46) 
1.77433

>  <r_epik_Ionization_Penalty_Charging>  (46) 
0

>  <r_epik_Ionization_Penalty_Neutral>  (46) 
1.77433

>  <r_epik_State_Penalty>  (46) 
1.88598

>  <r_epik_Charging_Adjusted_Penalty>  (46) 
1.88598

>  <i_epik_Tot_Q>  (46) 
0

>  <i_epik_Tot_abs_Q>  (46) 
0

>  <s_epik_Chemistry_Notes>  (46) 
This compound contains an electron-poor aromatic ring that is susceptible to covalent hydrolysis at low pH, typically resulting in measured values for nitrogen ring protonation that are around two units higher than predicted values.

>  <s_lp_Force_Field>  (46) 
OPLS3e

>  <r_lp_Energy>  (46) 
30.0627

>  <b_lp_Chiralities_Consistent>  (46) 
1

>  <s_lp_Variant>  (46) 
15:0-2

>  <s_i_glide_gridfile>  (46) 
pfpi4k_grid

>  <i_i_glide_lignum>  (46) 
19

>  <i_i_glide_rotatable_bonds>  (46) 
4

>  <r_i_docking_score>  (46) 
-3.05203

>  <r_i_glide_ligand_efficiency>  (46) 
-0.190752

>  <r_i_glide_ligand_efficiency_sa>  (46) 
-0.480665

>  <r_i_glide_ligand_efficiency_ln>  (46) 
-0.809002

>  <r_i_glide_gscore>  (46) 
-3.05203

>  <r_i_glide_lipo>  (46) 
-0.0732611

>  <r_i_glide_hbond>  (46) 
-0.16

>  <r_i_glide_metal>  (46) 
-0

>  <r_i_glide_rewards>  (46) 
-1.976

>  <r_i_glide_evdw>  (46) 
-19.7826

>  <r_i_glide_ecoul>  (46) 
-3.76169

>  <r_i_glide_erotb>  (46) 
0.710612

>  <r_i_glide_esite>  (46) 
0

>  <r_i_glide_emodel>  (46) 
-28.1339

>  <r_i_glide_energy>  (46) 
-23.5443

>  <r_i_glide_einternal>  (46) 
0.490985

>  <r_i_glide_intrahb_reward>  (46) 
-0

>  <i_i_glide_confnum>  (46) 
1

>  <i_i_glide_posenum>  (46) 
29

>  <r_i_glide_eff_state_penalty>  (46) 
0

>  <ligand_id>  (46) 
15

>  <original_smiles>  (46) 
c1ncc(CNCC2CC23CCCC3)cn1

>  <smiles>  (46) 
[H]c1nc([H])c(C([H])([H])N([H])C([H])([H])C2([H])C([H])([H])C23C([H])([H])C([H])([H])C([H])([H])C3([H])[H])c([H])n1

$$$$
17:0:0
     RDKit          3D

 50 56  0  0  1  0  0  0  0  0999 V2000
   -1.9149   -7.8380    4.1142 C   0  0  0  0  0  0  0  0  0  0  0  0
   -0.7528   -8.6530    4.5113 N   0  0  1  0  0  0  0  0  0  0  0  0
   -0.5108   -9.7708    3.5776 C   0  0  0  0  0  0  0  0  0  0  0  0
    0.2710   -9.3159    2.3492 C   0  0  0  0  0  0  0  0  0  0  0  0
    1.5519   -8.5542    2.7377 C   0  0  1  0  0  0  0  0  0  0  0  0
    2.4714   -9.4091    3.5593 C   0  0  0  0  0  0  0  0  0  0  0  0
    2.3912   -9.6073    4.9473 C   0  0  0  0  0  0  0  0  0  0  0  0
    3.3091  -10.5267    5.4944 C   0  0  0  0  0  0  0  0  0  0  0  0
    4.2387  -11.1703    4.6478 C   0  0  0  0  0  0  0  0  0  0  0  0
    4.3138  -10.8615    3.2633 C   0  0  0  0  0  0  0  0  0  0  0  0
    5.2406  -11.4772    2.4818 O   0  0  0  0  0  0  0  0  0  0  0  0
    3.4205   -9.9234    2.7022 C   0  0  0  0  0  0  0  0  0  0  0  0
    3.3712   -9.4078    1.4377 O   0  0  0  0  0  0  0  0  0  0  0  0
    2.4117   -8.3353    1.4698 C   0  0  2  0  0  0  0  0  0  0  0  0
    3.1532   -7.0362    1.5169 C   0  0  0  0  0  0  0  0  0  0  0  0
    3.9944   -6.5668    0.5215 N   0  0  0  0  0  0  0  0  0  0  0  0
    4.5044   -5.3279    0.8632 C   0  0  0  0  0  0  0  0  0  0  0  0
    5.3733   -4.4431    0.1977 C   0  0  0  0  0  0  0  0  0  0  0  0
    5.7352   -3.2240    0.8028 C   0  0  0  0  0  0  0  0  0  0  0  0
    5.2124   -2.9002    2.0701 C   0  0  0  0  0  0  0  0  0  0  0  0
    4.3337   -3.7902    2.7278 C   0  0  0  0  0  0  0  0  0  0  0  0
    3.9575   -5.0239    2.1444 C   0  0  0  0  0  0  0  0  0  0  0  0
    3.1077   -6.1181    2.5316 C   0  0  0  0  0  0  0  0  0  0  0  0
    2.2974   -6.3064    3.7780 C   0  0  0  0  0  0  0  0  0  0  0  0
    1.1333   -7.3071    3.5488 C   0  0  2  0  0  0  0  0  0  0  0  0
    0.4566   -7.8452    4.8440 C   0  0  2  0  0  0  0  0  0  0  0  0
    1.4305   -8.6901    5.6991 C   0  0  0  0  0  0  0  0  0  0  0  0
    4.1800   -7.0595   -0.3422 H   0  0  0  0  0  0  0  0  0  0  0  0
   -1.7813   -7.3637    3.1389 H   0  0  0  0  0  0  0  0  0  0  0  0
   -2.1415   -7.0611    4.8509 H   0  0  0  0  0  0  0  0  0  0  0  0
   -2.7770   -8.4979    4.0279 H   0  0  0  0  0  0  0  0  0  0  0  0
    0.0180  -10.5739    4.0869 H   0  0  0  0  0  0  0  0  0  0  0  0
   -1.4522  -10.2136    3.2613 H   0  0  0  0  0  0  0  0  0  0  0  0
    0.5106  -10.1947    1.7473 H   0  0  0  0  0  0  0  0  0  0  0  0
   -0.3713   -8.6905    1.7255 H   0  0  0  0  0  0  0  0  0  0  0  0
    3.2905  -10.7240    6.5580 H   0  0  0  0  0  0  0  0  0  0  0  0
    4.9118  -11.8917    5.0726 H   0  0  0  0  0  0  0  0  0  0  0  0
    4.9045  -11.6303    1.5873 H   0  0  0  0  0  0  0  0  0  0  0  0
    1.7634   -8.3953    0.6025 H   0  0  0  0  0  0  0  0  0  0  0  0
    5.7620   -4.7028   -0.7745 H   0  0  0  0  0  0  0  0  0  0  0  0
    6.4079   -2.5452    0.3013 H   0  0  0  0  0  0  0  0  0  0  0  0
    5.4865   -1.9682    2.5429 H   0  0  0  0  0  0  0  0  0  0  0  0
    3.9415   -3.5279    3.6976 H   0  0  0  0  0  0  0  0  0  0  0  0
    2.9548   -6.6677    4.5674 H   0  0  0  0  0  0  0  0  0  0  0  0
    1.9072   -5.3521    4.1310 H   0  0  0  0  0  0  0  0  0  0  0  0
    0.4015   -6.7527    2.9615 H   0  0  0  0  0  0  0  0  0  0  0  0
    0.1267   -7.0042    5.4552 H   0  0  0  0  0  0  0  0  0  0  0  0
    0.8849   -9.2820    6.4343 H   0  0  0  0  0  0  0  0  0  0  0  0
    2.0501   -8.0074    6.2816 H   0  0  0  0  0  0  0  0  0  0  0  0
   -1.0463   -9.1278    5.3570 H   0  0  0  0  0  0  0  0  0  0  0  0
  1  2  1  0
  1 29  1  0
  1 30  1  0
  1 31  1  0
  2 26  1  0
  2  3  1  0
  2 50  1  1
  3  4  1  0
  3 32  1  0
  3 33  1  0
  5  4  1  6
  4 34  1  0
  4 35  1  0
  5 14  1  0
  5 25  1  0
  5  6  1  0
  6 12  2  0
  6  7  1  0
  7 27  1  0
  7  8  2  0
  8  9  1  0
  8 36  1  0
  9 10  2  0
  9 37  1  0
 10 11  1  0
 10 12  1  0
 11 38  1  0
 12 13  1  0
 13 14  1  0
 14 15  1  0
 14 39  1  6
 15 23  2  0
 15 16  1  0
 16 28  1  0
 16 17  1  0
 17 22  2  0
 17 18  1  0
 18 19  2  0
 18 40  1  0
 19 20  1  0
 19 41  1  0
 20 21  2  0
 20 42  1  0
 21 22  1  0
 21 43  1  0
 22 23  1  0
 23 24  1  0
 24 25  1  0
 24 44  1  0
 24 45  1  0
 25 26  1  0
 25 46  1  6
 26 27  1  0
 26 47  1  1
 27 48  1  0
 27 49  1  0
M  CHG  1   2   1
M  END
>  <i_m_ct_stereo_status>  (47) 
1

>  <s_m_source_file>  (47) 
/var/tmp/pbs.5076255.sched01/tmp7me73ahx/0ll6f151o.sdf

>  <i_m_source_file_index>  (47) 
21

>  <i_lp_mmshare_version>  (47) 
48012

>  <i_f3d_flags>  (47) 
0

>  <s_epik_input>  (47) 
W0NIMl0xW0NIMl1OKFtDSDNdKVtDQEBIXShbQ0gyXTIpW0NASF0zW0NIMl1jKGM0YyhbbkhdNSlbY0hdW2NIXVtjSF1bY0hdNCljNVtDQEhdNk9jN2MoW09IXSlbY0hdW2NIXWMyYzdbQ0BAXTEzNg==

>  <s_epik_cmdline>  (47) 
J2VwaWtfcHl0aG9uJywgJy1waHQnLCAnMi4wJywgJy1waCcsICc3LjAnLCAnLXRuJywgJzgnLCAnLW1hJywgJzIwMCcsICctaW1hZScsICc8aW5maWxlLm1hZT4nLCAnLW9tYWUnLCAnPG91dGZpbGUubWFlPic=

>  <r_lp_tautomer_probability>  (47) 
1

>  <r_epik_Ionization_Penalty>  (47) 
0.0546977

>  <r_epik_Ionization_Penalty_Charging>  (47) 
0.0405781

>  <r_epik_Ionization_Penalty_Neutral>  (47) 
0.0141195

>  <r_epik_State_Penalty>  (47) 
0.0445778

>  <r_epik_Charging_Adjusted_Penalty>  (47) 
0.085156

>  <i_epik_Tot_Q>  (47) 
1

>  <i_epik_Tot_abs_Q>  (47) 
1

>  <s_lp_Force_Field>  (47) 
OPLS3e

>  <r_lp_Energy>  (47) 
61.4921

>  <b_lp_Chiralities_Consistent>  (47) 
1

>  <s_lp_Variant>  (47) 
17:0-1

>  <s_i_glide_gridfile>  (47) 
pfpi4k_grid

>  <i_i_glide_lignum>  (47) 
21

>  <i_i_glide_rotatable_bonds>  (47) 
1

>  <r_i_docking_score>  (47) 
-3.37219

>  <r_i_glide_ligand_efficiency>  (47) 
-0.124896

>  <r_i_glide_ligand_efficiency_sa>  (47) 
-0.374688

>  <r_i_glide_ligand_efficiency_ln>  (47) 
-0.784991

>  <r_i_glide_gscore>  (47) 
-3.37219

>  <r_i_glide_lipo>  (47) 
-0.298493

>  <r_i_glide_hbond>  (47) 
-0.0334941

>  <r_i_glide_metal>  (47) 
-0

>  <r_i_glide_rewards>  (47) 
-0.958357

>  <r_i_glide_evdw>  (47) 
-16.7542

>  <r_i_glide_ecoul>  (47) 
-7.67495

>  <r_i_glide_erotb>  (47) 
0

>  <r_i_glide_esite>  (47) 
-0.0928962

>  <r_i_glide_emodel>  (47) 
-32.2284

>  <r_i_glide_energy>  (47) 
-24.4291

>  <r_i_glide_einternal>  (47) 
0.995222

>  <r_i_glide_intrahb_reward>  (47) 
-0

>  <i_i_glide_confnum>  (47) 
1

>  <i_i_glide_posenum>  (47) 
6

>  <r_i_glide_eff_state_penalty>  (47) 
0

>  <ligand_id>  (47) 
17

>  <original_smiles>  (47) 
CN1CCC23c4c5ccc(O)c4OC2c2[nH]c4ccccc4c2CC3C1C5

>  <smiles>  (47) 
[H]Oc1c([H])c([H])c2c3c1OC1([H])c4c(c5c([H])c([H])c([H])c([H])c5n4[H])C([H])([H])C4([H])C31C([H])([H])C([H])([H])[N+]([H])(C([H])([H])[H])C4([H])C2([H])[H]

$$$$
17:0:1
     RDKit          3D

 50 56  0  0  1  0  0  0  0  0999 V2000
    1.0577  -11.2247    4.5134 C   0  0  0  0  0  0  0  0  0  0  0  0
    2.5172  -10.9672    4.5036 N   0  0  1  0  0  0  0  0  0  0  0  0
    3.1346  -11.2489    3.1797 C   0  0  0  0  0  0  0  0  0  0  0  0
    2.9686  -10.0624    2.2149 C   0  0  0  0  0  0  0  0  0  0  0  0
    3.4481   -8.7298    2.8394 C   0  0  1  0  0  0  0  0  0  0  0  0
    4.8996   -8.7939    3.2245 C   0  0  0  0  0  0  0  0  0  0  0  0
    5.4224   -9.3359    4.4152 C   0  0  0  0  0  0  0  0  0  0  0  0
    6.8264   -9.3662    4.5167 C   0  0  0  0  0  0  0  0  0  0  0  0
    7.6174   -8.8659    3.4512 C   0  0  0  0  0  0  0  0  0  0  0  0
    7.0246   -8.2623    2.3134 C   0  0  0  0  0  0  0  0  0  0  0  0
    7.8152   -7.7462    1.3240 O   0  0  0  0  0  0  0  0  0  0  0  0
    5.6171   -8.1901    2.2103 C   0  0  0  0  0  0  0  0  0  0  0  0
    4.8364   -7.5813    1.2626 O   0  0  0  0  0  0  0  0  0  0  0  0
    3.4781   -7.6212    1.7424 C   0  0  2  0  0  0  0  0  0  0  0  0
    3.1305   -6.2817    2.3074 C   0  0  0  0  0  0  0  0  0  0  0  0
    3.0628   -5.1195    1.5623 N   0  0  0  0  0  0  0  0  0  0  0  0
    2.6957   -4.0559    2.3651 C   0  0  0  0  0  0  0  0  0  0  0  0
    2.4831   -2.6922    2.0931 C   0  0  0  0  0  0  0  0  0  0  0  0
    2.0981   -1.8224    3.1305 C   0  0  0  0  0  0  0  0  0  0  0  0
    1.9292   -2.3298    4.4340 C   0  0  0  0  0  0  0  0  0  0  0  0
    2.1418   -3.6987    4.6976 C   0  0  0  0  0  0  0  0  0  0  0  0
    2.5279   -4.5963    3.6740 C   0  0  0  0  0  0  0  0  0  0  0  0
    2.8102   -6.0049    3.6072 C   0  0  0  0  0  0  0  0  0  0  0  0
    2.7858   -7.0462    4.6911 C   0  0  0  0  0  0  0  0  0  0  0  0
    2.5942   -8.4725    4.1052 C   0  0  2  0  0  0  0  0  0  0  0  0
    2.9044   -9.6423    5.0856 C   0  0  2  0  0  0  0  0  0  0  0  0
    4.3960   -9.6656    5.5025 C   0  0  0  0  0  0  0  0  0  0  0  0
    3.2694   -5.0833    0.5747 H   0  0  0  0  0  0  0  0  0  0  0  0
    0.5347  -10.5730    3.8125 H   0  0  0  0  0  0  0  0  0  0  0  0
    0.6387  -11.0703    5.5092 H   0  0  0  0  0  0  0  0  0  0  0  0
    0.8573  -12.2571    4.2229 H   0  0  0  0  0  0  0  0  0  0  0  0
    4.1941  -11.4688    3.3028 H   0  0  0  0  0  0  0  0  0  0  0  0
    2.7071  -12.1508    2.7426 H   0  0  0  0  0  0  0  0  0  0  0  0
    3.5181  -10.2529    1.2939 H   0  0  0  0  0  0  0  0  0  0  0  0
    1.9182   -9.9737    1.9198 H   0  0  0  0  0  0  0  0  0  0  0  0
    7.2908   -9.7566    5.4118 H   0  0  0  0  0  0  0  0  0  0  0  0
    8.6884   -8.9197    3.5334 H   0  0  0  0  0  0  0  0  0  0  0  0
    8.7462   -7.8552    1.4696 H   0  0  0  0  0  0  0  0  0  0  0  0
    2.8010   -7.8460    0.9181 H   0  0  0  0  0  0  0  0  0  0  0  0
    2.6072   -2.3118    1.0909 H   0  0  0  0  0  0  0  0  0  0  0  0
    1.9385   -0.7714    2.9256 H   0  0  0  0  0  0  0  0  0  0  0  0
    1.6446   -1.6647    5.2372 H   0  0  0  0  0  0  0  0  0  0  0  0
    2.0140   -4.0766    5.6995 H   0  0  0  0  0  0  0  0  0  0  0  0
    3.7215   -6.9886    5.2487 H   0  0  0  0  0  0  0  0  0  0  0  0
    1.9962   -6.8289    5.4096 H   0  0  0  0  0  0  0  0  0  0  0  0
    1.5446   -8.5195    3.8110 H   0  0  0  0  0  0  0  0  0  0  0  0
    2.3193   -9.5192    5.9969 H   0  0  0  0  0  0  0  0  0  0  0  0
    4.6566  -10.6217    5.9543 H   0  0  0  0  0  0  0  0  0  0  0  0
    4.5380   -8.9242    6.2866 H   0  0  0  0  0  0  0  0  0  0  0  0
    2.8888  -11.6639    5.1357 H   0  0  0  0  0  0  0  0  0  0  0  0
  1  2  1  0
  1 29  1  0
  1 30  1  0
  1 31  1  0
  2 26  1  0
  2  3  1  0
  2 50  1  1
  3  4  1  0
  3 32  1  0
  3 33  1  0
  5  4  1  6
  4 34  1  0
  4 35  1  0
  5 14  1  0
  5 25  1  0
  5  6  1  0
  6 12  2  0
  6  7  1  0
  7 27  1  0
  7  8  2  0
  8  9  1  0
  8 36  1  0
  9 10  2  0
  9 37  1  0
 10 11  1  0
 10 12  1  0
 11 38  1  0
 12 13  1  0
 13 14  1  0
 14 15  1  0
 14 39  1  6
 15 23  2  0
 15 16  1  0
 16 28  1  0
 16 17  1  0
 17 22  2  0
 17 18  1  0
 18 19  2  0
 18 40  1  0
 19 20  1  0
 19 41  1  0
 20 21  2  0
 20 42  1  0
 21 22  1  0
 21 43  1  0
 22 23  1  0
 23 24  1  0
 24 25  1  0
 24 44  1  0
 24 45  1  0
 25 26  1  0
 25 46  1  6
 26 27  1  0
 26 47  1  1
 27 48  1  0
 27 49  1  0
M  CHG  1   2   1
M  END
>  <i_m_ct_stereo_status>  (48) 
1

>  <s_m_source_file>  (48) 
/var/tmp/pbs.5076255.sched01/tmp7me73ahx/0ll6f151o.sdf

>  <i_m_source_file_index>  (48) 
21

>  <i_lp_mmshare_version>  (48) 
48012

>  <i_f3d_flags>  (48) 
0

>  <s_epik_input>  (48) 
W0NIMl0xW0NIMl1OKFtDSDNdKVtDQEBIXShbQ0gyXTIpW0NASF0zW0NIMl1jKGM0YyhbbkhdNSlbY0hdW2NIXVtjSF1bY0hdNCljNVtDQEhdNk9jN2MoW09IXSlbY0hdW2NIXWMyYzdbQ0BAXTEzNg==

>  <s_epik_cmdline>  (48) 
J2VwaWtfcHl0aG9uJywgJy1waHQnLCAnMi4wJywgJy1waCcsICc3LjAnLCAnLXRuJywgJzgnLCAnLW1hJywgJzIwMCcsICctaW1hZScsICc8aW5maWxlLm1hZT4nLCAnLW9tYWUnLCAnPG91dGZpbGUubWFlPic=

>  <r_lp_tautomer_probability>  (48) 
1

>  <r_epik_Ionization_Penalty>  (48) 
0.0546977

>  <r_epik_Ionization_Penalty_Charging>  (48) 
0.0405781

>  <r_epik_Ionization_Penalty_Neutral>  (48) 
0.0141195

>  <r_epik_State_Penalty>  (48) 
0.0445778

>  <r_epik_Charging_Adjusted_Penalty>  (48) 
0.085156

>  <i_epik_Tot_Q>  (48) 
1

>  <i_epik_Tot_abs_Q>  (48) 
1

>  <s_lp_Force_Field>  (48) 
OPLS3e

>  <r_lp_Energy>  (48) 
61.4921

>  <b_lp_Chiralities_Consistent>  (48) 
1

>  <s_lp_Variant>  (48) 
17:0-1

>  <s_i_glide_gridfile>  (48) 
pfpi4k_grid

>  <i_i_glide_lignum>  (48) 
21

>  <i_i_glide_rotatable_bonds>  (48) 
1

>  <r_i_docking_score>  (48) 
-3.14819

>  <r_i_glide_ligand_efficiency>  (48) 
-0.1166

>  <r_i_glide_ligand_efficiency_sa>  (48) 
-0.349799

>  <r_i_glide_ligand_efficiency_ln>  (48) 
-0.732846

>  <r_i_glide_gscore>  (48) 
-3.14819

>  <r_i_glide_lipo>  (48) 
-0.195178

>  <r_i_glide_hbond>  (48) 
0

>  <r_i_glide_metal>  (48) 
-0

>  <r_i_glide_rewards>  (48) 
-0.958357

>  <r_i_glide_evdw>  (48) 
-19.0522

>  <r_i_glide_ecoul>  (48) 
-6.73777

>  <r_i_glide_erotb>  (48) 
0

>  <r_i_glide_esite>  (48) 
-0.0313768

>  <r_i_glide_emodel>  (48) 
-33.8584

>  <r_i_glide_energy>  (48) 
-25.79

>  <r_i_glide_einternal>  (48) 
0.00101305

>  <r_i_glide_intrahb_reward>  (48) 
-0

>  <i_i_glide_confnum>  (48) 
1

>  <i_i_glide_posenum>  (48) 
1

>  <r_i_glide_eff_state_penalty>  (48) 
0

>  <ligand_id>  (48) 
17

>  <original_smiles>  (48) 
CN1CCC23c4c5ccc(O)c4OC2c2[nH]c4ccccc4c2CC3C1C5

>  <smiles>  (48) 
[H]Oc1c([H])c([H])c2c3c1OC1([H])c4c(c5c([H])c([H])c([H])c([H])c5n4[H])C([H])([H])C4([H])C31C([H])([H])C([H])([H])[N+]([H])(C([H])([H])[H])C4([H])C2([H])[H]

$$$$
17:0:2
     RDKit          3D

 50 56  0  0  1  0  0  0  0  0999 V2000
   -1.3816   -9.2207    2.9581 C   0  0  0  0  0  0  0  0  0  0  0  0
   -0.1806   -9.8142    3.5912 N   0  0  1  0  0  0  0  0  0  0  0  0
    0.7428  -10.4131    2.5911 C   0  0  0  0  0  0  0  0  0  0  0  0
    1.6552   -9.3476    1.9550 C   0  0  0  0  0  0  0  0  0  0  0  0
    2.3781   -8.4899    3.0192 C   0  0  1  0  0  0  0  0  0  0  0  0
    3.2342   -9.3361    3.9142 C   0  0  0  0  0  0  0  0  0  0  0  0
    2.8018  -10.0567    5.0432 C   0  0  0  0  0  0  0  0  0  0  0  0
    3.7684  -10.8627    5.6716 C   0  0  0  0  0  0  0  0  0  0  0  0
    5.0881  -10.9039    5.1564 C   0  0  0  0  0  0  0  0  0  0  0  0
    5.4767  -10.0908    4.0606 C   0  0  0  0  0  0  0  0  0  0  0  0
    6.7653  -10.1166    3.6142 O   0  0  0  0  0  0  0  0  0  0  0  0
    4.5289   -9.2487    3.4397 C   0  0  0  0  0  0  0  0  0  0  0  0
    4.6959   -8.3232    2.4442 O   0  0  0  0  0  0  0  0  0  0  0  0
    3.4556   -7.5995    2.3278 C   0  0  2  0  0  0  0  0  0  0  0  0
    3.6027   -6.2843    3.0219 C   0  0  0  0  0  0  0  0  0  0  0  0
    4.4725   -5.2888    2.6183 N   0  0  0  0  0  0  0  0  0  0  0  0
    4.3556   -4.1863    3.4421 C   0  0  0  0  0  0  0  0  0  0  0  0
    4.9999   -2.9358    3.4461 C   0  0  0  0  0  0  0  0  0  0  0  0
    4.6716   -1.9841    4.4300 C   0  0  0  0  0  0  0  0  0  0  0  0
    3.6987   -2.2948    5.3992 C   0  0  0  0  0  0  0  0  0  0  0  0
    3.0541   -3.5493    5.3842 C   0  0  0  0  0  0  0  0  0  0  0  0
    3.3633   -4.5255    4.4074 C   0  0  0  0  0  0  0  0  0  0  0  0
    2.9020   -5.8566    4.1163 C   0  0  0  0  0  0  0  0  0  0  0  0
    1.8680   -6.6926    4.8136 C   0  0  0  0  0  0  0  0  0  0  0  0
    1.2936   -7.7842    3.8705 C   0  0  2  0  0  0  0  0  0  0  0  0
    0.4916   -8.9141    4.5814 C   0  0  2  0  0  0  0  0  0  0  0  0
    1.3835   -9.7517    5.5292 C   0  0  0  0  0  0  0  0  0  0  0  0
    5.0896   -5.3821    1.8259 H   0  0  0  0  0  0  0  0  0  0  0  0
   -1.1169   -8.4013    2.2896 H   0  0  0  0  0  0  0  0  0  0  0  0
   -2.0763   -8.8534    3.7148 H   0  0  0  0  0  0  0  0  0  0  0  0
   -1.9044   -9.9691    2.3629 H   0  0  0  0  0  0  0  0  0  0  0  0
    1.3523  -11.1832    3.0606 H   0  0  0  0  0  0  0  0  0  0  0  0
    0.1724  -10.9316    1.8214 H   0  0  0  0  0  0  0  0  0  0  0  0
    2.3766   -9.8372    1.2954 H   0  0  0  0  0  0  0  0  0  0  0  0
    1.0684   -8.6858    1.3114 H   0  0  0  0  0  0  0  0  0  0  0  0
    3.4941  -11.4356    6.5484 H   0  0  0  0  0  0  0  0  0  0  0  0
    5.8059  -11.5439    5.6386 H   0  0  0  0  0  0  0  0  0  0  0  0
    7.2956  -10.7468    4.0754 H   0  0  0  0  0  0  0  0  0  0  0  0
    3.2296   -7.4231    1.2749 H   0  0  0  0  0  0  0  0  0  0  0  0
    5.7446   -2.7094    2.7010 H   0  0  0  0  0  0  0  0  0  0  0  0
    5.1679   -1.0229    4.4430 H   0  0  0  0  0  0  0  0  0  0  0  0
    3.4470   -1.5700    6.1611 H   0  0  0  0  0  0  0  0  0  0  0  0
    2.3103   -3.7752    6.1316 H   0  0  0  0  0  0  0  0  0  0  0  0
    2.3278   -7.1510    5.6896 H   0  0  0  0  0  0  0  0  0  0  0  0
    1.0649   -6.0628    5.1953 H   0  0  0  0  0  0  0  0  0  0  0  0
    0.6313   -7.2471    3.1902 H   0  0  0  0  0  0  0  0  0  0  0  0
   -0.3006   -8.4761    5.1886 H   0  0  0  0  0  0  0  0  0  0  0  0
    0.8920  -10.6868    5.7967 H   0  0  0  0  0  0  0  0  0  0  0  0
    1.4921   -9.2067    6.4653 H   0  0  0  0  0  0  0  0  0  0  0  0
   -0.5526  -10.5821    4.1434 H   0  0  0  0  0  0  0  0  0  0  0  0
  1  2  1  0
  1 29  1  0
  1 30  1  0
  1 31  1  0
  2 26  1  0
  2  3  1  0
  2 50  1  1
  3  4  1  0
  3 32  1  0
  3 33  1  0
  5  4  1  6
  4 34  1  0
  4 35  1  0
  5 14  1  0
  5 25  1  0
  5  6  1  0
  6 12  2  0
  6  7  1  0
  7 27  1  0
  7  8  2  0
  8  9  1  0
  8 36  1  0
  9 10  2  0
  9 37  1  0
 10 11  1  0
 10 12  1  0
 11 38  1  0
 12 13  1  0
 13 14  1  0
 14 15  1  0
 14 39  1  6
 15 23  2  0
 15 16  1  0
 16 28  1  0
 16 17  1  0
 17 22  2  0
 17 18  1  0
 18 19  2  0
 18 40  1  0
 19 20  1  0
 19 41  1  0
 20 21  2  0
 20 42  1  0
 21 22  1  0
 21 43  1  0
 22 23  1  0
 23 24  1  0
 24 25  1  0
 24 44  1  0
 24 45  1  0
 25 26  1  0
 25 46  1  6
 26 27  1  0
 26 47  1  1
 27 48  1  0
 27 49  1  0
M  CHG  1   2   1
M  END
>  <i_m_ct_stereo_status>  (49) 
1

>  <s_m_source_file>  (49) 
/var/tmp/pbs.5076255.sched01/tmp7me73ahx/0ll6f151o.sdf

>  <i_m_source_file_index>  (49) 
21

>  <i_lp_mmshare_version>  (49) 
48012

>  <i_f3d_flags>  (49) 
0

>  <s_epik_input>  (49) 
W0NIMl0xW0NIMl1OKFtDSDNdKVtDQEBIXShbQ0gyXTIpW0NASF0zW0NIMl1jKGM0YyhbbkhdNSlbY0hdW2NIXVtjSF1bY0hdNCljNVtDQEhdNk9jN2MoW09IXSlbY0hdW2NIXWMyYzdbQ0BAXTEzNg==

>  <s_epik_cmdline>  (49) 
J2VwaWtfcHl0aG9uJywgJy1waHQnLCAnMi4wJywgJy1waCcsICc3LjAnLCAnLXRuJywgJzgnLCAnLW1hJywgJzIwMCcsICctaW1hZScsICc8aW5maWxlLm1hZT4nLCAnLW9tYWUnLCAnPG91dGZpbGUubWFlPic=

>  <r_lp_tautomer_probability>  (49) 
1

>  <r_epik_Ionization_Penalty>  (49) 
0.0546977

>  <r_epik_Ionization_Penalty_Charging>  (49) 
0.0405781

>  <r_epik_Ionization_Penalty_Neutral>  (49) 
0.0141195

>  <r_epik_State_Penalty>  (49) 
0.0445778

>  <r_epik_Charging_Adjusted_Penalty>  (49) 
0.085156

>  <i_epik_Tot_Q>  (49) 
1

>  <i_epik_Tot_abs_Q>  (49) 
1

>  <s_lp_Force_Field>  (49) 
OPLS3e

>  <r_lp_Energy>  (49) 
61.4921

>  <b_lp_Chiralities_Consistent>  (49) 
1

>  <s_lp_Variant>  (49) 
17:0-1

>  <s_i_glide_gridfile>  (49) 
pfpi4k_grid

>  <i_i_glide_lignum>  (49) 
21

>  <i_i_glide_rotatable_bonds>  (49) 
1

>  <r_i_docking_score>  (49) 
-2.99284

>  <r_i_glide_ligand_efficiency>  (49) 
-0.110846

>  <r_i_glide_ligand_efficiency_sa>  (49) 
-0.332537

>  <r_i_glide_ligand_efficiency_ln>  (49) 
-0.696683

>  <r_i_glide_gscore>  (49) 
-2.99284

>  <r_i_glide_lipo>  (49) 
-0.332083

>  <r_i_glide_hbond>  (49) 
-0.159642

>  <r_i_glide_metal>  (49) 
-0

>  <r_i_glide_rewards>  (49) 
-0.958357

>  <r_i_glide_evdw>  (49) 
-17.6547

>  <r_i_glide_ecoul>  (49) 
-4.01507

>  <r_i_glide_erotb>  (49) 
0

>  <r_i_glide_esite>  (49) 
-0.0577578

>  <r_i_glide_emodel>  (49) 
-29.3162

>  <r_i_glide_energy>  (49) 
-21.6698

>  <r_i_glide_einternal>  (49) 
0.0188861

>  <r_i_glide_intrahb_reward>  (49) 
-0

>  <i_i_glide_confnum>  (49) 
2

>  <i_i_glide_posenum>  (49) 
25

>  <r_i_glide_eff_state_penalty>  (49) 
0

>  <ligand_id>  (49) 
17

>  <original_smiles>  (49) 
CN1CCC23c4c5ccc(O)c4OC2c2[nH]c4ccccc4c2CC3C1C5

>  <smiles>  (49) 
[H]Oc1c([H])c([H])c2c3c1OC1([H])c4c(c5c([H])c([H])c([H])c([H])c5n4[H])C([H])([H])C4([H])C31C([H])([H])C([H])([H])[N+]([H])(C([H])([H])[H])C4([H])C2([H])[H]

$$$$
17:1:0
     RDKit          3D

 49 55  0  0  1  0  0  0  0  0999 V2000
   -1.9778    4.6355    2.7206 C   0  0  0  0  0  0  0  0  0  0  0  0
   -1.3613    4.3178    4.0003 N   0  0  0  0  0  0  0  0  0  0  0  0
   -2.1821    3.4000    4.8000 C   0  0  0  0  0  0  0  0  0  0  0  0
   -2.0032    1.9289    4.3982 C   0  0  0  0  0  0  0  0  0  0  0  0
   -0.5199    1.5167    4.3527 C   0  0  1  0  0  0  0  0  0  0  0  0
    0.1573    1.6906    5.6843 C   0  0  0  0  0  0  0  0  0  0  0  0
    0.6951    2.8866    6.1927 C   0  0  0  0  0  0  0  0  0  0  0  0
    1.2424    2.8172    7.4881 C   0  0  0  0  0  0  0  0  0  0  0  0
    1.2150    1.5932    8.2033 C   0  0  0  0  0  0  0  0  0  0  0  0
    0.7108    0.4092    7.6081 C   0  0  0  0  0  0  0  0  0  0  0  0
    0.7220   -0.7642    8.3053 O   0  0  0  0  0  0  0  0  0  0  0  0
    0.2037    0.4465    6.2906 C   0  0  0  0  0  0  0  0  0  0  0  0
   -0.2317   -0.5766    5.4894 O   0  0  0  0  0  0  0  0  0  0  0  0
   -0.4006   -0.0282    4.1635 C   0  0  2  0  0  0  0  0  0  0  0  0
    0.8005   -0.3824    3.3396 C   0  0  0  0  0  0  0  0  0  0  0  0
    1.1591   -1.6734    2.9981 N   0  0  0  0  0  0  0  0  0  0  0  0
    2.2875   -1.6643    2.2021 C   0  0  0  0  0  0  0  0  0  0  0  0
    3.0245   -2.6963    1.5935 C   0  0  0  0  0  0  0  0  0  0  0  0
    4.1649   -2.3834    0.8294 C   0  0  0  0  0  0  0  0  0  0  0  0
    4.5527   -1.0392    0.6779 C   0  0  0  0  0  0  0  0  0  0  0  0
    3.7988   -0.0141    1.2822 C   0  0  0  0  0  0  0  0  0  0  0  0
    2.6510   -0.2953    2.0594 C   0  0  0  0  0  0  0  0  0  0  0  0
    1.6924    0.4951    2.7846 C   0  0  0  0  0  0  0  0  0  0  0  0
    1.6042    1.9850    2.9583 C   0  0  0  0  0  0  0  0  0  0  0  0
    0.1590    2.4279    3.3048 C   0  0  2  0  0  0  0  0  0  0  0  0
    0.0445    3.8843    3.8478 C   0  0  2  0  0  0  0  0  0  0  0  0
    0.7465    4.0641    5.2175 C   0  0  0  0  0  0  0  0  0  0  0  0
    0.6316   -2.4830    3.2829 H   0  0  0  0  0  0  0  0  0  0  0  0
   -2.9708    5.0581    2.8664 H   0  0  0  0  0  0  0  0  0  0  0  0
   -2.0754    3.7568    2.0859 H   0  0  0  0  0  0  0  0  0  0  0  0
   -1.3848    5.3824    2.1896 H   0  0  0  0  0  0  0  0  0  0  0  0
   -1.9226    3.5127    5.8528 H   0  0  0  0  0  0  0  0  0  0  0  0
   -3.2308    3.6677    4.7196 H   0  0  0  0  0  0  0  0  0  0  0  0
   -2.5447    1.2909    5.0963 H   0  0  0  0  0  0  0  0  0  0  0  0
   -2.4579    1.7567    3.4225 H   0  0  0  0  0  0  0  0  0  0  0  0
    1.6878    3.6947    7.9300 H   0  0  0  0  0  0  0  0  0  0  0  0
    1.6078    1.5712    9.2047 H   0  0  0  0  0  0  0  0  0  0  0  0
    1.2010   -0.6898    9.1163 H   0  0  0  0  0  0  0  0  0  0  0  0
   -1.2938   -0.4510    3.6999 H   0  0  0  0  0  0  0  0  0  0  0  0
    2.7180   -3.7205    1.7157 H   0  0  0  0  0  0  0  0  0  0  0  0
    4.7411   -3.1712    0.3656 H   0  0  0  0  0  0  0  0  0  0  0  0
    5.4263   -0.7823    0.0980 H   0  0  0  0  0  0  0  0  0  0  0  0
    4.0938    1.0103    1.1501 H   0  0  0  0  0  0  0  0  0  0  0  0
    2.2913    2.2806    3.7513 H   0  0  0  0  0  0  0  0  0  0  0  0
    1.9400    2.4953    2.0570 H   0  0  0  0  0  0  0  0  0  0  0  0
   -0.3990    2.3380    2.3715 H   0  0  0  0  0  0  0  0  0  0  0  0
    0.5211    4.5697    3.1431 H   0  0  0  0  0  0  0  0  0  0  0  0
    0.3792    4.9558    5.7249 H   0  0  0  0  0  0  0  0  0  0  0  0
    1.8013    4.2443    5.0248 H   0  0  0  0  0  0  0  0  0  0  0  0
  1  2  1  0
  1 29  1  0
  1 30  1  0
  1 31  1  0
  2 26  1  0
  2  3  1  0
  3  4  1  0
  3 32  1  0
  3 33  1  0
  5  4  1  1
  4 34  1  0
  4 35  1  0
  5 14  1  0
  5 25  1  0
  5  6  1  0
  6 12  2  0
  6  7  1  0
  7 27  1  0
  7  8  2  0
  8  9  1  0
  8 36  1  0
  9 10  2  0
  9 37  1  0
 10 11  1  0
 10 12  1  0
 11 38  1  0
 12 13  1  0
 13 14  1  0
 14 15  1  0
 14 39  1  6
 15 23  2  0
 15 16  1  0
 16 28  1  0
 16 17  1  0
 17 22  2  0
 17 18  1  0
 18 19  2  0
 18 40  1  0
 19 20  1  0
 19 41  1  0
 20 21  2  0
 20 42  1  0
 21 22  1  0
 21 43  1  0
 22 23  1  0
 23 24  1  0
 24 25  1  0
 24 44  1  0
 24 45  1  0
 25 26  1  0
 25 46  1  6
 26 27  1  0
 26 47  1  6
 27 48  1  0
 27 49  1  0
M  END
>  <i_m_ct_stereo_status>  (50) 
1

>  <s_m_source_file>  (50) 
/var/tmp/pbs.5076255.sched01/tmp7me73ahx/0ll6f151o.sdf

>  <i_m_source_file_index>  (50) 
22

>  <i_lp_mmshare_version>  (50) 
48012

>  <i_f3d_flags>  (50) 
0

>  <s_epik_input>  (50) 
W0NIMl0xW0NIMl1OKFtDSDNdKVtDQEBIXShbQ0gyXTIpW0NASF0zW0NIMl1jKGM0YyhbbkhdNSlbY0hdW2NIXVtjSF1bY0hdNCljNVtDQEhdNk9jN2MoW09IXSlbY0hdW2NIXWMyYzdbQ0BAXTEzNg==

>  <s_epik_cmdline>  (50) 
J2VwaWtfcHl0aG9uJywgJy1waHQnLCAnMi4wJywgJy1waCcsICc3LjAnLCAnLXRuJywgJzgnLCAnLW1hJywgJzIwMCcsICctaW1hZScsICc8aW5maWxlLm1hZT4nLCAnLW9tYWUnLCAnPG91dGZpbGUubWFlPic=

>  <r_lp_tautomer_probability>  (50) 
1

>  <r_epik_Ionization_Penalty>  (50) 
1.61104

>  <r_epik_Ionization_Penalty_Charging>  (50) 
0

>  <r_epik_Ionization_Penalty_Neutral>  (50) 
1.61104

>  <r_epik_State_Penalty>  (50) 
1.71787

>  <r_epik_Charging_Adjusted_Penalty>  (50) 
1.71787

>  <i_epik_Tot_Q>  (50) 
0

>  <i_epik_Tot_abs_Q>  (50) 
0

>  <s_lp_Force_Field>  (50) 
OPLS3e

>  <r_lp_Energy>  (50) 
57.2897

>  <b_lp_Chiralities_Consistent>  (50) 
1

>  <s_lp_Variant>  (50) 
17:0-2

>  <s_i_glide_gridfile>  (50) 
pfpi4k_grid

>  <i_i_glide_lignum>  (50) 
22

>  <i_i_glide_rotatable_bonds>  (50) 
1

>  <r_i_docking_score>  (50) 
-2.80272

>  <r_i_glide_ligand_efficiency>  (50) 
-0.103805

>  <r_i_glide_ligand_efficiency_sa>  (50) 
-0.311414

>  <r_i_glide_ligand_efficiency_ln>  (50) 
-0.652428

>  <r_i_glide_gscore>  (50) 
-2.80272

>  <r_i_glide_lipo>  (50) 
-0.0775516

>  <r_i_glide_hbond>  (50) 
-0.0519751

>  <r_i_glide_metal>  (50) 
-0

>  <r_i_glide_rewards>  (50) 
-0.96523

>  <r_i_glide_evdw>  (50) 
-20.4344

>  <r_i_glide_ecoul>  (50) 
-4.50121

>  <r_i_glide_erotb>  (50) 
0

>  <r_i_glide_esite>  (50) 
-0.0110677

>  <r_i_glide_emodel>  (50) 
-29.2386

>  <r_i_glide_energy>  (50) 
-24.9356

>  <r_i_glide_einternal>  (50) 
0.0516424

>  <r_i_glide_intrahb_reward>  (50) 
-0

>  <i_i_glide_confnum>  (50) 
1

>  <i_i_glide_posenum>  (50) 
1

>  <r_i_glide_eff_state_penalty>  (50) 
0

>  <ligand_id>  (50) 
17

>  <original_smiles>  (50) 
CN1CCC23c4c5ccc(O)c4OC2c2[nH]c4ccccc4c2CC3C1C5

>  <smiles>  (50) 
[H]Oc1c([H])c([H])c2c3c1OC1([H])c4c(c5c([H])c([H])c([H])c([H])c5n4[H])C([H])([H])C4([H])C([H])(N(C([H])([H])[H])C([H])([H])C([H])([H])C314)C2([H])[H]

$$$$
17:1:1
     RDKit          3D

 49 55  0  0  1  0  0  0  0  0999 V2000
   -1.0929   -7.9407    2.0085 C   0  0  0  0  0  0  0  0  0  0  0  0
   -0.5101   -8.1938    3.3145 N   0  0  0  0  0  0  0  0  0  0  0  0
   -0.2357   -9.6238    3.5225 C   0  0  0  0  0  0  0  0  0  0  0  0
    1.1007  -10.0747    2.9105 C   0  0  0  0  0  0  0  0  0  0  0  0
    2.2647   -9.1570    3.3434 C   0  0  1  0  0  0  0  0  0  0  0  0
    2.4549   -9.1364    4.8359 C   0  0  0  0  0  0  0  0  0  0  0  0
    1.7401   -8.3477    5.7572 C   0  0  0  0  0  0  0  0  0  0  0  0
    2.0572   -8.5373    7.1151 C   0  0  0  0  0  0  0  0  0  0  0  0
    3.0412   -9.4892    7.4821 C   0  0  0  0  0  0  0  0  0  0  0  0
    3.7755  -10.2011    6.4992 C   0  0  0  0  0  0  0  0  0  0  0  0
    4.7485  -11.0789    6.8760 O   0  0  0  0  0  0  0  0  0  0  0  0
    3.5044   -9.9879    5.1294 C   0  0  0  0  0  0  0  0  0  0  0  0
    4.1524  -10.4739    4.0255 O   0  0  0  0  0  0  0  0  0  0  0  0
    3.6278   -9.7663    2.8837 C   0  0  2  0  0  0  0  0  0  0  0  0
    4.6018   -8.6905    2.5082 C   0  0  0  0  0  0  0  0  0  0  0  0
    5.8824   -8.9299    2.0474 N   0  0  0  0  0  0  0  0  0  0  0  0
    6.5233   -7.7369    1.7698 C   0  0  0  0  0  0  0  0  0  0  0  0
    7.8064   -7.4428    1.2828 C   0  0  0  0  0  0  0  0  0  0  0  0
    8.1905   -6.1036    1.0886 C   0  0  0  0  0  0  0  0  0  0  0  0
    7.2849   -5.0677    1.3865 C   0  0  0  0  0  0  0  0  0  0  0  0
    5.9974   -5.3709    1.8768 C   0  0  0  0  0  0  0  0  0  0  0  0
    5.5834   -6.7093    2.0789 C   0  0  0  0  0  0  0  0  0  0  0  0
    4.3787   -7.3417    2.5427 C   0  0  0  0  0  0  0  0  0  0  0  0
    3.0858   -6.7278    2.9919 C   0  0  0  0  0  0  0  0  0  0  0  0
    1.9134   -7.7321    2.8562 C   0  0  2  0  0  0  0  0  0  0  0  0
    0.6259   -7.3070    3.6201 C   0  0  2  0  0  0  0  0  0  0  0  0
    0.8152   -7.2914    5.1564 C   0  0  0  0  0  0  0  0  0  0  0  0
    6.2528   -9.8620    1.9363 H   0  0  0  0  0  0  0  0  0  0  0  0
   -2.0036   -8.5279    1.8819 H   0  0  0  0  0  0  0  0  0  0  0  0
   -0.4076   -8.1862    1.1997 H   0  0  0  0  0  0  0  0  0  0  0  0
   -1.3663   -6.8893    1.9289 H   0  0  0  0  0  0  0  0  0  0  0  0
   -0.2110   -9.8338    4.5914 H   0  0  0  0  0  0  0  0  0  0  0  0
   -1.0502  -10.2249    3.1220 H   0  0  0  0  0  0  0  0  0  0  0  0
    1.3005  -11.1090    3.1972 H   0  0  0  0  0  0  0  0  0  0  0  0
    1.0258  -10.0836    1.8221 H   0  0  0  0  0  0  0  0  0  0  0  0
    1.5547   -7.9541    7.8710 H   0  0  0  0  0  0  0  0  0  0  0  0
    3.2481   -9.6467    8.5262 H   0  0  0  0  0  0  0  0  0  0  0  0
    4.6621  -11.3393    7.7788 H   0  0  0  0  0  0  0  0  0  0  0  0
    3.5081  -10.4563    2.0470 H   0  0  0  0  0  0  0  0  0  0  0  0
    8.5011   -8.2334    1.0547 H   0  0  0  0  0  0  0  0  0  0  0  0
    9.1802   -5.8840    0.7204 H   0  0  0  0  0  0  0  0  0  0  0  0
    7.5768   -4.0369    1.2501 H   0  0  0  0  0  0  0  0  0  0  0  0
    5.3094   -4.5723    2.1054 H   0  0  0  0  0  0  0  0  0  0  0  0
    3.1951   -6.4104    4.0292 H   0  0  0  0  0  0  0  0  0  0  0  0
    2.8739   -5.8273    2.4195 H   0  0  0  0  0  0  0  0  0  0  0  0
    1.7058   -7.7895    1.7865 H   0  0  0  0  0  0  0  0  0  0  0  0
    0.3372   -6.2997    3.3159 H   0  0  0  0  0  0  0  0  0  0  0  0
   -0.1476   -7.3403    5.6664 H   0  0  0  0  0  0  0  0  0  0  0  0
    1.2434   -6.3280    5.4276 H   0  0  0  0  0  0  0  0  0  0  0  0
  1  2  1  0
  1 29  1  0
  1 30  1  0
  1 31  1  0
  2 26  1  0
  2  3  1  0
  3  4  1  0
  3 32  1  0
  3 33  1  0
  5  4  1  1
  4 34  1  0
  4 35  1  0
  5 14  1  0
  5 25  1  0
  5  6  1  0
  6 12  2  0
  6  7  1  0
  7 27  1  0
  7  8  2  0
  8  9  1  0
  8 36  1  0
  9 10  2  0
  9 37  1  0
 10 11  1  0
 10 12  1  0
 11 38  1  0
 12 13  1  0
 13 14  1  0
 14 15  1  0
 14 39  1  6
 15 23  2  0
 15 16  1  0
 16 28  1  0
 16 17  1  0
 17 22  2  0
 17 18  1  0
 18 19  2  0
 18 40  1  0
 19 20  1  0
 19 41  1  0
 20 21  2  0
 20 42  1  0
 21 22  1  0
 21 43  1  0
 22 23  1  0
 23 24  1  0
 24 25  1  0
 24 44  1  0
 24 45  1  0
 25 26  1  0
 25 46  1  6
 26 27  1  0
 26 47  1  6
 27 48  1  0
 27 49  1  0
M  END
>  <i_m_ct_stereo_status>  (51) 
1

>  <s_m_source_file>  (51) 
/var/tmp/pbs.5076255.sched01/tmp7me73ahx/0ll6f151o.sdf

>  <i_m_source_file_index>  (51) 
22

>  <i_lp_mmshare_version>  (51) 
48012

>  <i_f3d_flags>  (51) 
0

>  <s_epik_input>  (51) 
W0NIMl0xW0NIMl1OKFtDSDNdKVtDQEBIXShbQ0gyXTIpW0NASF0zW0NIMl1jKGM0YyhbbkhdNSlbY0hdW2NIXVtjSF1bY0hdNCljNVtDQEhdNk9jN2MoW09IXSlbY0hdW2NIXWMyYzdbQ0BAXTEzNg==

>  <s_epik_cmdline>  (51) 
J2VwaWtfcHl0aG9uJywgJy1waHQnLCAnMi4wJywgJy1waCcsICc3LjAnLCAnLXRuJywgJzgnLCAnLW1hJywgJzIwMCcsICctaW1hZScsICc8aW5maWxlLm1hZT4nLCAnLW9tYWUnLCAnPG91dGZpbGUubWFlPic=

>  <r_lp_tautomer_probability>  (51) 
1

>  <r_epik_Ionization_Penalty>  (51) 
1.61104

>  <r_epik_Ionization_Penalty_Charging>  (51) 
0

>  <r_epik_Ionization_Penalty_Neutral>  (51) 
1.61104

>  <r_epik_State_Penalty>  (51) 
1.71787

>  <r_epik_Charging_Adjusted_Penalty>  (51) 
1.71787

>  <i_epik_Tot_Q>  (51) 
0

>  <i_epik_Tot_abs_Q>  (51) 
0

>  <s_lp_Force_Field>  (51) 
OPLS3e

>  <r_lp_Energy>  (51) 
57.2897

>  <b_lp_Chiralities_Consistent>  (51) 
1

>  <s_lp_Variant>  (51) 
17:0-2

>  <s_i_glide_gridfile>  (51) 
pfpi4k_grid

>  <i_i_glide_lignum>  (51) 
22

>  <i_i_glide_rotatable_bonds>  (51) 
1

>  <r_i_docking_score>  (51) 
-2.52317

>  <r_i_glide_ligand_efficiency>  (51) 
-0.0934509

>  <r_i_glide_ligand_efficiency_sa>  (51) 
-0.280353

>  <r_i_glide_ligand_efficiency_ln>  (51) 
-0.587353

>  <r_i_glide_gscore>  (51) 
-2.52317

>  <r_i_glide_lipo>  (51) 
-0.412652

>  <r_i_glide_hbond>  (51) 
0

>  <r_i_glide_metal>  (51) 
-0

>  <r_i_glide_rewards>  (51) 
-0.96523

>  <r_i_glide_evdw>  (51) 
-22.2396

>  <r_i_glide_ecoul>  (51) 
-0.22207

>  <r_i_glide_erotb>  (51) 
0

>  <r_i_glide_esite>  (51) 
0

>  <r_i_glide_emodel>  (51) 
-26.1069

>  <r_i_glide_energy>  (51) 
-22.4617

>  <r_i_glide_einternal>  (51) 
0.346158

>  <r_i_glide_intrahb_reward>  (51) 
-0

>  <i_i_glide_confnum>  (51) 
2

>  <i_i_glide_posenum>  (51) 
3

>  <r_i_glide_eff_state_penalty>  (51) 
0

>  <ligand_id>  (51) 
17

>  <original_smiles>  (51) 
CN1CCC23c4c5ccc(O)c4OC2c2[nH]c4ccccc4c2CC3C1C5

>  <smiles>  (51) 
[H]Oc1c([H])c([H])c2c3c1OC1([H])c4c(c5c([H])c([H])c([H])c([H])c5n4[H])C([H])([H])C4([H])C([H])(N(C([H])([H])[H])C([H])([H])C([H])([H])C314)C2([H])[H]

$$$$
17:1:2
     RDKit          3D

 49 55  0  0  1  0  0  0  0  0999 V2000
    0.2376   -9.5526    2.8324 C   0  0  0  0  0  0  0  0  0  0  0  0
    1.5004   -9.4022    3.5380 N   0  0  0  0  0  0  0  0  0  0  0  0
    2.5546  -10.2591    2.9831 C   0  0  0  0  0  0  0  0  0  0  0  0
    3.2496   -9.6211    1.7669 C   0  0  0  0  0  0  0  0  0  0  0  0
    3.7117   -8.1799    2.0622 C   0  0  1  0  0  0  0  0  0  0  0  0
    4.6946   -8.1153    3.2053 C   0  0  0  0  0  0  0  0  0  0  0  0
    4.3740   -8.0908    4.5806 C   0  0  0  0  0  0  0  0  0  0  0  0
    5.4677   -8.0817    5.4652 C   0  0  0  0  0  0  0  0  0  0  0  0
    6.7934   -8.1055    4.9553 C   0  0  0  0  0  0  0  0  0  0  0  0
    7.0398   -8.0543    3.5591 C   0  0  0  0  0  0  0  0  0  0  0  0
    8.3200   -8.0227    3.1012 O   0  0  0  0  0  0  0  0  0  0  0  0
    5.9565   -8.0176    2.6324 C   0  0  0  0  0  0  0  0  0  0  0  0
    5.9664   -7.8608    1.2912 O   0  0  0  0  0  0  0  0  0  0  0  0
    4.5913   -7.6403    0.8835 C   0  0  2  0  0  0  0  0  0  0  0  0
    4.3890   -6.1794    0.6828 C   0  0  0  0  0  0  0  0  0  0  0  0
    5.0239   -5.4357   -0.3040 N   0  0  0  0  0  0  0  0  0  0  0  0
    4.6110   -4.1213   -0.2594 C   0  0  0  0  0  0  0  0  0  0  0  0
    4.9398   -2.9945   -1.0284 C   0  0  0  0  0  0  0  0  0  0  0  0
    4.3483   -1.7465   -0.7494 C   0  0  0  0  0  0  0  0  0  0  0  0
    3.4150   -1.6483    0.3139 C   0  0  0  0  0  0  0  0  0  0  0  0
    3.0861   -2.7880    1.0783 C   0  0  0  0  0  0  0  0  0  0  0  0
    3.6708   -4.0535    0.8168 C   0  0  0  0  0  0  0  0  0  0  0  0
    3.5523   -5.3683    1.3832 C   0  0  0  0  0  0  0  0  0  0  0  0
    2.7024   -5.8422    2.5156 C   0  0  0  0  0  0  0  0  0  0  0  0
    2.4449   -7.3699    2.4353 C   0  0  2  0  0  0  0  0  0  0  0  0
    1.8916   -7.9952    3.7377 C   0  0  2  0  0  0  0  0  0  0  0  0
    2.8948   -7.9485    4.9045 C   0  0  0  0  0  0  0  0  0  0  0  0
    5.6641   -5.8400   -0.9690 H   0  0  0  0  0  0  0  0  0  0  0  0
   -0.0734  -10.5983    2.8338 H   0  0  0  0  0  0  0  0  0  0  0  0
    0.3060   -9.2108    1.8008 H   0  0  0  0  0  0  0  0  0  0  0  0
   -0.5434   -8.9824    3.3396 H   0  0  0  0  0  0  0  0  0  0  0  0
    3.3043  -10.4530    3.7482 H   0  0  0  0  0  0  0  0  0  0  0  0
    2.1501  -11.2358    2.7136 H   0  0  0  0  0  0  0  0  0  0  0  0
    4.1000  -10.2382    1.4756 H   0  0  0  0  0  0  0  0  0  0  0  0
    2.5725   -9.6244    0.9106 H   0  0  0  0  0  0  0  0  0  0  0  0
    5.2968   -8.0509    6.5277 H   0  0  0  0  0  0  0  0  0  0  0  0
    7.6210   -8.1278    5.6366 H   0  0  0  0  0  0  0  0  0  0  0  0
    8.4094   -7.9699    2.1685 H   0  0  0  0  0  0  0  0  0  0  0  0
    4.4029   -8.1786   -0.0465 H   0  0  0  0  0  0  0  0  0  0  0  0
    5.6442   -3.0923   -1.8410 H   0  0  0  0  0  0  0  0  0  0  0  0
    4.5883   -0.8773   -1.3315 H   0  0  0  0  0  0  0  0  0  0  0  0
    2.9433   -0.7053    0.5275 H   0  0  0  0  0  0  0  0  0  0  0  0
    2.3682   -2.6996    1.8770 H   0  0  0  0  0  0  0  0  0  0  0  0
    3.2062   -5.5974    3.4560 H   0  0  0  0  0  0  0  0  0  0  0  0
    1.7516   -5.3081    2.5431 H   0  0  0  0  0  0  0  0  0  0  0  0
    1.7284   -7.4973    1.6224 H   0  0  0  0  0  0  0  0  0  0  0  0
    0.9928   -7.4621    4.0533 H   0  0  0  0  0  0  0  0  0  0  0  0
    2.6388   -8.6687    5.6835 H   0  0  0  0  0  0  0  0  0  0  0  0
    2.7992   -6.9669    5.3865 H   0  0  0  0  0  0  0  0  0  0  0  0
  1  2  1  0
  1 29  1  0
  1 30  1  0
  1 31  1  0
  2 26  1  0
  2  3  1  0
  3  4  1  0
  3 32  1  0
  3 33  1  0
  5  4  1  6
  4 34  1  0
  4 35  1  0
  5 14  1  0
  5 25  1  0
  5  6  1  0
  6 12  2  0
  6  7  1  0
  7 27  1  0
  7  8  2  0
  8  9  1  0
  8 36  1  0
  9 10  2  0
  9 37  1  0
 10 11  1  0
 10 12  1  0
 11 38  1  0
 12 13  1  0
 13 14  1  0
 14 15  1  0
 14 39  1  6
 15 23  2  0
 15 16  1  0
 16 28  1  0
 16 17  1  0
 17 22  2  0
 17 18  1  0
 18 19  2  0
 18 40  1  0
 19 20  1  0
 19 41  1  0
 20 21  2  0
 20 42  1  0
 21 22  1  0
 21 43  1  0
 22 23  1  0
 23 24  1  0
 24 25  1  0
 24 44  1  0
 24 45  1  0
 25 26  1  0
 25 46  1  6
 26 27  1  0
 26 47  1  1
 27 48  1  0
 27 49  1  0
M  END
>  <i_m_ct_stereo_status>  (52) 
1

>  <s_m_source_file>  (52) 
/var/tmp/pbs.5076255.sched01/tmp7me73ahx/0ll6f151o.sdf

>  <i_m_source_file_index>  (52) 
22

>  <i_lp_mmshare_version>  (52) 
48012

>  <i_f3d_flags>  (52) 
0

>  <s_epik_input>  (52) 
W0NIMl0xW0NIMl1OKFtDSDNdKVtDQEBIXShbQ0gyXTIpW0NASF0zW0NIMl1jKGM0YyhbbkhdNSlbY0hdW2NIXVtjSF1bY0hdNCljNVtDQEhdNk9jN2MoW09IXSlbY0hdW2NIXWMyYzdbQ0BAXTEzNg==

>  <s_epik_cmdline>  (52) 
J2VwaWtfcHl0aG9uJywgJy1waHQnLCAnMi4wJywgJy1waCcsICc3LjAnLCAnLXRuJywgJzgnLCAnLW1hJywgJzIwMCcsICctaW1hZScsICc8aW5maWxlLm1hZT4nLCAnLW9tYWUnLCAnPG91dGZpbGUubWFlPic=

>  <r_lp_tautomer_probability>  (52) 
1

>  <r_epik_Ionization_Penalty>  (52) 
1.61104

>  <r_epik_Ionization_Penalty_Charging>  (52) 
0

>  <r_epik_Ionization_Penalty_Neutral>  (52) 
1.61104

>  <r_epik_State_Penalty>  (52) 
1.71787

>  <r_epik_Charging_Adjusted_Penalty>  (52) 
1.71787

>  <i_epik_Tot_Q>  (52) 
0

>  <i_epik_Tot_abs_Q>  (52) 
0

>  <s_lp_Force_Field>  (52) 
OPLS3e

>  <r_lp_Energy>  (52) 
57.2897

>  <b_lp_Chiralities_Consistent>  (52) 
1

>  <s_lp_Variant>  (52) 
17:0-2

>  <s_i_glide_gridfile>  (52) 
pfpi4k_grid

>  <i_i_glide_lignum>  (52) 
22

>  <i_i_glide_rotatable_bonds>  (52) 
1

>  <r_i_docking_score>  (52) 
-2.48513

>  <r_i_glide_ligand_efficiency>  (52) 
-0.092042

>  <r_i_glide_ligand_efficiency_sa>  (52) 
-0.276126

>  <r_i_glide_ligand_efficiency_ln>  (52) 
-0.578498

>  <r_i_glide_gscore>  (52) 
-2.48513

>  <r_i_glide_lipo>  (52) 
-0.255238

>  <r_i_glide_hbond>  (52) 
0

>  <r_i_glide_metal>  (52) 
-0

>  <r_i_glide_rewards>  (52) 
-0.96523

>  <r_i_glide_evdw>  (52) 
-22.4521

>  <r_i_glide_ecoul>  (52) 
-0.869665

>  <r_i_glide_erotb>  (52) 
0

>  <r_i_glide_esite>  (52) 
-0.0116145

>  <r_i_glide_emodel>  (52) 
-27.1118

>  <r_i_glide_energy>  (52) 
-23.3217

>  <r_i_glide_einternal>  (52) 
0.00298273

>  <r_i_glide_intrahb_reward>  (52) 
-0

>  <i_i_glide_confnum>  (52) 
1

>  <i_i_glide_posenum>  (52) 
2

>  <r_i_glide_eff_state_penalty>  (52) 
0

>  <ligand_id>  (52) 
17

>  <original_smiles>  (52) 
CN1CCC23c4c5ccc(O)c4OC2c2[nH]c4ccccc4c2CC3C1C5

>  <smiles>  (52) 
[H]Oc1c([H])c([H])c2c3c1OC1([H])c4c(c5c([H])c([H])c([H])c([H])c5n4[H])C([H])([H])C4([H])C([H])(N(C([H])([H])[H])C([H])([H])C([H])([H])C314)C2([H])[H]

$$$$
17:2:0
     RDKit          3D

 49 55  0  0  1  0  0  0  0  0999 V2000
    0.5047   -9.8819    6.0037 C   0  0  0  0  0  0  0  0  0  0  0  0
    1.8392  -10.4486    5.7808 N   0  0  1  0  0  0  0  0  0  0  0  0
    1.8930  -11.3443    4.6106 C   0  0  0  0  0  0  0  0  0  0  0  0
    2.0765  -10.5486    3.3189 C   0  0  0  0  0  0  0  0  0  0  0  0
    3.2675   -9.5632    3.4181 C   0  0  1  0  0  0  0  0  0  0  0  0
    4.5639  -10.2777    3.6899 C   0  0  0  0  0  0  0  0  0  0  0  0
    5.0317  -10.7047    4.9546 C   0  0  0  0  0  0  0  0  0  0  0  0
    6.2330  -11.4416    4.9435 C   0  0  0  0  0  0  0  0  0  0  0  0
    6.8651  -11.7254    3.7091 C   0  0  0  0  0  0  0  0  0  0  0  0
    6.3681  -11.2126    2.4753 C   0  0  0  0  0  0  0  0  0  0  0  0
    6.9838  -11.5166    1.2907 O   0  0  0  0  0  0  0  0  0  0  0  0
    5.2064  -10.4009    2.4804 C   0  0  0  0  0  0  0  0  0  0  0  0
    4.6193   -9.7075    1.4467 O   0  0  0  0  0  0  0  0  0  0  0  0
    3.5465   -8.9473    2.0092 C   0  0  2  0  0  0  0  0  0  0  0  0
    4.0223   -7.5449    2.0944 C   0  0  0  0  0  0  0  0  0  0  0  0
    4.3320   -6.7595    0.9983 N   0  0  0  0  0  0  0  0  0  0  0  0
    4.7232   -5.5008    1.4122 C   0  0  0  0  0  0  0  0  0  0  0  0
    5.1200   -4.3492    0.7019 C   0  0  0  0  0  0  0  0  0  0  0  0
    5.4675   -3.1759    1.4021 C   0  0  0  0  0  0  0  0  0  0  0  0
    5.4069   -3.1693    2.8086 C   0  0  0  0  0  0  0  0  0  0  0  0
    5.0079   -4.3287    3.5128 C   0  0  0  0  0  0  0  0  0  0  0  0
    4.6550   -5.5214    2.8346 C   0  0  0  0  0  0  0  0  0  0  0  0
    4.2123   -6.8272    3.2401 C   0  0  0  0  0  0  0  0  0  0  0  0
    3.9697   -7.3845    4.6115 C   0  0  0  0  0  0  0  0  0  0  0  0
    2.9811   -8.5819    4.5734 C   0  0  2  0  0  0  0  0  0  0  0  0
    2.9322   -9.4456    5.8625 C   0  0  2  0  0  0  0  0  0  0  0  0
    4.2742  -10.1532    6.1523 C   0  0  0  0  0  0  0  0  0  0  0  0
    4.2774   -7.0827    0.0437 H   0  0  0  0  0  0  0  0  0  0  0  0
    0.1680   -9.2670    5.1731 H   0  0  0  0  0  0  0  0  0  0  0  0
    0.4519   -9.2967    6.9181 H   0  0  0  0  0  0  0  0  0  0  0  0
   -0.1808  -10.7092    6.1174 H   0  0  0  0  0  0  0  0  0  0  0  0
    2.7028  -12.0597    4.7228 H   0  0  0  0  0  0  0  0  0  0  0  0
    0.9976  -11.9580    4.5556 H   0  0  0  0  0  0  0  0  0  0  0  0
    2.2240  -11.2496    2.4958 H   0  0  0  0  0  0  0  0  0  0  0  0
    1.1564  -10.0048    3.0888 H   0  0  0  0  0  0  0  0  0  0  0  0
    6.6552  -11.7803    5.8815 H   0  0  0  0  0  0  0  0  0  0  0  0
    7.7661  -12.3188    3.7074 H   0  0  0  0  0  0  0  0  0  0  0  0
    2.6821   -9.0034    1.3467 H   0  0  0  0  0  0  0  0  0  0  0  0
    5.1535   -4.3722   -0.3748 H   0  0  0  0  0  0  0  0  0  0  0  0
    5.7800   -2.2893    0.8627 H   0  0  0  0  0  0  0  0  0  0  0  0
    5.6798   -2.2755    3.3558 H   0  0  0  0  0  0  0  0  0  0  0  0
    4.9718   -4.3104    4.5913 H   0  0  0  0  0  0  0  0  0  0  0  0
    4.9260   -7.6943    5.0283 H   0  0  0  0  0  0  0  0  0  0  0  0
    3.5956   -6.6075    5.2764 H   0  0  0  0  0  0  0  0  0  0  0  0
    2.0062   -8.1308    4.3952 H   0  0  0  0  0  0  0  0  0  0  0  0
    2.7221   -8.8064    6.7158 H   0  0  0  0  0  0  0  0  0  0  0  0
    4.1431  -10.9557    6.8743 H   0  0  0  0  0  0  0  0  0  0  0  0
    4.9465   -9.4371    6.6239 H   0  0  0  0  0  0  0  0  0  0  0  0
    1.9300  -11.0927    6.5620 H   0  0  0  0  0  0  0  0  0  0  0  0
  1  2  1  0
  1 29  1  0
  1 30  1  0
  1 31  1  0
  2 26  1  0
  2  3  1  0
  2 49  1  1
  3  4  1  0
  3 32  1  0
  3 33  1  0
  5  4  1  6
  4 34  1  0
  4 35  1  0
  5 14  1  0
  5 25  1  0
  5  6  1  0
  6 12  2  0
  6  7  1  0
  7 27  1  0
  7  8  2  0
  8  9  1  0
  8 36  1  0
  9 10  2  0
  9 37  1  0
 10 11  1  0
 10 12  1  0
 12 13  1  0
 13 14  1  0
 14 15  1  0
 14 38  1  6
 15 23  2  0
 15 16  1  0
 16 28  1  0
 16 17  1  0
 17 22  2  0
 17 18  1  0
 18 19  2  0
 18 39  1  0
 19 20  1  0
 19 40  1  0
 20 21  2  0
 20 41  1  0
 21 22  1  0
 21 42  1  0
 22 23  1  0
 23 24  1  0
 24 25  1  0
 24 43  1  0
 24 44  1  0
 25 26  1  0
 25 45  1  6
 26 27  1  0
 26 46  1  1
 27 47  1  0
 27 48  1  0
M  CHG  2   2   1  11  -1
M  END
>  <i_m_ct_stereo_status>  (53) 
1

>  <s_m_source_file>  (53) 
/var/tmp/pbs.5076255.sched01/tmp7me73ahx/0ll6f151o.sdf

>  <i_m_source_file_index>  (53) 
23

>  <i_lp_mmshare_version>  (53) 
48012

>  <i_f3d_flags>  (53) 
0

>  <s_epik_input>  (53) 
W0NIMl0xW0NIMl1OKFtDSDNdKVtDQEBIXShbQ0gyXTIpW0NASF0zW0NIMl1jKGM0YyhbbkhdNSlbY0hdW2NIXVtjSF1bY0hdNCljNVtDQEhdNk9jN2MoW09IXSlbY0hdW2NIXWMyYzdbQ0BAXTEzNg==

>  <s_epik_cmdline>  (53) 
J2VwaWtfcHl0aG9uJywgJy1waHQnLCAnMi4wJywgJy1waCcsICc3LjAnLCAnLXRuJywgJzgnLCAnLW1hJywgJzIwMCcsICctaW1hZScsICc8aW5maWxlLm1hZT4nLCAnLW9tYWUnLCAnPG91dGZpbGUubWFlPic=

>  <r_epik_Ionization_Penalty>  (53) 
2.25743

>  <r_epik_Ionization_Penalty_Charging>  (53) 
2.25743

>  <r_epik_Ionization_Penalty_Neutral>  (53) 
3.72932e-10

>  <r_epik_State_Penalty>  (53) 
2.39953

>  <r_epik_Charging_Adjusted_Penalty>  (53) 
4.65695

>  <i_epik_Tot_Q>  (53) 
0

>  <i_epik_Tot_abs_Q>  (53) 
2

>  <s_lp_Force_Field>  (53) 
OPLS3e

>  <r_lp_Energy>  (53) 
59.3429

>  <b_lp_Chiralities_Consistent>  (53) 
1

>  <s_lp_Variant>  (53) 
17:0-3

>  <s_i_glide_gridfile>  (53) 
pfpi4k_grid

>  <i_i_glide_lignum>  (53) 
23

>  <i_i_glide_rotatable_bonds>  (53) 
0

>  <r_i_docking_score>  (53) 
-3.45109

>  <r_i_glide_ligand_efficiency>  (53) 
-0.127818

>  <r_i_glide_ligand_efficiency_sa>  (53) 
-0.383454

>  <r_i_glide_ligand_efficiency_ln>  (53) 
-0.803357

>  <r_i_glide_gscore>  (53) 
-3.45109

>  <r_i_glide_lipo>  (53) 
-0.27133

>  <r_i_glide_hbond>  (53) 
-0.357341

>  <r_i_glide_metal>  (53) 
-0

>  <r_i_glide_rewards>  (53) 
-0.96523

>  <r_i_glide_evdw>  (53) 
-17.2561

>  <r_i_glide_ecoul>  (53) 
-6.01049

>  <r_i_glide_erotb>  (53) 
0

>  <r_i_glide_esite>  (53) 
-0.0928109

>  <r_i_glide_emodel>  (53) 
-31.239

>  <r_i_glide_energy>  (53) 
-23.2666

>  <r_i_glide_einternal>  (53) 
0

>  <r_i_glide_intrahb_reward>  (53) 
-0

>  <i_i_glide_confnum>  (53) 
1

>  <i_i_glide_posenum>  (53) 
24

>  <r_i_glide_eff_state_penalty>  (53) 
0

>  <ligand_id>  (53) 
17

>  <original_smiles>  (53) 
CN1CCC23c4c5ccc(O)c4OC2c2[nH]c4ccccc4c2CC3C1C5

>  <smiles>  (53) 
[H]c1c([H])c2c3c(c1[O-])OC1([H])c4c(c5c([H])c([H])c([H])c([H])c5n4[H])C([H])([H])C4([H])C31C([H])([H])C([H])([H])[N+]([H])(C([H])([H])[H])C4([H])C2([H])[H]

$$$$
17:2:1
     RDKit          3D

 49 55  0  0  1  0  0  0  0  0999 V2000
    0.2849  -10.0697    6.0063 C   0  0  0  0  0  0  0  0  0  0  0  0
    1.7190  -10.2460    5.6835 N   0  0  1  0  0  0  0  0  0  0  0  0
    1.9287  -11.0710    4.4666 C   0  0  0  0  0  0  0  0  0  0  0  0
    1.7801  -10.2359    3.1860 C   0  0  0  0  0  0  0  0  0  0  0  0
    2.6520   -8.9605    3.2161 C   0  0  1  0  0  0  0  0  0  0  0  0
    4.1066   -9.2970    3.3761 C   0  0  0  0  0  0  0  0  0  0  0  0
    4.7823   -9.5752    4.5821 C   0  0  0  0  0  0  0  0  0  0  0  0
    6.1309   -9.9534    4.4724 C   0  0  0  0  0  0  0  0  0  0  0  0
    6.7206  -10.0381    3.1879 C   0  0  0  0  0  0  0  0  0  0  0  0
    6.0065   -9.6739    2.0253 C   0  0  0  0  0  0  0  0  0  0  0  0
    6.6207   -9.7226    0.8232 O   0  0  0  0  0  0  0  0  0  0  0  0
    4.6635   -9.2484    2.1168 C   0  0  0  0  0  0  0  0  0  0  0  0
    3.8267   -8.7667    1.1443 O   0  0  0  0  0  0  0  0  0  0  0  0
    2.6427   -8.2924    1.8058 C   0  0  2  0  0  0  0  0  0  0  0  0
    2.7196   -6.8022    1.9002 C   0  0  0  0  0  0  0  0  0  0  0  0
    2.7139   -5.9479    0.8119 N   0  0  0  0  0  0  0  0  0  0  0  0
    2.7847   -4.6356    1.2320 C   0  0  0  0  0  0  0  0  0  0  0  0
    2.7955   -3.4189    0.5289 C   0  0  0  0  0  0  0  0  0  0  0  0
    2.8562   -2.2033    1.2346 C   0  0  0  0  0  0  0  0  0  0  0  0
    2.9081   -2.2194    2.6416 C   0  0  0  0  0  0  0  0  0  0  0  0
    2.8966   -3.4456    3.3383 C   0  0  0  0  0  0  0  0  0  0  0  0
    2.8316   -4.6834    2.6562 C   0  0  0  0  0  0  0  0  0  0  0  0
    2.7936   -6.0653    3.0504 C   0  0  0  0  0  0  0  0  0  0  0  0
    2.8265   -6.6807    4.4206 C   0  0  0  0  0  0  0  0  0  0  0  0
    2.2036   -8.1058    4.4202 C   0  0  2  0  0  0  0  0  0  0  0  0
    2.4983   -8.9624    5.6911 C   0  0  2  0  0  0  0  0  0  0  0  0
    4.0082   -9.2654    5.8549 C   0  0  0  0  0  0  0  0  0  0  0  0
    2.7016   -6.2619   -0.1496 H   0  0  0  0  0  0  0  0  0  0  0  0
   -0.2388   -9.5362    5.2102 H   0  0  0  0  0  0  0  0  0  0  0  0
    0.1617   -9.5171    6.9395 H   0  0  0  0  0  0  0  0  0  0  0  0
   -0.1806  -11.0444    6.1294 H   0  0  0  0  0  0  0  0  0  0  0  0
    2.9184  -11.5249    4.4951 H   0  0  0  0  0  0  0  0  0  0  0  0
    1.2287  -11.9071    4.4558 H   0  0  0  0  0  0  0  0  0  0  0  0
    2.0540  -10.8516    2.3293 H   0  0  0  0  0  0  0  0  0  0  0  0
    0.7310   -9.9630    3.0411 H   0  0  0  0  0  0  0  0  0  0  0  0
    6.7108  -10.1620    5.3607 H   0  0  0  0  0  0  0  0  0  0  0  0
    7.7447  -10.3514    3.1003 H   0  0  0  0  0  0  0  0  0  0  0  0
    1.7610   -8.5678    1.2274 H   0  0  0  0  0  0  0  0  0  0  0  0
    2.7406   -3.4134   -0.5483 H   0  0  0  0  0  0  0  0  0  0  0  0
    2.8480   -1.2651    0.6942 H   0  0  0  0  0  0  0  0  0  0  0  0
    2.9563   -1.2884    3.1876 H   0  0  0  0  0  0  0  0  0  0  0  0
    2.9366   -3.4468    4.4148 H   0  0  0  0  0  0  0  0  0  0  0  0
    3.8628   -6.7196    4.7586 H   0  0  0  0  0  0  0  0  0  0  0  0
    2.3057   -6.0425    5.1331 H   0  0  0  0  0  0  0  0  0  0  0  0
    1.1298   -7.9438    4.3292 H   0  0  0  0  0  0  0  0  0  0  0  0
    2.1860   -8.4051    6.5770 H   0  0  0  0  0  0  0  0  0  0  0  0
    4.1608  -10.0782    6.5636 H   0  0  0  0  0  0  0  0  0  0  0  0
    4.4827   -8.3880    6.2947 H   0  0  0  0  0  0  0  0  0  0  0  0
    2.0602  -10.8241    6.4458 H   0  0  0  0  0  0  0  0  0  0  0  0
  1  2  1  0
  1 29  1  0
  1 30  1  0
  1 31  1  0
  2 26  1  0
  2  3  1  0
  2 49  1  1
  3  4  1  0
  3 32  1  0
  3 33  1  0
  5  4  1  6
  4 34  1  0
  4 35  1  0
  5 14  1  0
  5 25  1  0
  5  6  1  0
  6 12  2  0
  6  7  1  0
  7 27  1  0
  7  8  2  0
  8  9  1  0
  8 36  1  0
  9 10  2  0
  9 37  1  0
 10 11  1  0
 10 12  1  0
 12 13  1  0
 13 14  1  0
 14 15  1  0
 14 38  1  6
 15 23  2  0
 15 16  1  0
 16 28  1  0
 16 17  1  0
 17 22  2  0
 17 18  1  0
 18 19  2  0
 18 39  1  0
 19 20  1  0
 19 40  1  0
 20 21  2  0
 20 41  1  0
 21 22  1  0
 21 42  1  0
 22 23  1  0
 23 24  1  0
 24 25  1  0
 24 43  1  0
 24 44  1  0
 25 26  1  0
 25 45  1  6
 26 27  1  0
 26 46  1  1
 27 47  1  0
 27 48  1  0
M  CHG  2   2   1  11  -1
M  END
>  <i_m_ct_stereo_status>  (54) 
1

>  <s_m_source_file>  (54) 
/var/tmp/pbs.5076255.sched01/tmp7me73ahx/0ll6f151o.sdf

>  <i_m_source_file_index>  (54) 
23

>  <i_lp_mmshare_version>  (54) 
48012

>  <i_f3d_flags>  (54) 
0

>  <s_epik_input>  (54) 
W0NIMl0xW0NIMl1OKFtDSDNdKVtDQEBIXShbQ0gyXTIpW0NASF0zW0NIMl1jKGM0YyhbbkhdNSlbY0hdW2NIXVtjSF1bY0hdNCljNVtDQEhdNk9jN2MoW09IXSlbY0hdW2NIXWMyYzdbQ0BAXTEzNg==

>  <s_epik_cmdline>  (54) 
J2VwaWtfcHl0aG9uJywgJy1waHQnLCAnMi4wJywgJy1waCcsICc3LjAnLCAnLXRuJywgJzgnLCAnLW1hJywgJzIwMCcsICctaW1hZScsICc8aW5maWxlLm1hZT4nLCAnLW9tYWUnLCAnPG91dGZpbGUubWFlPic=

>  <r_epik_Ionization_Penalty>  (54) 
2.25743

>  <r_epik_Ionization_Penalty_Charging>  (54) 
2.25743

>  <r_epik_Ionization_Penalty_Neutral>  (54) 
3.72932e-10

>  <r_epik_State_Penalty>  (54) 
2.39953

>  <r_epik_Charging_Adjusted_Penalty>  (54) 
4.65695

>  <i_epik_Tot_Q>  (54) 
0

>  <i_epik_Tot_abs_Q>  (54) 
2

>  <s_lp_Force_Field>  (54) 
OPLS3e

>  <r_lp_Energy>  (54) 
59.3429

>  <b_lp_Chiralities_Consistent>  (54) 
1

>  <s_lp_Variant>  (54) 
17:0-3

>  <s_i_glide_gridfile>  (54) 
pfpi4k_grid

>  <i_i_glide_lignum>  (54) 
23

>  <i_i_glide_rotatable_bonds>  (54) 
0

>  <r_i_docking_score>  (54) 
-3.07203

>  <r_i_glide_ligand_efficiency>  (54) 
-0.113779

>  <r_i_glide_ligand_efficiency_sa>  (54) 
-0.341336

>  <r_i_glide_ligand_efficiency_ln>  (54) 
-0.715117

>  <r_i_glide_gscore>  (54) 
-3.07203

>  <r_i_glide_lipo>  (54) 
-0.0795476

>  <r_i_glide_hbond>  (54) 
-0.131738

>  <r_i_glide_metal>  (54) 
-0

>  <r_i_glide_rewards>  (54) 
-0.96523

>  <r_i_glide_evdw>  (54) 
-19.3293

>  <r_i_glide_ecoul>  (54) 
-5.50143

>  <r_i_glide_erotb>  (54) 
0

>  <r_i_glide_esite>  (54) 
-0.103835

>  <r_i_glide_emodel>  (54) 
-31.9594

>  <r_i_glide_energy>  (54) 
-24.8307

>  <r_i_glide_einternal>  (54) 
0

>  <r_i_glide_intrahb_reward>  (54) 
-0

>  <i_i_glide_confnum>  (54) 
2

>  <i_i_glide_posenum>  (54) 
30

>  <r_i_glide_eff_state_penalty>  (54) 
0

>  <ligand_id>  (54) 
17

>  <original_smiles>  (54) 
CN1CCC23c4c5ccc(O)c4OC2c2[nH]c4ccccc4c2CC3C1C5

>  <smiles>  (54) 
[H]c1c([H])c2c3c(c1[O-])OC1([H])c4c(c5c([H])c([H])c([H])c([H])c5n4[H])C([H])([H])C4([H])C31C([H])([H])C([H])([H])[N+]([H])(C([H])([H])[H])C4([H])C2([H])[H]

$$$$
17:2:2
     RDKit          3D

 49 55  0  0  1  0  0  0  0  0999 V2000
    3.5064   -1.6167   -1.0916 C   0  0  0  0  0  0  0  0  0  0  0  0
    4.5072   -2.5738   -0.5712 N   0  0  1  0  0  0  0  0  0  0  0  0
    5.1602   -2.0835    0.6715 C   0  0  0  0  0  0  0  0  0  0  0  0
    4.3018   -2.3730    1.9117 C   0  0  0  0  0  0  0  0  0  0  0  0
    3.8725   -3.8591    1.9819 C   0  0  1  0  0  0  0  0  0  0  0  0
    5.0649   -4.7748    2.0333 C   0  0  0  0  0  0  0  0  0  0  0  0
    5.8158   -5.2262    0.9333 C   0  0  0  0  0  0  0  0  0  0  0  0
    6.9494   -6.0035    1.2348 C   0  0  0  0  0  0  0  0  0  0  0  0
    7.2644   -6.2860    2.5860 C   0  0  0  0  0  0  0  0  0  0  0  0
    6.4215   -5.8614    3.6431 C   0  0  0  0  0  0  0  0  0  0  0  0
    6.7332   -6.1803    4.9333 O   0  0  0  0  0  0  0  0  0  0  0  0
    5.2557   -5.1121    3.3564 C   0  0  0  0  0  0  0  0  0  0  0  0
    4.2641   -4.6805    4.1959 O   0  0  0  0  0  0  0  0  0  0  0  0
    3.2156   -4.1462    3.3649 C   0  0  2  0  0  0  0  0  0  0  0  0
    2.1282   -5.1652    3.2528 C   0  0  0  0  0  0  0  0  0  0  0  0
    1.3543   -5.5892    4.3168 N   0  0  0  0  0  0  0  0  0  0  0  0
    0.4193   -6.5105    3.8916 C   0  0  0  0  0  0  0  0  0  0  0  0
   -0.5876   -7.2170    4.5716 C   0  0  0  0  0  0  0  0  0  0  0  0
   -1.4133   -8.1104    3.8644 C   0  0  0  0  0  0  0  0  0  0  0  0
   -1.2303   -8.2736    2.4796 C   0  0  0  0  0  0  0  0  0  0  0  0
   -0.2249   -7.5523    1.8033 C   0  0  0  0  0  0  0  0  0  0  0  0
    0.6281   -6.6577    2.4895 C   0  0  0  0  0  0  0  0  0  0  0  0
    1.7157   -5.7981    2.1123 C   0  0  0  0  0  0  0  0  0  0  0  0
    2.3405   -5.5617    0.7682 C   0  0  0  0  0  0  0  0  0  0  0  0
    3.0426   -4.1768    0.7120 C   0  0  2  0  0  0  0  0  0  0  0  0
    4.0067   -3.9831   -0.4917 C   0  0  2  0  0  0  0  0  0  0  0  0
    5.2071   -4.9574   -0.4401 C   0  0  0  0  0  0  0  0  0  0  0  0
    1.4930   -5.2680    5.2634 H   0  0  0  0  0  0  0  0  0  0  0  0
    2.7083   -1.4807   -0.3640 H   0  0  0  0  0  0  0  0  0  0  0  0
    3.0762   -1.9582   -2.0342 H   0  0  0  0  0  0  0  0  0  0  0  0
    3.9701   -0.6466   -1.2676 H   0  0  0  0  0  0  0  0  0  0  0  0
    6.1381   -2.5516    0.7860 H   0  0  0  0  0  0  0  0  0  0  0  0
    5.3644   -1.0138    0.5997 H   0  0  0  0  0  0  0  0  0  0  0  0
    4.8551   -2.0915    2.8100 H   0  0  0  0  0  0  0  0  0  0  0  0
    3.4150   -1.7325    1.8985 H   0  0  0  0  0  0  0  0  0  0  0  0
    7.5619   -6.3963    0.4380 H   0  0  0  0  0  0  0  0  0  0  0  0
    8.1468   -6.8649    2.8037 H   0  0  0  0  0  0  0  0  0  0  0  0
    2.8108   -3.2441    3.8246 H   0  0  0  0  0  0  0  0  0  0  0  0
   -0.7079   -7.0897    5.6336 H   0  0  0  0  0  0  0  0  0  0  0  0
   -2.1707   -8.6853    4.3828 H   0  0  0  0  0  0  0  0  0  0  0  0
   -1.8429   -8.9768    1.9328 H   0  0  0  0  0  0  0  0  0  0  0  0
   -0.0846   -7.7113    0.7463 H   0  0  0  0  0  0  0  0  0  0  0  0
    3.0571   -6.3615    0.5753 H   0  0  0  0  0  0  0  0  0  0  0  0
    1.5964   -5.6381   -0.0248 H   0  0  0  0  0  0  0  0  0  0  0  0
    2.2338   -3.4480    0.6452 H   0  0  0  0  0  0  0  0  0  0  0  0
    3.4725   -4.1790   -1.4257 H   0  0  0  0  0  0  0  0  0  0  0  0
    5.9894   -4.6073   -1.1069 H   0  0  0  0  0  0  0  0  0  0  0  0
    4.8869   -5.9211   -0.8333 H   0  0  0  0  0  0  0  0  0  0  0  0
    5.2351   -2.5895   -1.2702 H   0  0  0  0  0  0  0  0  0  0  0  0
  1  2  1  0
  1 29  1  0
  1 30  1  0
  1 31  1  0
  2 26  1  0
  2  3  1  0
  2 49  1  6
  3  4  1  0
  3 32  1  0
  3 33  1  0
  5  4  1  1
  4 34  1  0
  4 35  1  0
  5 14  1  0
  5 25  1  0
  5  6  1  0
  6 12  2  0
  6  7  1  0
  7 27  1  0
  7  8  2  0
  8  9  1  0
  8 36  1  0
  9 10  2  0
  9 37  1  0
 10 11  1  0
 10 12  1  0
 12 13  1  0
 13 14  1  0
 14 15  1  0
 14 38  1  1
 15 23  2  0
 15 16  1  0
 16 28  1  0
 16 17  1  0
 17 22  2  0
 17 18  1  0
 18 19  2  0
 18 39  1  0
 19 20  1  0
 19 40  1  0
 20 21  2  0
 20 41  1  0
 21 22  1  0
 21 42  1  0
 22 23  1  0
 23 24  1  0
 24 25  1  0
 24 43  1  0
 24 44  1  0
 25 26  1  0
 25 45  1  6
 26 27  1  0
 26 46  1  6
 27 47  1  0
 27 48  1  0
M  CHG  2   2   1  11  -1
M  END
>  <i_m_ct_stereo_status>  (55) 
1

>  <s_m_source_file>  (55) 
/var/tmp/pbs.5076255.sched01/tmp7me73ahx/0ll6f151o.sdf

>  <i_m_source_file_index>  (55) 
23

>  <i_lp_mmshare_version>  (55) 
48012

>  <i_f3d_flags>  (55) 
0

>  <s_epik_input>  (55) 
W0NIMl0xW0NIMl1OKFtDSDNdKVtDQEBIXShbQ0gyXTIpW0NASF0zW0NIMl1jKGM0YyhbbkhdNSlbY0hdW2NIXVtjSF1bY0hdNCljNVtDQEhdNk9jN2MoW09IXSlbY0hdW2NIXWMyYzdbQ0BAXTEzNg==

>  <s_epik_cmdline>  (55) 
J2VwaWtfcHl0aG9uJywgJy1waHQnLCAnMi4wJywgJy1waCcsICc3LjAnLCAnLXRuJywgJzgnLCAnLW1hJywgJzIwMCcsICctaW1hZScsICc8aW5maWxlLm1hZT4nLCAnLW9tYWUnLCAnPG91dGZpbGUubWFlPic=

>  <r_epik_Ionization_Penalty>  (55) 
2.25743

>  <r_epik_Ionization_Penalty_Charging>  (55) 
2.25743

>  <r_epik_Ionization_Penalty_Neutral>  (55) 
3.72932e-10

>  <r_epik_State_Penalty>  (55) 
2.39953

>  <r_epik_Charging_Adjusted_Penalty>  (55) 
4.65695

>  <i_epik_Tot_Q>  (55) 
0

>  <i_epik_Tot_abs_Q>  (55) 
2

>  <s_lp_Force_Field>  (55) 
OPLS3e

>  <r_lp_Energy>  (55) 
59.3429

>  <b_lp_Chiralities_Consistent>  (55) 
1

>  <s_lp_Variant>  (55) 
17:0-3

>  <s_i_glide_gridfile>  (55) 
pfpi4k_grid

>  <i_i_glide_lignum>  (55) 
23

>  <i_i_glide_rotatable_bonds>  (55) 
0

>  <r_i_docking_score>  (55) 
-2.92327

>  <r_i_glide_ligand_efficiency>  (55) 
-0.108269

>  <r_i_glide_ligand_efficiency_sa>  (55) 
-0.324808

>  <r_i_glide_ligand_efficiency_ln>  (55) 
-0.680489

>  <r_i_glide_gscore>  (55) 
-2.92327

>  <r_i_glide_lipo>  (55) 
-0.274529

>  <r_i_glide_hbond>  (55) 
0

>  <r_i_glide_metal>  (55) 
-0

>  <r_i_glide_rewards>  (55) 
-0.96523

>  <r_i_glide_evdw>  (55) 
-22.988

>  <r_i_glide_ecoul>  (55) 
-3.46104

>  <r_i_glide_erotb>  (55) 
0

>  <r_i_glide_esite>  (55) 
-0.0149568

>  <r_i_glide_emodel>  (55) 
-33.2425

>  <r_i_glide_energy>  (55) 
-26.449

>  <r_i_glide_einternal>  (55) 
0

>  <r_i_glide_intrahb_reward>  (55) 
-0

>  <i_i_glide_confnum>  (55) 
1

>  <i_i_glide_posenum>  (55) 
5

>  <r_i_glide_eff_state_penalty>  (55) 
0

>  <ligand_id>  (55) 
17

>  <original_smiles>  (55) 
CN1CCC23c4c5ccc(O)c4OC2c2[nH]c4ccccc4c2CC3C1C5

>  <smiles>  (55) 
[H]c1c([H])c2c3c(c1[O-])OC1([H])c4c(c5c([H])c([H])c([H])c([H])c5n4[H])C([H])([H])C4([H])C31C([H])([H])C([H])([H])[N+]([H])(C([H])([H])[H])C4([H])C2([H])[H]

$$$$
18:0:0
     RDKit          3D

 68 73  0  0  1  0  0  0  0  0999 V2000
   -1.2603    2.2916    8.9915 C   0  0  0  0  0  0  0  0  0  0  0  0
   -0.0161    1.4317    8.6789 C   0  0  0  0  0  0  0  0  0  0  0  0
    0.3099    0.6427    9.9722 C   0  0  0  0  0  0  0  0  0  0  0  0
   -0.4622    0.4394    7.7465 O   0  0  0  0  0  0  0  0  0  0  0  0
    0.2248    0.1400    6.5441 C   0  0  2  0  0  0  0  0  0  0  0  0
   -0.4706   -0.9578    5.9608 O   0  0  0  0  0  0  0  0  0  0  0  0
    1.6262   -0.2150    6.7730 C   0  0  1  0  0  0  0  0  0  0  0  0
    2.2170   -0.7344    5.3567 C   0  0  0  0  0  0  0  0  0  0  0  0
    3.2103   -1.4587    5.4258 O   0  0  0  0  0  0  0  0  0  0  0  0
    1.6402   -0.4170    3.8507 C   0  0  1  0  0  0  0  0  0  0  0  0
    1.1077   -1.6330    3.3564 O   0  0  0  0  0  0  0  0  0  0  0  0
    0.6531    0.7626    3.1799 C   0  0  1  0  0  0  0  0  0  0  0  0
   -0.6494    0.5689    3.6553 O   0  0  0  0  0  0  0  0  0  0  0  0
   -0.8893    1.4341    4.7430 C   0  0  1  0  0  0  0  0  0  0  0  0
    0.3844    1.4106    5.6591 C   0  0  2  0  0  0  0  0  0  0  0  0
    2.0680    2.1430    5.4597 C   0  0  2  0  0  0  0  0  0  0  0  0
    2.9944    1.8177    4.4182 O   0  0  0  0  0  0  0  0  0  0  0  0
    3.0577    1.7801    6.5987 C   0  0  0  0  0  0  0  0  0  0  0  0
    2.2387    1.0644    7.5655 C   0  0  2  0  0  0  0  0  0  0  0  0
    3.2315    0.5602    8.6567 C   0  0  0  0  0  0  0  0  0  0  0  0
    1.2138    2.2316    8.1044 C   0  0  1  0  0  0  0  0  0  0  0  0
    0.8298    3.6701    7.2479 C   0  0  1  0  0  0  0  0  0  0  0  0
    1.5612    4.6628    7.9568 O   0  0  0  0  0  0  0  0  0  0  0  0
    0.8545    4.0451    5.5568 C   0  0  1  0  0  0  0  0  0  0  0  0
    0.7417    5.4602    5.5631 O   0  0  0  0  0  0  0  0  0  0  0  0
    2.2056    3.6735    5.1853 C   0  0  1  0  0  0  0  0  0  0  0  0
    3.2440    4.4152    5.8149 O   0  0  0  0  0  0  0  0  0  0  0  0
    0.0744    3.5003    4.0986 C   0  0  1  0  0  0  0  0  0  0  0  0
   -0.1522    4.6629    3.2774 O   0  0  0  0  0  0  0  0  0  0  0  0
    0.7394    2.4055    2.9999 C   0  0  1  0  0  0  0  0  0  0  0  0
    1.8481    2.8203    2.2424 O   0  0  0  0  0  0  0  0  0  0  0  0
   -1.3143    2.8568    4.3242 C   0  0  0  0  0  0  0  0  0  0  0  0
   -2.2770    2.7845    3.0997 C   0  0  0  0  0  0  0  0  0  0  0  0
   -2.1793    3.5856    5.3726 C   0  0  0  0  0  0  0  0  0  0  0  0
   -1.0074    3.1710    9.5856 H   0  0  0  0  0  0  0  0  0  0  0  0
   -2.0173    1.7456    9.5515 H   0  0  0  0  0  0  0  0  0  0  0  0
   -1.7599    2.6098    8.0795 H   0  0  0  0  0  0  0  0  0  0  0  0
    0.9855    1.1828   10.6344 H   0  0  0  0  0  0  0  0  0  0  0  0
    0.7420   -0.3288    9.7507 H   0  0  0  0  0  0  0  0  0  0  0  0
   -0.5817    0.4194   10.5619 H   0  0  0  0  0  0  0  0  0  0  0  0
   -0.0912   -1.1505    5.1078 H   0  0  0  0  0  0  0  0  0  0  0  0
    1.6267   -1.0710    7.4462 H   0  0  0  0  0  0  0  0  0  0  0  0
    2.5708   -0.3115    3.2916 H   0  0  0  0  0  0  0  0  0  0  0  0
    0.9855   -1.5415    2.4226 H   0  0  0  0  0  0  0  0  0  0  0  0
    0.6069    0.4397    2.1366 H   0  0  0  0  0  0  0  0  0  0  0  0
   -1.7589    1.0112    5.2553 H   0  0  0  0  0  0  0  0  0  0  0  0
   -0.2424    2.0204    6.2610 H   0  0  0  0  0  0  0  0  0  0  0  0
    2.6691    2.1613    3.5845 H   0  0  0  0  0  0  0  0  0  0  0  0
    3.9102    1.1588    6.2985 H   0  0  0  0  0  0  0  0  0  0  0  0
    3.5243    2.5919    7.1511 H   0  0  0  0  0  0  0  0  0  0  0  0
    3.6673    1.3822    9.2236 H   0  0  0  0  0  0  0  0  0  0  0  0
    4.0578    0.0006    8.2179 H   0  0  0  0  0  0  0  0  0  0  0  0
    2.7872   -0.1179    9.3764 H   0  0  0  0  0  0  0  0  0  0  0  0
    1.6968    2.6169    9.0042 H   0  0  0  0  0  0  0  0  0  0  0  0
   -0.1440    3.9845    7.5858 H   0  0  0  0  0  0  0  0  0  0  0  0
    2.4848    4.5453    7.7695 H   0  0  0  0  0  0  0  0  0  0  0  0
    1.4802    5.7677    6.0711 H   0  0  0  0  0  0  0  0  0  0  0  0
    2.3963    4.0023    4.1692 H   0  0  0  0  0  0  0  0  0  0  0  0
    4.0588    4.1648    5.3987 H   0  0  0  0  0  0  0  0  0  0  0  0
   -0.1217    4.4589    2.3371 H   0  0  0  0  0  0  0  0  0  0  0  0
    0.0697    2.5097    2.1534 H   0  0  0  0  0  0  0  0  0  0  0  0
    1.5198    3.4670    1.6199 H   0  0  0  0  0  0  0  0  0  0  0  0
   -2.5132    3.7725    2.7052 H   0  0  0  0  0  0  0  0  0  0  0  0
   -3.2214    2.3349    3.4048 H   0  0  0  0  0  0  0  0  0  0  0  0
   -1.9353    2.1724    2.2695 H   0  0  0  0  0  0  0  0  0  0  0  0
   -2.5493    4.5200    4.9491 H   0  0  0  0  0  0  0  0  0  0  0  0
   -1.6683    3.8584    6.2774 H   0  0  0  0  0  0  0  0  0  0  0  0
   -3.0441    2.9887    5.6658 H   0  0  0  0  0  0  0  0  0  0  0  0
  1  2  1  0
  1 35  1  0
  1 36  1  0
  1 37  1  0
  2 21  1  0
  2  3  1  0
  2  4  1  0
  3 38  1  0
  3 39  1  0
  3 40  1  0
  4  5  1  0
  5 15  1  0
  5  6  1  6
  5  7  1  0
  6 41  1  0
  7 19  1  0
  7  8  1  0
  7 42  1  1
  8  9  2  0
  8 10  1  0
 10 11  1  0
 10 12  1  0
 10 43  1  6
 11 44  1  0
 12 30  1  0
 12 13  1  0
 12 45  1  6
 13 14  1  0
 14 32  1  0
 14 15  1  0
 14 46  1  1
 15 16  1  0
 15 47  1  1
 16 26  1  0
 16 17  1  6
 16 18  1  0
 17 48  1  0
 18 19  1  0
 18 49  1  0
 18 50  1  0
 19 20  1  1
 19 21  1  0
 20 51  1  0
 20 52  1  0
 20 53  1  0
 21 22  1  0
 21 54  1  1
 22 23  1  0
 22 24  1  0
 22 55  1  1
 23 56  1  0
 24 25  1  1
 24 26  1  0
 24 28  1  0
 25 57  1  0
 26 27  1  0
 26 58  1  6
 27 59  1  0
 28 29  1  6
 28 30  1  0
 28 32  1  0
 29 60  1  0
 30 31  1  0
 30 61  1  6
 31 62  1  0
 32 33  1  0
 32 34  1  0
 33 63  1  0
 33 64  1  0
 33 65  1  0
 34 66  1  0
 34 67  1  0
 34 68  1  0
M  END
>  <i_m_ct_stereo_status>  (56) 
1

>  <s_m_source_file>  (56) 
/var/tmp/pbs.5076255.sched01/tmp7me73ahx/0ll6f151o.sdf

>  <i_m_source_file_index>  (56) 
24

>  <i_lp_mmshare_version>  (56) 
48012

>  <i_f3d_flags>  (56) 
0

>  <s_epik_input>  (56) 
W09IXVtDQF0xMltDQEBIXTNbQ0BdNChbQ0gzXSlbQ0BIXShDKE8xKShbQ0gzXSlbQ0gzXSlbQ0BASF0oW09IXSlbQ0BdNShbT0hdKVtDQEBdNihbT0hdKVtDQEBIXShbT0hdKVtDQEBIXShbQ0BASF0oQzM9TylbT0hdKU9bQ0BIXShDNihbQ0gzXSlbQ0gzXSlbQ0BASF0yW0NAXShbT0hdKShbQ0gyXTQpW0NAQEhdNVtPSF0=

>  <s_epik_cmdline>  (56) 
J2VwaWtfcHl0aG9uJywgJy1waHQnLCAnMi4wJywgJy1waCcsICc3LjAnLCAnLXRuJywgJzgnLCAnLW1hJywgJzIwMCcsICctaW1hZScsICc8aW5maWxlLm1hZT4nLCAnLW9tYWUnLCAnPG91dGZpbGUubWFlPic=

>  <r_lp_tautomer_probability>  (56) 
1

>  <r_epik_Ionization_Penalty>  (56) 
1.14305e-05

>  <r_epik_Ionization_Penalty_Charging>  (56) 
0

>  <r_epik_Ionization_Penalty_Neutral>  (56) 
1.14305e-05

>  <r_epik_State_Penalty>  (56) 
-0

>  <r_epik_Charging_Adjusted_Penalty>  (56) 
0

>  <i_epik_Tot_Q>  (56) 
0

>  <i_epik_Tot_abs_Q>  (56) 
0

>  <s_lp_Force_Field>  (56) 
OPLS3e

>  <r_lp_Energy>  (56) 
407.032

>  <b_lp_Chiralities_Consistent>  (56) 
1

>  <s_lp_Variant>  (56) 
18:0-1

>  <s_i_glide_gridfile>  (56) 
pfpi4k_grid

>  <i_i_glide_lignum>  (56) 
24

>  <i_i_glide_rotatable_bonds>  (56) 
8

>  <r_i_docking_score>  (56) 
-3.52319

>  <r_i_glide_ligand_efficiency>  (56) 
-0.103623

>  <r_i_glide_ligand_efficiency_sa>  (56) 
-0.335699

>  <r_i_glide_ligand_efficiency_ln>  (56) 
-0.778371

>  <r_i_glide_gscore>  (56) 
-3.52319

>  <r_i_glide_lipo>  (56) 
0

>  <r_i_glide_hbond>  (56) 
-0.0131323

>  <r_i_glide_metal>  (56) 
-0

>  <r_i_glide_rewards>  (56) 
-0.591981

>  <r_i_glide_evdw>  (56) 
-21.5851

>  <r_i_glide_ecoul>  (56) 
-12.1411

>  <r_i_glide_erotb>  (56) 
0

>  <r_i_glide_esite>  (56) 
-0.0176522

>  <r_i_glide_emodel>  (56) 
-46.9195

>  <r_i_glide_energy>  (56) 
-33.7262

>  <r_i_glide_einternal>  (56) 
3.47739

>  <r_i_glide_intrahb_reward>  (56) 
-0.5

>  <i_i_glide_confnum>  (56) 
2

>  <i_i_glide_posenum>  (56) 
29

>  <r_i_glide_eff_state_penalty>  (56) 
0

>  <ligand_id>  (56) 
18

>  <original_smiles>  (56) 
CC1(C)OC2(O)C3C(=O)C(O)C4OC5C2C2(O)CC3(C)C1C(O)C(O)(C2O)C(O)(C4O)C5(C)C

>  <smiles>  (56) 
[H]OC1([H])C(=O)C2([H])C3(O[H])OC(C([H])([H])[H])(C([H])([H])[H])C4([H])C([H])(O[H])C5(O[H])C([H])(O[H])C(O[H])(C([H])([H])C24C([H])([H])[H])C3([H])C2([H])OC1([H])C([H])(O[H])C5(O[H])C2(C([H])([H])[H])C([H])([H])[H]

$$$$
18:0:1
     RDKit          3D

 68 73  0  0  1  0  0  0  0  0999 V2000
    1.9518   -0.5503    8.0824 C   0  0  0  0  0  0  0  0  0  0  0  0
    2.3938   -0.4839    6.6056 C   0  0  0  0  0  0  0  0  0  0  0  0
    3.3456   -1.6785    6.3831 C   0  0  0  0  0  0  0  0  0  0  0  0
    1.2147   -0.8178    5.8643 O   0  0  0  0  0  0  0  0  0  0  0  0
    0.7756   -0.0406    4.7580 C   0  0  2  0  0  0  0  0  0  0  0  0
   -0.3494   -0.7263    4.2203 O   0  0  0  0  0  0  0  0  0  0  0  0
    1.8003    0.1107    3.7264 C   0  0  1  0  0  0  0  0  0  0  0  0
    1.0894    0.8130    2.4557 C   0  0  0  0  0  0  0  0  0  0  0  0
    1.7117    0.7309    1.3956 O   0  0  0  0  0  0  0  0  0  0  0  0
   -0.2881    1.6902    2.4311 C   0  0  1  0  0  0  0  0  0  0  0  0
   -1.2420    0.9483    1.7009 O   0  0  0  0  0  0  0  0  0  0  0  0
   -1.1672    2.5669    3.5621 C   0  0  1  0  0  0  0  0  0  0  0  0
   -1.7712    1.6636    4.4569 O   0  0  0  0  0  0  0  0  0  0  0  0
   -0.9593    1.5145    5.6026 C   0  0  1  0  0  0  0  0  0  0  0  0
    0.5413    1.4520    5.1465 C   0  0  2  0  0  0  0  0  0  0  0  0
    1.7129    2.7252    4.5092 C   0  0  2  0  0  0  0  0  0  0  0  0
    1.5284    3.5107    3.3223 O   0  0  0  0  0  0  0  0  0  0  0  0
    3.0928    2.1738    4.0862 C   0  0  0  0  0  0  0  0  0  0  0  0
    3.0567    0.7851    4.5109 C   0  0  2  0  0  0  0  0  0  0  0  0
    4.3813    0.1625    3.9802 C   0  0  0  0  0  0  0  0  0  0  0  0
    2.9989    0.8982    6.1535 C   0  0  1  0  0  0  0  0  0  0  0  0
    2.4465    2.2718    7.0176 C   0  0  1  0  0  0  0  0  0  0  0  0
    3.6475    2.8563    7.4949 O   0  0  0  0  0  0  0  0  0  0  0  0
    1.3599    3.5397    6.5774 C   0  0  1  0  0  0  0  0  0  0  0  0
    1.5685    4.4809    7.6114 O   0  0  0  0  0  0  0  0  0  0  0  0
    1.9311    4.0250    5.3421 C   0  0  1  0  0  0  0  0  0  0  0  0
    3.2419    4.5574    5.4374 O   0  0  0  0  0  0  0  0  0  0  0  0
   -0.2959    3.7067    6.1074 C   0  0  1  0  0  0  0  0  0  0  0  0
   -0.7532    4.8883    6.7416 O   0  0  0  0  0  0  0  0  0  0  0  0
   -0.8638    3.8699    4.5261 C   0  0  1  0  0  0  0  0  0  0  0  0
   -0.6462    5.0685    3.7955 O   0  0  0  0  0  0  0  0  0  0  0  0
   -1.2234    2.6050    6.6568 C   0  0  0  0  0  0  0  0  0  0  0  0
   -2.7521    2.9102    6.7301 C   0  0  0  0  0  0  0  0  0  0  0  0
   -0.9260    2.1755    8.1162 C   0  0  0  0  0  0  0  0  0  0  0  0
    2.7316   -0.1961    8.7494 H   0  0  0  0  0  0  0  0  0  0  0  0
    1.7000   -1.5677    8.3750 H   0  0  0  0  0  0  0  0  0  0  0  0
    1.0407    0.0288    8.2452 H   0  0  0  0  0  0  0  0  0  0  0  0
    4.3777   -1.4316    6.5885 H   0  0  0  0  0  0  0  0  0  0  0  0
    3.2615   -2.0603    5.3669 H   0  0  0  0  0  0  0  0  0  0  0  0
    3.0890   -2.5231    7.0118 H   0  0  0  0  0  0  0  0  0  0  0  0
   -0.0350   -1.4941    3.7628 H   0  0  0  0  0  0  0  0  0  0  0  0
    2.0951   -0.8929    3.4089 H   0  0  0  0  0  0  0  0  0  0  0  0
   -0.0194    2.4670    1.7179 H   0  0  0  0  0  0  0  0  0  0  0  0
   -0.9870    0.9183    0.7681 H   0  0  0  0  0  0  0  0  0  0  0  0
   -1.9960    2.9418    2.9600 H   0  0  0  0  0  0  0  0  0  0  0  0
   -1.2788    0.5701    6.0590 H   0  0  0  0  0  0  0  0  0  0  0  0
    0.6685    1.2745    6.1874 H   0  0  0  0  0  0  0  0  0  0  0  0
    1.4576    2.9664    2.5463 H   0  0  0  0  0  0  0  0  0  0  0  0
    3.3122    2.2402    3.0199 H   0  0  0  0  0  0  0  0  0  0  0  0
    3.9821    2.5812    4.5563 H   0  0  0  0  0  0  0  0  0  0  0  0
    5.2488    0.5819    4.4830 H   0  0  0  0  0  0  0  0  0  0  0  0
    4.5018    0.3513    2.9150 H   0  0  0  0  0  0  0  0  0  0  0  0
    4.4373   -0.9147    4.0857 H   0  0  0  0  0  0  0  0  0  0  0  0
    4.0423    0.8355    6.4665 H   0  0  0  0  0  0  0  0  0  0  0  0
    2.0870    1.9155    7.9678 H   0  0  0  0  0  0  0  0  0  0  0  0
    4.0736    3.2880    6.7616 H   0  0  0  0  0  0  0  0  0  0  0  0
    2.5123    4.5606    7.6736 H   0  0  0  0  0  0  0  0  0  0  0  0
    1.4159    4.9230    5.0335 H   0  0  0  0  0  0  0  0  0  0  0  0
    3.4596    4.9288    4.5927 H   0  0  0  0  0  0  0  0  0  0  0  0
   -0.3942    4.8507    7.6244 H   0  0  0  0  0  0  0  0  0  0  0  0
   -1.8752    4.1680    4.7338 H   0  0  0  0  0  0  0  0  0  0  0  0
   -0.0962    4.8613    3.0412 H   0  0  0  0  0  0  0  0  0  0  0  0
   -2.9619    3.7509    7.3967 H   0  0  0  0  0  0  0  0  0  0  0  0
   -3.2851    2.0481    7.1272 H   0  0  0  0  0  0  0  0  0  0  0  0
   -3.2358    3.1195    5.7754 H   0  0  0  0  0  0  0  0  0  0  0  0
   -1.2692    2.9334    8.8255 H   0  0  0  0  0  0  0  0  0  0  0  0
    0.1191    2.0171    8.3348 H   0  0  0  0  0  0  0  0  0  0  0  0
   -1.4512    1.2521    8.3651 H   0  0  0  0  0  0  0  0  0  0  0  0
  1  2  1  0
  1 35  1  0
  1 36  1  0
  1 37  1  0
  2 21  1  0
  2  3  1  0
  2  4  1  0
  3 38  1  0
  3 39  1  0
  3 40  1  0
  4  5  1  0
  5 15  1  0
  5  6  1  6
  5  7  1  0
  6 41  1  0
  7 19  1  0
  7  8  1  0
  7 42  1  6
  8  9  2  0
  8 10  1  0
 10 11  1  0
 10 12  1  0
 10 43  1  6
 11 44  1  0
 12 30  1  0
 12 13  1  0
 12 45  1  6
 13 14  1  0
 14 32  1  0
 14 15  1  0
 14 46  1  1
 15 16  1  0
 15 47  1  1
 16 26  1  0
 16 17  1  6
 16 18  1  0
 17 48  1  0
 18 19  1  0
 18 49  1  0
 18 50  1  0
 19 20  1  1
 19 21  1  0
 20 51  1  0
 20 52  1  0
 20 53  1  0
 21 22  1  0
 21 54  1  1
 22 23  1  0
 22 24  1  0
 22 55  1  1
 23 56  1  0
 24 25  1  1
 24 26  1  0
 24 28  1  0
 25 57  1  0
 26 27  1  0
 26 58  1  6
 27 59  1  0
 28 29  1  1
 28 30  1  0
 28 32  1  0
 29 60  1  0
 30 31  1  0
 30 61  1  1
 31 62  1  0
 32 33  1  0
 32 34  1  0
 33 63  1  0
 33 64  1  0
 33 65  1  0
 34 66  1  0
 34 67  1  0
 34 68  1  0
M  END
>  <i_m_ct_stereo_status>  (57) 
1

>  <s_m_source_file>  (57) 
/var/tmp/pbs.5076255.sched01/tmp7me73ahx/0ll6f151o.sdf

>  <i_m_source_file_index>  (57) 
24

>  <i_lp_mmshare_version>  (57) 
48012

>  <i_f3d_flags>  (57) 
0

>  <s_epik_input>  (57) 
W09IXVtDQF0xMltDQEBIXTNbQ0BdNChbQ0gzXSlbQ0BIXShDKE8xKShbQ0gzXSlbQ0gzXSlbQ0BASF0oW09IXSlbQ0BdNShbT0hdKVtDQEBdNihbT0hdKVtDQEBIXShbT0hdKVtDQEBIXShbQ0BASF0oQzM9TylbT0hdKU9bQ0BIXShDNihbQ0gzXSlbQ0gzXSlbQ0BASF0yW0NAXShbT0hdKShbQ0gyXTQpW0NAQEhdNVtPSF0=

>  <s_epik_cmdline>  (57) 
J2VwaWtfcHl0aG9uJywgJy1waHQnLCAnMi4wJywgJy1waCcsICc3LjAnLCAnLXRuJywgJzgnLCAnLW1hJywgJzIwMCcsICctaW1hZScsICc8aW5maWxlLm1hZT4nLCAnLW9tYWUnLCAnPG91dGZpbGUubWFlPic=

>  <r_lp_tautomer_probability>  (57) 
1

>  <r_epik_Ionization_Penalty>  (57) 
1.14305e-05

>  <r_epik_Ionization_Penalty_Charging>  (57) 
0

>  <r_epik_Ionization_Penalty_Neutral>  (57) 
1.14305e-05

>  <r_epik_State_Penalty>  (57) 
-0

>  <r_epik_Charging_Adjusted_Penalty>  (57) 
0

>  <i_epik_Tot_Q>  (57) 
0

>  <i_epik_Tot_abs_Q>  (57) 
0

>  <s_lp_Force_Field>  (57) 
OPLS3e

>  <r_lp_Energy>  (57) 
407.032

>  <b_lp_Chiralities_Consistent>  (57) 
1

>  <s_lp_Variant>  (57) 
18:0-1

>  <s_i_glide_gridfile>  (57) 
pfpi4k_grid

>  <i_i_glide_lignum>  (57) 
24

>  <i_i_glide_rotatable_bonds>  (57) 
8

>  <r_i_docking_score>  (57) 
-3.44334

>  <r_i_glide_ligand_efficiency>  (57) 
-0.101275

>  <r_i_glide_ligand_efficiency_sa>  (57) 
-0.328091

>  <r_i_glide_ligand_efficiency_ln>  (57) 
-0.760731

>  <r_i_glide_gscore>  (57) 
-3.44334

>  <r_i_glide_lipo>  (57) 
-0.211425

>  <r_i_glide_hbond>  (57) 
0

>  <r_i_glide_metal>  (57) 
-0

>  <r_i_glide_rewards>  (57) 
-0.591981

>  <r_i_glide_evdw>  (57) 
-24.6605

>  <r_i_glide_ecoul>  (57) 
-9.11181

>  <r_i_glide_erotb>  (57) 
0

>  <r_i_glide_esite>  (57) 
-0.0401418

>  <r_i_glide_emodel>  (57) 
-47.0162

>  <r_i_glide_energy>  (57) 
-33.7723

>  <r_i_glide_einternal>  (57) 
3.40586

>  <r_i_glide_intrahb_reward>  (57) 
-0.5

>  <i_i_glide_confnum>  (57) 
2

>  <i_i_glide_posenum>  (57) 
19

>  <r_i_glide_eff_state_penalty>  (57) 
0

>  <ligand_id>  (57) 
18

>  <original_smiles>  (57) 
CC1(C)OC2(O)C3C(=O)C(O)C4OC5C2C2(O)CC3(C)C1C(O)C(O)(C2O)C(O)(C4O)C5(C)C

>  <smiles>  (57) 
[H]OC1([H])C(=O)C2([H])C3(O[H])OC(C([H])([H])[H])(C([H])([H])[H])C4([H])C([H])(O[H])C5(O[H])C([H])(O[H])C(O[H])(C([H])([H])C24C([H])([H])[H])C3([H])C2([H])OC1([H])C([H])(O[H])C5(O[H])C2(C([H])([H])[H])C([H])([H])[H]

$$$$
18:0:2
     RDKit          3D

 68 73  0  0  1  0  0  0  0  0999 V2000
    1.8880   -0.4590    8.1453 C   0  0  0  0  0  0  0  0  0  0  0  0
    2.3402   -0.4661    6.6696 C   0  0  0  0  0  0  0  0  0  0  0  0
    3.2390   -1.7146    6.4904 C   0  0  0  0  0  0  0  0  0  0  0  0
    1.1595   -0.7673    5.9197 O   0  0  0  0  0  0  0  0  0  0  0  0
    0.7523   -0.0142    4.7948 C   0  0  2  0  0  0  0  0  0  0  0  0
   -0.3986   -0.6674    4.2723 O   0  0  0  0  0  0  0  0  0  0  0  0
    1.7845    0.0527    3.7637 C   0  0  1  0  0  0  0  0  0  0  0  0
    1.1216    0.7492    2.4648 C   0  0  0  0  0  0  0  0  0  0  0  0
    1.7373    0.5872    1.4037 O   0  0  0  0  0  0  0  0  0  0  0  0
   -0.2246    1.6812    2.3987 C   0  0  1  0  0  0  0  0  0  0  0  0
   -1.2191    0.9787    1.6838 O   0  0  0  0  0  0  0  0  0  0  0  0
   -1.0630    2.6306    3.4968 C   0  0  1  0  0  0  0  0  0  0  0  0
   -1.7090    1.7936    4.4212 O   0  0  0  0  0  0  0  0  0  0  0  0
   -0.9151    1.6496    5.5785 C   0  0  1  0  0  0  0  0  0  0  0  0
    0.5849    1.4910    5.1380 C   0  0  2  0  0  0  0  0  0  0  0  0
    1.8145    2.6876    4.4665 C   0  0  2  0  0  0  0  0  0  0  0  0
    1.6664    3.3831    3.2321 O   0  0  0  0  0  0  0  0  0  0  0  0
    3.1695    2.0591    4.0703 C   0  0  0  0  0  0  0  0  0  0  0  0
    3.0663    0.6894    4.5370 C   0  0  2  0  0  0  0  0  0  0  0  0
    4.3675   -0.0071    4.0296 C   0  0  0  0  0  0  0  0  0  0  0  0
    3.0086    0.8692    6.1687 C   0  0  1  0  0  0  0  0  0  0  0  0
    2.5196    2.2988    6.9820 C   0  0  1  0  0  0  0  0  0  0  0  0
    3.7438    2.8378    7.4498 O   0  0  0  0  0  0  0  0  0  0  0  0
    1.4998    3.6038    6.4863 C   0  0  1  0  0  0  0  0  0  0  0  0
    1.7454    4.5798    7.4850 O   0  0  0  0  0  0  0  0  0  0  0  0
    2.0977    4.0125    5.2293 C   0  0  1  0  0  0  0  0  0  0  0  0
    3.4369    4.4855    5.3266 O   0  0  0  0  0  0  0  0  0  0  0  0
   -0.1504    3.8234    6.0072 C   0  0  1  0  0  0  0  0  0  0  0  0
   -0.5847    5.0396    6.5947 O   0  0  0  0  0  0  0  0  0  0  0  0
   -0.7039    3.9524    4.4187 C   0  0  1  0  0  0  0  0  0  0  0  0
   -0.4166    5.1247    3.6578 O   0  0  0  0  0  0  0  0  0  0  0  0
   -1.1337    2.7815    6.5927 C   0  0  0  0  0  0  0  0  0  0  0  0
   -2.6536    3.1476    6.6423 C   0  0  0  0  0  0  0  0  0  0  0  0
   -0.8597    2.3911    8.0674 C   0  0  0  0  0  0  0  0  0  0  0  0
    2.6792   -0.1128    8.8039 H   0  0  0  0  0  0  0  0  0  0  0  0
    1.5891   -1.4502    8.4757 H   0  0  0  0  0  0  0  0  0  0  0  0
    1.0080    0.1649    8.2826 H   0  0  0  0  0  0  0  0  0  0  0  0
    4.2862   -1.5025    6.6874 H   0  0  0  0  0  0  0  0  0  0  0  0
    3.1431   -2.1324    5.4892 H   0  0  0  0  0  0  0  0  0  0  0  0
    2.9488   -2.5245    7.1532 H   0  0  0  0  0  0  0  0  0  0  0  0
   -0.1129   -1.4529    3.8359 H   0  0  0  0  0  0  0  0  0  0  0  0
    2.0299   -0.9742    3.4766 H   0  0  0  0  0  0  0  0  0  0  0  0
    0.0965    2.4303    1.6814 H   0  0  0  0  0  0  0  0  0  0  0  0
   -0.9878    0.9160    0.7433 H   0  0  0  0  0  0  0  0  0  0  0  0
   -1.8721    3.0244    2.8793 H   0  0  0  0  0  0  0  0  0  0  0  0
   -1.2851    0.7368    6.0642 H   0  0  0  0  0  0  0  0  0  0  0  0
    0.6997    1.3476    6.1864 H   0  0  0  0  0  0  0  0  0  0  0  0
    2.4747    3.8220    3.0210 H   0  0  0  0  0  0  0  0  0  0  0  0
    3.4028    2.0586    3.0022 H   0  0  0  0  0  0  0  0  0  0  0  0
    4.0782    2.4533    4.5197 H   0  0  0  0  0  0  0  0  0  0  0  0
    5.2560    0.3866    4.5213 H   0  0  0  0  0  0  0  0  0  0  0  0
    4.5021    0.1394    2.9594 H   0  0  0  0  0  0  0  0  0  0  0  0
    4.3705   -1.0817    4.1700 H   0  0  0  0  0  0  0  0  0  0  0  0
    4.0475    0.7625    6.4887 H   0  0  0  0  0  0  0  0  0  0  0  0
    2.1403    1.9926    7.9452 H   0  0  0  0  0  0  0  0  0  0  0  0
    4.2002    3.2190    6.7068 H   0  0  0  0  0  0  0  0  0  0  0  0
    2.6908    4.6374    7.5314 H   0  0  0  0  0  0  0  0  0  0  0  0
    1.6173    4.9210    4.8873 H   0  0  0  0  0  0  0  0  0  0  0  0
    3.6968    4.8573    4.4930 H   0  0  0  0  0  0  0  0  0  0  0  0
   -0.2380    5.0428    7.4802 H   0  0  0  0  0  0  0  0  0  0  0  0
   -1.7093    4.3091    4.5967 H   0  0  0  0  0  0  0  0  0  0  0  0
   -0.1515    4.8620    2.7857 H   0  0  0  0  0  0  0  0  0  0  0  0
   -2.8368    4.0162    7.2731 H   0  0  0  0  0  0  0  0  0  0  0  0
   -3.2250    2.3236    7.0638 H   0  0  0  0  0  0  0  0  0  0  0  0
   -3.1185    3.3419    5.6779 H   0  0  0  0  0  0  0  0  0  0  0  0
   -1.1660    3.1843    8.7456 H   0  0  0  0  0  0  0  0  0  0  0  0
    0.1735    2.1942    8.2985 H   0  0  0  0  0  0  0  0  0  0  0  0
   -1.4194    1.4990    8.3467 H   0  0  0  0  0  0  0  0  0  0  0  0
  1  2  1  0
  1 35  1  0
  1 36  1  0
  1 37  1  0
  2 21  1  0
  2  3  1  0
  2  4  1  0
  3 38  1  0
  3 39  1  0
  3 40  1  0
  4  5  1  0
  5 15  1  0
  5  6  1  6
  5  7  1  0
  6 41  1  0
  7 19  1  0
  7  8  1  0
  7 42  1  6
  8  9  2  0
  8 10  1  0
 10 11  1  0
 10 12  1  0
 10 43  1  6
 11 44  1  0
 12 30  1  0
 12 13  1  0
 12 45  1  6
 13 14  1  0
 14 32  1  0
 14 15  1  0
 14 46  1  1
 15 16  1  0
 15 47  1  1
 16 26  1  0
 16 17  1  6
 16 18  1  0
 17 48  1  0
 18 19  1  0
 18 49  1  0
 18 50  1  0
 19 20  1  1
 19 21  1  0
 20 51  1  0
 20 52  1  0
 20 53  1  0
 21 22  1  0
 21 54  1  1
 22 23  1  0
 22 24  1  0
 22 55  1  1
 23 56  1  0
 24 25  1  1
 24 26  1  0
 24 28  1  0
 25 57  1  0
 26 27  1  0
 26 58  1  6
 27 59  1  0
 28 29  1  1
 28 30  1  0
 28 32  1  0
 29 60  1  0
 30 31  1  0
 30 61  1  1
 31 62  1  0
 32 33  1  0
 32 34  1  0
 33 63  1  0
 33 64  1  0
 33 65  1  0
 34 66  1  0
 34 67  1  0
 34 68  1  0
M  END
>  <i_m_ct_stereo_status>  (58) 
1

>  <s_m_source_file>  (58) 
/var/tmp/pbs.5076255.sched01/tmp7me73ahx/0ll6f151o.sdf

>  <i_m_source_file_index>  (58) 
24

>  <i_lp_mmshare_version>  (58) 
48012

>  <i_f3d_flags>  (58) 
0

>  <s_epik_input>  (58) 
W09IXVtDQF0xMltDQEBIXTNbQ0BdNChbQ0gzXSlbQ0BIXShDKE8xKShbQ0gzXSlbQ0gzXSlbQ0BASF0oW09IXSlbQ0BdNShbT0hdKVtDQEBdNihbT0hdKVtDQEBIXShbT0hdKVtDQEBIXShbQ0BASF0oQzM9TylbT0hdKU9bQ0BIXShDNihbQ0gzXSlbQ0gzXSlbQ0BASF0yW0NAXShbT0hdKShbQ0gyXTQpW0NAQEhdNVtPSF0=

>  <s_epik_cmdline>  (58) 
J2VwaWtfcHl0aG9uJywgJy1waHQnLCAnMi4wJywgJy1waCcsICc3LjAnLCAnLXRuJywgJzgnLCAnLW1hJywgJzIwMCcsICctaW1hZScsICc8aW5maWxlLm1hZT4nLCAnLW9tYWUnLCAnPG91dGZpbGUubWFlPic=

>  <r_lp_tautomer_probability>  (58) 
1

>  <r_epik_Ionization_Penalty>  (58) 
1.14305e-05

>  <r_epik_Ionization_Penalty_Charging>  (58) 
0

>  <r_epik_Ionization_Penalty_Neutral>  (58) 
1.14305e-05

>  <r_epik_State_Penalty>  (58) 
-0

>  <r_epik_Charging_Adjusted_Penalty>  (58) 
0

>  <i_epik_Tot_Q>  (58) 
0

>  <i_epik_Tot_abs_Q>  (58) 
0

>  <s_lp_Force_Field>  (58) 
OPLS3e

>  <r_lp_Energy>  (58) 
407.032

>  <b_lp_Chiralities_Consistent>  (58) 
1

>  <s_lp_Variant>  (58) 
18:0-1

>  <s_i_glide_gridfile>  (58) 
pfpi4k_grid

>  <i_i_glide_lignum>  (58) 
24

>  <i_i_glide_rotatable_bonds>  (58) 
8

>  <r_i_docking_score>  (58) 
-3.38687

>  <r_i_glide_ligand_efficiency>  (58) 
-0.0996138

>  <r_i_glide_ligand_efficiency_sa>  (58) 
-0.32271

>  <r_i_glide_ligand_efficiency_ln>  (58) 
-0.748255

>  <r_i_glide_gscore>  (58) 
-3.38687

>  <r_i_glide_lipo>  (58) 
-0.1839

>  <r_i_glide_hbond>  (58) 
0

>  <r_i_glide_metal>  (58) 
-0

>  <r_i_glide_rewards>  (58) 
-0.591981

>  <r_i_glide_evdw>  (58) 
-25.0575

>  <r_i_glide_ecoul>  (58) 
-8.79607

>  <r_i_glide_erotb>  (58) 
0

>  <r_i_glide_esite>  (58) 
-0.0387046

>  <r_i_glide_emodel>  (58) 
-47.1399

>  <r_i_glide_energy>  (58) 
-33.8535

>  <r_i_glide_einternal>  (58) 
3.5447

>  <r_i_glide_intrahb_reward>  (58) 
-0.5

>  <i_i_glide_confnum>  (58) 
1

>  <i_i_glide_posenum>  (58) 
24

>  <r_i_glide_eff_state_penalty>  (58) 
0

>  <ligand_id>  (58) 
18

>  <original_smiles>  (58) 
CC1(C)OC2(O)C3C(=O)C(O)C4OC5C2C2(O)CC3(C)C1C(O)C(O)(C2O)C(O)(C4O)C5(C)C

>  <smiles>  (58) 
[H]OC1([H])C(=O)C2([H])C3(O[H])OC(C([H])([H])[H])(C([H])([H])[H])C4([H])C([H])(O[H])C5(O[H])C([H])(O[H])C(O[H])(C([H])([H])C24C([H])([H])[H])C3([H])C2([H])OC1([H])C([H])(O[H])C5(O[H])C2(C([H])([H])[H])C([H])([H])[H]

$$$$
19:0:0
     RDKit          3D

 44 48  0  0  1  0  0  0  0  0999 V2000
    7.2791   -3.5004    1.1903 C   0  0  0  0  0  0  0  0  0  0  0  0
    6.0277   -3.4364    0.7433 C   0  0  0  0  0  0  0  0  0  0  0  0
    5.0330   -4.4495    1.1760 C   0  0  0  0  0  0  0  0  0  0  0  0
    5.3476   -5.5238    1.6906 O   0  0  0  0  0  0  0  0  0  0  0  0
    3.5934   -4.0316    0.8290 C   0  0  1  0  0  0  0  0  0  0  0  0
    3.9150   -4.1913   -0.8198 C   0  0  2  0  0  0  0  0  0  0  0  0
    5.1393   -3.4334   -1.4069 C   0  0  0  0  0  0  0  0  0  0  0  0
    5.6945   -3.5018   -2.5015 O   0  0  0  0  0  0  0  0  0  0  0  0
    5.5055   -2.4316   -0.3102 C   0  0  2  0  0  0  0  0  0  0  0  0
    6.4975   -1.5224   -0.7046 O   0  0  0  0  0  0  0  0  0  0  0  0
    4.1341   -1.7143    0.1067 C   0  0  1  0  0  0  0  0  0  0  0  0
    3.0370   -2.7730    0.0173 C   0  0  1  0  0  0  0  0  0  0  0  0
    2.6280   -3.5569   -1.2313 C   0  0  0  0  0  0  0  0  0  0  0  0
    2.4824   -2.7894   -2.5475 C   0  0  0  0  0  0  0  0  0  0  0  0
    1.3820   -4.4223   -1.1156 C   0  0  0  0  0  0  0  0  0  0  0  0
    3.8386   -1.5183    1.6141 C   0  0  2  0  0  0  0  0  0  0  0  0
    2.7927   -0.5368    1.7271 O   0  0  0  0  0  0  0  0  0  0  0  0
    5.0008   -1.1244    2.4907 C   0  0  0  0  0  0  0  0  0  0  0  0
    5.7898   -0.2219    2.1971 O   0  0  0  0  0  0  0  0  0  0  0  0
    5.1427   -2.0523    3.5937 C   0  0  0  0  0  0  0  0  0  0  0  0
    4.3227   -3.0731    3.4009 C   0  0  0  0  0  0  0  0  0  0  0  0
    4.1550   -4.1906    4.4143 C   0  0  0  0  0  0  0  0  0  0  0  0
    3.4306   -2.9732    2.1156 C   0  0  2  0  0  0  0  0  0  0  0  0
    2.0040   -3.0610    2.7463 C   0  0  0  0  0  0  0  0  0  0  0  0
    8.0182   -2.7793    0.8574 H   0  0  0  0  0  0  0  0  0  0  0  0
    7.5443   -4.2445    1.9312 H   0  0  0  0  0  0  0  0  0  0  0  0
    3.8989   -5.2244   -1.1290 H   0  0  0  0  0  0  0  0  0  0  0  0
    6.5694   -0.9202    0.0261 H   0  0  0  0  0  0  0  0  0  0  0  0
    3.9406   -0.8362   -0.5348 H   0  0  0  0  0  0  0  0  0  0  0  0
    2.0600   -2.3851    0.2880 H   0  0  0  0  0  0  0  0  0  0  0  0
    1.5008   -2.3131   -2.6472 H   0  0  0  0  0  0  0  0  0  0  0  0
    2.5911   -3.4507   -3.4171 H   0  0  0  0  0  0  0  0  0  0  0  0
    3.2041   -1.9836   -2.6339 H   0  0  0  0  0  0  0  0  0  0  0  0
    0.4867   -3.8040   -1.1808 H   0  0  0  0  0  0  0  0  0  0  0  0
    1.4037   -5.0409   -0.2341 H   0  0  0  0  0  0  0  0  0  0  0  0
    1.2332   -5.0804   -1.9744 H   0  0  0  0  0  0  0  0  0  0  0  0
    2.1179   -0.7022    1.0930 H   0  0  0  0  0  0  0  0  0  0  0  0
    5.7698   -1.9010    4.4512 H   0  0  0  0  0  0  0  0  0  0  0  0
    4.1356   -5.1801    3.9556 H   0  0  0  0  0  0  0  0  0  0  0  0
    3.2327   -4.0080    4.9627 H   0  0  0  0  0  0  0  0  0  0  0  0
    4.9843   -4.1353    5.1189 H   0  0  0  0  0  0  0  0  0  0  0  0
    1.1900   -2.7963    2.0947 H   0  0  0  0  0  0  0  0  0  0  0  0
    1.8770   -2.3925    3.6028 H   0  0  0  0  0  0  0  0  0  0  0  0
    1.8357   -4.0802    3.0787 H   0  0  0  0  0  0  0  0  0  0  0  0
  1  2  2  0
  1 25  1  0
  1 26  1  0
  2  9  1  0
  2  3  1  0
  3  4  2  0
  5  3  1  6
  5 12  1  0
  5 23  1  0
  5  6  1  0
  6 13  1  0
  6  7  1  0
  6 27  1  1
  7  8  2  0
  7  9  1  0
  9 10  1  6
  9 11  1  0
 10 28  1  0
 11 12  1  0
 11 16  1  0
 11 29  1  6
 12 13  1  0
 12 30  1  1
 13 14  1  0
 13 15  1  0
 14 31  1  0
 14 32  1  0
 14 33  1  0
 15 34  1  0
 15 35  1  0
 15 36  1  0
 16 23  1  0
 16 17  1  6
 16 18  1  0
 17 37  1  0
 18 19  2  0
 18 20  1  0
 20 21  2  0
 20 38  1  0
 21 22  1  0
 21 23  1  0
 22 39  1  0
 22 40  1  0
 22 41  1  0
 23 24  1  1
 24 42  1  0
 24 43  1  0
 24 44  1  0
M  END
>  <i_m_ct_stereo_status>  (59) 
1

>  <s_m_source_file>  (59) 
/var/tmp/pbs.5076255.sched01/tmp7me73ahx/0ll6f151o.sdf

>  <i_m_source_file_index>  (59) 
25

>  <i_lp_mmshare_version>  (59) 
48012

>  <i_f3d_flags>  (59) 
0

>  <s_epik_input>  (59) 
Tz1DMUMoPVtDSDJdKVtDQEBdKFtPSF0pKEMoPU8pW0NASF0yQzEzNClbQ0BASF0oW0NASF0zQzIoW0NIM10pW0NIM10pW0NAQF01KFtPSF0pW0NAXTQoW0NIM10pQyhbQ0gzXSk9W0NIXUM1PU8=

>  <s_epik_cmdline>  (59) 
J2VwaWtfcHl0aG9uJywgJy1waHQnLCAnMi4wJywgJy1waCcsICc3LjAnLCAnLXRuJywgJzgnLCAnLW1hJywgJzIwMCcsICctaW1hZScsICc8aW5maWxlLm1hZT4nLCAnLW9tYWUnLCAnPG91dGZpbGUubWFlPic=

>  <r_lp_tautomer_probability>  (59) 
1

>  <r_epik_Ionization_Penalty>  (59) 
2.8015e-05

>  <r_epik_Ionization_Penalty_Charging>  (59) 
0

>  <r_epik_Ionization_Penalty_Neutral>  (59) 
2.8015e-05

>  <r_epik_State_Penalty>  (59) 
-0

>  <r_epik_Charging_Adjusted_Penalty>  (59) 
0

>  <i_epik_Tot_Q>  (59) 
0

>  <i_epik_Tot_abs_Q>  (59) 
0

>  <s_lp_Force_Field>  (59) 
OPLS3e

>  <r_lp_Energy>  (59) 
203.004

>  <b_lp_Chiralities_Consistent>  (59) 
1

>  <s_lp_Variant>  (59) 
19:0-1

>  <s_i_glide_gridfile>  (59) 
pfpi4k_grid

>  <i_i_glide_lignum>  (59) 
25

>  <i_i_glide_rotatable_bonds>  (59) 
2

>  <r_i_docking_score>  (59) 
-3.94942

>  <r_i_glide_ligand_efficiency>  (59) 
-0.164559

>  <r_i_glide_ligand_efficiency_sa>  (59) 
-0.474671

>  <r_i_glide_ligand_efficiency_ln>  (59) 
-0.945278

>  <r_i_glide_gscore>  (59) 
-3.94942

>  <r_i_glide_lipo>  (59) 
-0.231472

>  <r_i_glide_hbond>  (59) 
-0.299007

>  <r_i_glide_metal>  (59) 
-0

>  <r_i_glide_rewards>  (59) 
-1.9602

>  <r_i_glide_evdw>  (59) 
-11.3481

>  <r_i_glide_ecoul>  (59) 
-5.94227

>  <r_i_glide_erotb>  (59) 
0

>  <r_i_glide_esite>  (59) 
0

>  <r_i_glide_emodel>  (59) 
-26.6575

>  <r_i_glide_energy>  (59) 
-17.2903

>  <r_i_glide_einternal>  (59) 
0.201268

>  <r_i_glide_intrahb_reward>  (59) 
-0.5

>  <i_i_glide_confnum>  (59) 
1

>  <i_i_glide_posenum>  (59) 
10

>  <r_i_glide_eff_state_penalty>  (59) 
0

>  <ligand_id>  (59) 
19

>  <original_smiles>  (59) 
C=C1C(=O)C23C4C(=O)C1(O)C(C2C4(C)C)C1(O)C(=O)C=C(C)C13C

>  <smiles>  (59) 
[H]OC12C(=O)C3([H])C4(C(=O)C1=C([H])[H])C([H])(C2([H])C1(O[H])C(=O)C([H])=C(C([H])([H])[H])C14C([H])([H])[H])C3(C([H])([H])[H])C([H])([H])[H]

$$$$
19:0:1
     RDKit          3D

 44 48  0  0  1  0  0  0  0  0999 V2000
    7.3490   -4.1243    1.2531 C   0  0  0  0  0  0  0  0  0  0  0  0
    6.2699   -3.7281    0.5798 C   0  0  0  0  0  0  0  0  0  0  0  0
    5.0433   -4.5678    0.5405 C   0  0  0  0  0  0  0  0  0  0  0  0
    5.0552   -5.7744    0.8094 O   0  0  0  0  0  0  0  0  0  0  0  0
    3.8138   -3.7766    0.0689 C   0  0  1  0  0  0  0  0  0  0  0  0
    4.4419   -3.6495   -1.4873 C   0  0  2  0  0  0  0  0  0  0  0  0
    5.8666   -3.0803   -1.6219 C   0  0  0  0  0  0  0  0  0  0  0  0
    6.6299   -3.0666   -2.5880 O   0  0  0  0  0  0  0  0  0  0  0  0
    6.1568   -2.4473   -0.2770 C   0  0  2  0  0  0  0  0  0  0  0  0
    7.3672   -1.7263   -0.2771 O   0  0  0  0  0  0  0  0  0  0  0  0
    4.8769   -1.5491    0.0618 C   0  0  1  0  0  0  0  0  0  0  0  0
    3.6683   -2.2967   -0.5042 C   0  0  1  0  0  0  0  0  0  0  0  0
    3.4083   -2.6847   -1.9495 C   0  0  0  0  0  0  0  0  0  0  0  0
    3.7023   -1.6146   -3.0141 C   0  0  0  0  0  0  0  0  0  0  0  0
    2.0643   -3.3292   -2.3155 C   0  0  0  0  0  0  0  0  0  0  0  0
    4.2904   -1.6134    1.4910 C   0  0  2  0  0  0  0  0  0  0  0  0
    3.4107   -0.5152    1.7065 O   0  0  0  0  0  0  0  0  0  0  0  0
    5.2693   -1.6380    2.6423 C   0  0  0  0  0  0  0  0  0  0  0  0
    6.1292   -0.7639    2.7989 O   0  0  0  0  0  0  0  0  0  0  0  0
    5.0047   -2.8005    3.4760 C   0  0  0  0  0  0  0  0  0  0  0  0
    4.1010   -3.5810    2.8645 C   0  0  0  0  0  0  0  0  0  0  0  0
    3.5235   -4.8207    3.5364 C   0  0  0  0  0  0  0  0  0  0  0  0
    3.5436   -3.0142    1.5149 C   0  0  2  0  0  0  0  0  0  0  0  0
    2.0174   -2.9539    1.7907 C   0  0  0  0  0  0  0  0  0  0  0  0
    8.2505   -3.5261    1.2800 H   0  0  0  0  0  0  0  0  0  0  0  0
    7.3311   -5.0349    1.8454 H   0  0  0  0  0  0  0  0  0  0  0  0
    4.3388   -4.5800   -2.0214 H   0  0  0  0  0  0  0  0  0  0  0  0
    7.4753   -1.3420    0.5852 H   0  0  0  0  0  0  0  0  0  0  0  0
    4.9630   -0.5328   -0.3239 H   0  0  0  0  0  0  0  0  0  0  0  0
    2.7461   -1.7640   -0.3387 H   0  0  0  0  0  0  0  0  0  0  0  0
    2.8669   -0.9217   -3.1349 H   0  0  0  0  0  0  0  0  0  0  0  0
    3.9158   -2.0535   -3.9905 H   0  0  0  0  0  0  0  0  0  0  0  0
    4.5585   -0.9940   -2.7509 H   0  0  0  0  0  0  0  0  0  0  0  0
    1.2629   -2.6037   -2.3317 H   0  0  0  0  0  0  0  0  0  0  0  0
    1.7600   -4.0970   -1.6116 H   0  0  0  0  0  0  0  0  0  0  0  0
    2.0943   -3.7822   -3.3081 H   0  0  0  0  0  0  0  0  0  0  0  0
    2.7424   -0.5039    1.0366 H   0  0  0  0  0  0  0  0  0  0  0  0
    5.4609   -2.9697    4.4442 H   0  0  0  0  0  0  0  0  0  0  0  0
    3.4539   -5.6572    2.8443 H   0  0  0  0  0  0  0  0  0  0  0  0
    2.5270   -4.6195    3.9390 H   0  0  0  0  0  0  0  0  0  0  0  0
    4.1524   -5.1247    4.3770 H   0  0  0  0  0  0  0  0  0  0  0  0
    1.4421   -2.4639    1.0165 H   0  0  0  0  0  0  0  0  0  0  0  0
    1.7702   -2.4511    2.7228 H   0  0  0  0  0  0  0  0  0  0  0  0
    1.6519   -3.9739    1.8648 H   0  0  0  0  0  0  0  0  0  0  0  0
  1  2  2  0
  1 25  1  0
  1 26  1  0
  2  9  1  0
  2  3  1  0
  3  4  2  0
  5  3  1  1
  5 12  1  0
  5 23  1  0
  5  6  1  0
  6 13  1  0
  6  7  1  0
  6 27  1  6
  7  8  2  0
  7  9  1  0
  9 10  1  6
  9 11  1  0
 10 28  1  0
 11 12  1  0
 11 16  1  0
 11 29  1  6
 12 13  1  0
 12 30  1  1
 13 14  1  0
 13 15  1  0
 14 31  1  0
 14 32  1  0
 14 33  1  0
 15 34  1  0
 15 35  1  0
 15 36  1  0
 16 23  1  0
 16 17  1  1
 16 18  1  0
 17 37  1  0
 18 19  2  0
 18 20  1  0
 20 21  2  0
 20 38  1  0
 21 22  1  0
 21 23  1  0
 22 39  1  0
 22 40  1  0
 22 41  1  0
 23 24  1  1
 24 42  1  0
 24 43  1  0
 24 44  1  0
M  END
>  <i_m_ct_stereo_status>  (60) 
1

>  <s_m_source_file>  (60) 
/var/tmp/pbs.5076255.sched01/tmp7me73ahx/0ll6f151o.sdf

>  <i_m_source_file_index>  (60) 
25

>  <i_lp_mmshare_version>  (60) 
48012

>  <i_f3d_flags>  (60) 
0

>  <s_epik_input>  (60) 
Tz1DMUMoPVtDSDJdKVtDQEBdKFtPSF0pKEMoPU8pW0NASF0yQzEzNClbQ0BASF0oW0NASF0zQzIoW0NIM10pW0NIM10pW0NAQF01KFtPSF0pW0NAXTQoW0NIM10pQyhbQ0gzXSk9W0NIXUM1PU8=

>  <s_epik_cmdline>  (60) 
J2VwaWtfcHl0aG9uJywgJy1waHQnLCAnMi4wJywgJy1waCcsICc3LjAnLCAnLXRuJywgJzgnLCAnLW1hJywgJzIwMCcsICctaW1hZScsICc8aW5maWxlLm1hZT4nLCAnLW9tYWUnLCAnPG91dGZpbGUubWFlPic=

>  <r_lp_tautomer_probability>  (60) 
1

>  <r_epik_Ionization_Penalty>  (60) 
2.8015e-05

>  <r_epik_Ionization_Penalty_Charging>  (60) 
0

>  <r_epik_Ionization_Penalty_Neutral>  (60) 
2.8015e-05

>  <r_epik_State_Penalty>  (60) 
-0

>  <r_epik_Charging_Adjusted_Penalty>  (60) 
0

>  <i_epik_Tot_Q>  (60) 
0

>  <i_epik_Tot_abs_Q>  (60) 
0

>  <s_lp_Force_Field>  (60) 
OPLS3e

>  <r_lp_Energy>  (60) 
203.004

>  <b_lp_Chiralities_Consistent>  (60) 
1

>  <s_lp_Variant>  (60) 
19:0-1

>  <s_i_glide_gridfile>  (60) 
pfpi4k_grid

>  <i_i_glide_lignum>  (60) 
25

>  <i_i_glide_rotatable_bonds>  (60) 
2

>  <r_i_docking_score>  (60) 
-3.57608

>  <r_i_glide_ligand_efficiency>  (60) 
-0.149003

>  <r_i_glide_ligand_efficiency_sa>  (60) 
-0.4298

>  <r_i_glide_ligand_efficiency_ln>  (60) 
-0.855921

>  <r_i_glide_gscore>  (60) 
-3.57608

>  <r_i_glide_lipo>  (60) 
-0.497175

>  <r_i_glide_hbond>  (60) 
0

>  <r_i_glide_metal>  (60) 
-0

>  <r_i_glide_rewards>  (60) 
-1.4703

>  <r_i_glide_evdw>  (60) 
-18.3308

>  <r_i_glide_ecoul>  (60) 
-4.61378

>  <r_i_glide_erotb>  (60) 
0

>  <r_i_glide_esite>  (60) 
0

>  <r_i_glide_emodel>  (60) 
-27.0125

>  <r_i_glide_energy>  (60) 
-22.9446

>  <r_i_glide_einternal>  (60) 
0.0221537

>  <r_i_glide_intrahb_reward>  (60) 
-0

>  <i_i_glide_confnum>  (60) 
2

>  <i_i_glide_posenum>  (60) 
40

>  <r_i_glide_eff_state_penalty>  (60) 
0

>  <ligand_id>  (60) 
19

>  <original_smiles>  (60) 
C=C1C(=O)C23C4C(=O)C1(O)C(C2C4(C)C)C1(O)C(=O)C=C(C)C13C

>  <smiles>  (60) 
[H]OC12C(=O)C3([H])C4(C(=O)C1=C([H])[H])C([H])(C2([H])C1(O[H])C(=O)C([H])=C(C([H])([H])[H])C14C([H])([H])[H])C3(C([H])([H])[H])C([H])([H])[H]

$$$$
19:0:2
     RDKit          3D

 44 48  0  0  1  0  0  0  0  0999 V2000
    7.3802   -4.1034    1.2387 C   0  0  0  0  0  0  0  0  0  0  0  0
    6.2729   -3.7309    0.5897 C   0  0  0  0  0  0  0  0  0  0  0  0
    5.0628   -4.6011    0.5827 C   0  0  0  0  0  0  0  0  0  0  0  0
    5.1095   -5.8067    0.8469 O   0  0  0  0  0  0  0  0  0  0  0  0
    3.7994   -3.8363    0.1517 C   0  0  1  0  0  0  0  0  0  0  0  0
    4.3733   -3.6893   -1.4227 C   0  0  2  0  0  0  0  0  0  0  0  0
    5.7938   -3.0819   -1.6099 C   0  0  0  0  0  0  0  0  0  0  0  0
    6.5458   -3.0572   -2.5769 O   0  0  0  0  0  0  0  0  0  0  0  0
    6.1003   -2.4472   -0.2547 C   0  0  2  0  0  0  0  0  0  0  0  0
    7.2900   -1.6909   -0.2732 O   0  0  0  0  0  0  0  0  0  0  0  0
    4.8092   -1.5836    0.1155 C   0  0  1  0  0  0  0  0  0  0  0  0
    3.5986   -2.3569   -0.4123 C   0  0  1  0  0  0  0  0  0  0  0  0
    3.2977   -2.7507   -1.8470 C   0  0  0  0  0  0  0  0  0  0  0  0
    3.5277   -1.6780   -2.9243 C   0  0  0  0  0  0  0  0  0  0  0  0
    1.9480   -3.4096   -2.1630 C   0  0  0  0  0  0  0  0  0  0  0  0
    4.2779   -1.6579    1.5603 C   0  0  2  0  0  0  0  0  0  0  0  0
    3.3815   -0.5778    1.7988 O   0  0  0  0  0  0  0  0  0  0  0  0
    5.2954   -1.6566    2.6764 C   0  0  0  0  0  0  0  0  0  0  0  0
    6.1300   -0.7541    2.8203 O   0  0  0  0  0  0  0  0  0  0  0  0
    5.0893   -2.8264    3.5153 C   0  0  0  0  0  0  0  0  0  0  0  0
    4.1788   -3.6285    2.9362 C   0  0  0  0  0  0  0  0  0  0  0  0
    3.6578   -4.8802    3.6296 C   0  0  0  0  0  0  0  0  0  0  0  0
    3.5628   -3.0788    1.6074 C   0  0  2  0  0  0  0  0  0  0  0  0
    2.0443   -3.0498    1.9383 C   0  0  0  0  0  0  0  0  0  0  0  0
    8.2661   -3.4831    1.2496 H   0  0  0  0  0  0  0  0  0  0  0  0
    7.4030   -5.0191    1.8234 H   0  0  0  0  0  0  0  0  0  0  0  0
    4.2673   -4.6181   -1.9635 H   0  0  0  0  0  0  0  0  0  0  0  0
    8.0135   -2.3007   -0.3412 H   0  0  0  0  0  0  0  0  0  0  0  0
    4.8695   -0.5694   -0.2821 H   0  0  0  0  0  0  0  0  0  0  0  0
    2.6681   -1.8437   -0.2126 H   0  0  0  0  0  0  0  0  0  0  0  0
    2.6711   -1.0051   -3.0143 H   0  0  0  0  0  0  0  0  0  0  0  0
    3.7097   -2.1176   -3.9074 H   0  0  0  0  0  0  0  0  0  0  0  0
    4.3799   -1.0390   -2.6950 H   0  0  0  0  0  0  0  0  0  0  0  0
    1.1363   -2.6882   -2.1713 H   0  0  0  0  0  0  0  0  0  0  0  0
    1.6845   -4.1912   -1.4553 H   0  0  0  0  0  0  0  0  0  0  0  0
    1.9510   -3.8539   -3.1569 H   0  0  0  0  0  0  0  0  0  0  0  0
    2.7186   -0.5587    1.1259 H   0  0  0  0  0  0  0  0  0  0  0  0
    5.5794   -2.9850    4.4653 H   0  0  0  0  0  0  0  0  0  0  0  0
    3.5814   -5.7208    2.9421 H   0  0  0  0  0  0  0  0  0  0  0  0
    2.6735   -4.6993    4.0687 H   0  0  0  0  0  0  0  0  0  0  0  0
    4.3247   -5.1679    4.4462 H   0  0  0  0  0  0  0  0  0  0  0  0
    1.4267   -2.5686    1.1909 H   0  0  0  0  0  0  0  0  0  0  0  0
    1.8257   -2.5504    2.8818 H   0  0  0  0  0  0  0  0  0  0  0  0
    1.6884   -4.0737    2.0249 H   0  0  0  0  0  0  0  0  0  0  0  0
  1  2  2  0
  1 25  1  0
  1 26  1  0
  2  9  1  0
  2  3  1  0
  3  4  2  0
  5  3  1  1
  5 12  1  0
  5 23  1  0
  5  6  1  0
  6 13  1  0
  6  7  1  0
  6 27  1  6
  7  8  2  0
  7  9  1  0
  9 10  1  6
  9 11  1  0
 10 28  1  0
 11 12  1  0
 11 16  1  0
 11 29  1  6
 12 13  1  0
 12 30  1  1
 13 14  1  0
 13 15  1  0
 14 31  1  0
 14 32  1  0
 14 33  1  0
 15 34  1  0
 15 35  1  0
 15 36  1  0
 16 23  1  0
 16 17  1  1
 16 18  1  0
 17 37  1  0
 18 19  2  0
 18 20  1  0
 20 21  2  0
 20 38  1  0
 21 22  1  0
 21 23  1  0
 22 39  1  0
 22 40  1  0
 22 41  1  0
 23 24  1  1
 24 42  1  0
 24 43  1  0
 24 44  1  0
M  END
>  <i_m_ct_stereo_status>  (61) 
1

>  <s_m_source_file>  (61) 
/var/tmp/pbs.5076255.sched01/tmp7me73ahx/0ll6f151o.sdf

>  <i_m_source_file_index>  (61) 
25

>  <i_lp_mmshare_version>  (61) 
48012

>  <i_f3d_flags>  (61) 
0

>  <s_epik_input>  (61) 
Tz1DMUMoPVtDSDJdKVtDQEBdKFtPSF0pKEMoPU8pW0NASF0yQzEzNClbQ0BASF0oW0NASF0zQzIoW0NIM10pW0NIM10pW0NAQF01KFtPSF0pW0NAXTQoW0NIM10pQyhbQ0gzXSk9W0NIXUM1PU8=

>  <s_epik_cmdline>  (61) 
J2VwaWtfcHl0aG9uJywgJy1waHQnLCAnMi4wJywgJy1waCcsICc3LjAnLCAnLXRuJywgJzgnLCAnLW1hJywgJzIwMCcsICctaW1hZScsICc8aW5maWxlLm1hZT4nLCAnLW9tYWUnLCAnPG91dGZpbGUubWFlPic=

>  <r_lp_tautomer_probability>  (61) 
1

>  <r_epik_Ionization_Penalty>  (61) 
2.8015e-05

>  <r_epik_Ionization_Penalty_Charging>  (61) 
0

>  <r_epik_Ionization_Penalty_Neutral>  (61) 
2.8015e-05

>  <r_epik_State_Penalty>  (61) 
-0

>  <r_epik_Charging_Adjusted_Penalty>  (61) 
0

>  <i_epik_Tot_Q>  (61) 
0

>  <i_epik_Tot_abs_Q>  (61) 
0

>  <s_lp_Force_Field>  (61) 
OPLS3e

>  <r_lp_Energy>  (61) 
203.004

>  <b_lp_Chiralities_Consistent>  (61) 
1

>  <s_lp_Variant>  (61) 
19:0-1

>  <s_i_glide_gridfile>  (61) 
pfpi4k_grid

>  <i_i_glide_lignum>  (61) 
25

>  <i_i_glide_rotatable_bonds>  (61) 
2

>  <r_i_docking_score>  (61) 
-3.36027

>  <r_i_glide_ligand_efficiency>  (61) 
-0.140011

>  <r_i_glide_ligand_efficiency_sa>  (61) 
-0.403863

>  <r_i_glide_ligand_efficiency_ln>  (61) 
-0.804268

>  <r_i_glide_gscore>  (61) 
-3.36027

>  <r_i_glide_lipo>  (61) 
-0.415587

>  <r_i_glide_hbond>  (61) 
0

>  <r_i_glide_metal>  (61) 
-0

>  <r_i_glide_rewards>  (61) 
-1.46483

>  <r_i_glide_evdw>  (61) 
-18.146

>  <r_i_glide_ecoul>  (61) 
-3.81701

>  <r_i_glide_erotb>  (61) 
0

>  <r_i_glide_esite>  (61) 
0

>  <r_i_glide_emodel>  (61) 
-24.8326

>  <r_i_glide_energy>  (61) 
-21.963

>  <r_i_glide_einternal>  (61) 
1.94209

>  <r_i_glide_intrahb_reward>  (61) 
-0

>  <i_i_glide_confnum>  (61) 
2

>  <i_i_glide_posenum>  (61) 
14

>  <r_i_glide_eff_state_penalty>  (61) 
0

>  <ligand_id>  (61) 
19

>  <original_smiles>  (61) 
C=C1C(=O)C23C4C(=O)C1(O)C(C2C4(C)C)C1(O)C(=O)C=C(C)C13C

>  <smiles>  (61) 
[H]OC12C(=O)C3([H])C4(C(=O)C1=C([H])[H])C([H])(C2([H])C1(O[H])C(=O)C([H])=C(C([H])([H])[H])C14C([H])([H])[H])C3(C([H])([H])[H])C([H])([H])[H]

$$$$
20:0:0
     RDKit          3D

 30 32  0  0  1  0  0  0  0  0999 V2000
    4.1394   -3.0877   -2.7007 C   0  0  0  0  0  0  0  0  0  0  0  0
    4.1930   -2.7336   -1.2081 C   0  0  2  0  0  0  0  0  0  0  0  0
    5.2215   -1.6291   -0.9304 C   0  0  0  0  0  0  0  0  0  0  0  0
    6.3556   -2.3521   -0.2283 C   0  0  0  0  0  0  0  0  0  0  0  0
    7.4248   -1.8066    0.0277 O   0  0  0  0  0  0  0  0  0  0  0  0
    6.0121   -3.6130    0.0604 N   0  0  0  0  0  0  0  0  0  0  0  0
    6.8262   -4.5869    0.7848 C   0  0  0  0  0  0  0  0  0  0  0  0
    4.6425   -3.9347   -0.3362 C   0  0  1  0  0  0  0  0  0  0  0  0
    3.7236   -4.1376    0.8738 C   0  0  0  0  0  0  0  0  0  0  0  0
    3.7798   -3.2420    1.9601 C   0  0  0  0  0  0  0  0  0  0  0  0
    2.9645   -3.4169    3.0881 C   0  0  0  0  0  0  0  0  0  0  0  0
    2.0809   -4.4872    3.1309 C   0  0  0  0  0  0  0  0  0  0  0  0
    1.2108   -4.8470    4.0770 N   0  0  0  0  0  0  0  0  0  0  0  0
    0.6003   -5.9946    3.5530 O   0  0  0  0  0  0  0  0  0  0  0  0
    1.0726   -6.3167    2.2742 N   0  0  0  0  0  0  0  0  0  0  0  0
    2.0072   -5.3969    2.0275 C   0  0  0  0  0  0  0  0  0  0  0  0
    2.8193   -5.2210    0.9116 C   0  0  0  0  0  0  0  0  0  0  0  0
    5.1005   -3.4629   -3.0504 H   0  0  0  0  0  0  0  0  0  0  0  0
    3.8857   -2.2142   -3.3001 H   0  0  0  0  0  0  0  0  0  0  0  0
    3.3894   -3.8529   -2.8982 H   0  0  0  0  0  0  0  0  0  0  0  0
    3.2015   -2.3905   -0.9072 H   0  0  0  0  0  0  0  0  0  0  0  0
    5.5858   -1.1473   -1.8398 H   0  0  0  0  0  0  0  0  0  0  0  0
    4.8124   -0.8558   -0.2737 H   0  0  0  0  0  0  0  0  0  0  0  0
    7.6228   -4.1011    1.3463 H   0  0  0  0  0  0  0  0  0  0  0  0
    7.2785   -5.3020    0.0982 H   0  0  0  0  0  0  0  0  0  0  0  0
    6.2270   -5.1494    1.5028 H   0  0  0  0  0  0  0  0  0  0  0  0
    4.6583   -4.8548   -0.9240 H   0  0  0  0  0  0  0  0  0  0  0  0
    4.4599   -2.3976    1.9392 H   0  0  0  0  0  0  0  0  0  0  0  0
    3.0302   -2.7161    3.9059 H   0  0  0  0  0  0  0  0  0  0  0  0
    2.7616   -5.9071    0.0811 H   0  0  0  0  0  0  0  0  0  0  0  0
  1  2  1  0
  1 18  1  0
  1 19  1  0
  1 20  1  0
  2  8  1  0
  2  3  1  0
  2 21  1  1
  3  4  1  0
  3 22  1  0
  3 23  1  0
  4  5  2  0
  4  6  1  0
  6  7  1  0
  6  8  1  0
  7 24  1  0
  7 25  1  0
  7 26  1  0
  8  9  1  0
  8 27  1  6
  9 17  2  0
  9 10  1  0
 10 11  2  0
 10 28  1  0
 11 12  1  0
 11 29  1  0
 12 16  1  0
 12 13  2  0
 13 14  1  0
 14 15  1  0
 15 16  2  0
 16 17  1  0
 17 30  1  0
M  END
>  <i_m_ct_stereo_status>  (62) 
1

>  <s_m_source_file>  (62) 
/var/tmp/pbs.5076255.sched01/tmp7me73ahx/0ll6f151o.sdf

>  <i_m_source_file_index>  (62) 
26

>  <i_lp_mmshare_version>  (62) 
48012

>  <i_f3d_flags>  (62) 
0

>  <s_epik_input>  (62) 
W0NIM11bQ0BASF0xW0NIMl1DKD1PKU4oW0NIM10pW0NASF0xYyhbY0hdW2NIXTIpW2NIXWMoYzIzKW5vbjM=

>  <s_epik_cmdline>  (62) 
J2VwaWtfcHl0aG9uJywgJy1waHQnLCAnMi4wJywgJy1waCcsICc3LjAnLCAnLXRuJywgJzgnLCAnLW1hJywgJzIwMCcsICctaW1hZScsICc8aW5maWxlLm1hZT4nLCAnLW9tYWUnLCAnPG91dGZpbGUubWFlPic=

>  <r_lp_tautomer_probability>  (62) 
1

>  <r_epik_Ionization_Penalty>  (62) 
8.38844e-09

>  <r_epik_Ionization_Penalty_Charging>  (62) 
0

>  <r_epik_Ionization_Penalty_Neutral>  (62) 
8.38844e-09

>  <r_epik_State_Penalty>  (62) 
-0

>  <r_epik_Charging_Adjusted_Penalty>  (62) 
0

>  <i_epik_Tot_Q>  (62) 
0

>  <i_epik_Tot_abs_Q>  (62) 
0

>  <s_lp_Force_Field>  (62) 
OPLS3e

>  <r_lp_Energy>  (62) 
6.77625

>  <b_lp_Chiralities_Consistent>  (62) 
1

>  <s_lp_Variant>  (62) 
20:0-1

>  <s_i_glide_gridfile>  (62) 
pfpi4k_grid

>  <i_i_glide_lignum>  (62) 
26

>  <i_i_glide_rotatable_bonds>  (62) 
1

>  <r_i_docking_score>  (62) 
-3.24066

>  <r_i_glide_ligand_efficiency>  (62) 
-0.190627

>  <r_i_glide_ligand_efficiency_sa>  (62) 
-0.490156

>  <r_i_glide_ligand_efficiency_ln>  (62) 
-0.845416

>  <r_i_glide_gscore>  (62) 
-3.24066

>  <r_i_glide_lipo>  (62) 
-0.146191

>  <r_i_glide_hbond>  (62) 
-0.103195

>  <r_i_glide_metal>  (62) 
-0

>  <r_i_glide_rewards>  (62) 
-1.93039

>  <r_i_glide_evdw>  (62) 
-18.2986

>  <r_i_glide_ecoul>  (62) 
-2.36489

>  <r_i_glide_erotb>  (62) 
0.319836

>  <r_i_glide_esite>  (62) 
-0.111054

>  <r_i_glide_emodel>  (62) 
-25.1938

>  <r_i_glide_energy>  (62) 
-20.6635

>  <r_i_glide_einternal>  (62) 
0.206662

>  <r_i_glide_intrahb_reward>  (62) 
-0

>  <i_i_glide_confnum>  (62) 
4

>  <i_i_glide_posenum>  (62) 
21

>  <r_i_glide_eff_state_penalty>  (62) 
0

>  <ligand_id>  (62) 
20

>  <original_smiles>  (62) 
CC1CC(=O)N(C)C1c1ccc2nonc2c1

>  <smiles>  (62) 
[H]c1c(C2([H])N(C([H])([H])[H])C(=O)C([H])([H])C2([H])C([H])([H])[H])c([H])c2nonc2c1[H]

$$$$
20:0:1
     RDKit          3D

 30 32  0  0  1  0  0  0  0  0999 V2000
    3.1996   -2.9326   -2.7887 C   0  0  0  0  0  0  0  0  0  0  0  0
    3.2627   -2.6657   -1.2808 C   0  0  2  0  0  0  0  0  0  0  0  0
    3.9897   -1.3425   -0.9849 C   0  0  0  0  0  0  0  0  0  0  0  0
    5.3166   -1.7891   -0.3995 C   0  0  0  0  0  0  0  0  0  0  0  0
    6.2220   -1.0049   -0.1402 O   0  0  0  0  0  0  0  0  0  0  0  0
    5.3389   -3.1097   -0.1997 N   0  0  0  0  0  0  0  0  0  0  0  0
    6.4218   -3.8708    0.4242 C   0  0  0  0  0  0  0  0  0  0  0  0
    4.0664   -3.7507   -0.5199 C   0  0  1  0  0  0  0  0  0  0  0  0
    3.3226   -4.2365    0.7317 C   0  0  0  0  0  0  0  0  0  0  0  0
    3.4863   -3.5802    1.9717 C   0  0  0  0  0  0  0  0  0  0  0  0
    2.8243   -4.0300    3.1245 C   0  0  0  0  0  0  0  0  0  0  0  0
    1.9680   -5.1201    3.0429 C   0  0  0  0  0  0  0  0  0  0  0  0
    1.2153   -5.7012    3.9812 N   0  0  0  0  0  0  0  0  0  0  0  0
    0.5504   -6.7244    3.2962 O   0  0  0  0  0  0  0  0  0  0  0  0
    0.8904   -6.7682    1.9379 N   0  0  0  0  0  0  0  0  0  0  0  0
    1.7821   -5.7840    1.7893 C   0  0  0  0  0  0  0  0  0  0  0  0
    2.4469   -5.3443    0.6514 C   0  0  0  0  0  0  0  0  0  0  0  0
    4.1966   -3.0230   -3.2161 H   0  0  0  0  0  0  0  0  0  0  0  0
    2.6804   -2.1302   -3.3096 H   0  0  0  0  0  0  0  0  0  0  0  0
    2.6553   -3.8539   -3.0054 H   0  0  0  0  0  0  0  0  0  0  0  0
    2.2401   -2.6479   -0.9033 H   0  0  0  0  0  0  0  0  0  0  0  0
    4.1572   -0.7275   -1.8701 H   0  0  0  0  0  0  0  0  0  0  0  0
    3.4495   -0.7406   -0.2524 H   0  0  0  0  0  0  0  0  0  0  0  0
    7.0919   -3.2206    0.9844 H   0  0  0  0  0  0  0  0  0  0  0  0
    7.0090   -4.4152   -0.3161 H   0  0  0  0  0  0  0  0  0  0  0  0
    6.0293   -4.6005    1.1338 H   0  0  0  0  0  0  0  0  0  0  0  0
    4.2543   -4.6165   -1.1608 H   0  0  0  0  0  0  0  0  0  0  0  0
    4.1280   -2.7142    2.0664 H   0  0  0  0  0  0  0  0  0  0  0  0
    2.9759   -3.5106    4.0608 H   0  0  0  0  0  0  0  0  0  0  0  0
    2.2884   -5.8359   -0.2963 H   0  0  0  0  0  0  0  0  0  0  0  0
  1  2  1  0
  1 18  1  0
  1 19  1  0
  1 20  1  0
  2  8  1  0
  2  3  1  0
  2 21  1  1
  3  4  1  0
  3 22  1  0
  3 23  1  0
  4  5  2  0
  4  6  1  0
  6  7  1  0
  6  8  1  0
  7 24  1  0
  7 25  1  0
  7 26  1  0
  8  9  1  0
  8 27  1  6
  9 17  2  0
  9 10  1  0
 10 11  2  0
 10 28  1  0
 11 12  1  0
 11 29  1  0
 12 16  1  0
 12 13  2  0
 13 14  1  0
 14 15  1  0
 15 16  2  0
 16 17  1  0
 17 30  1  0
M  END
>  <i_m_ct_stereo_status>  (63) 
1

>  <s_m_source_file>  (63) 
/var/tmp/pbs.5076255.sched01/tmp7me73ahx/0ll6f151o.sdf

>  <i_m_source_file_index>  (63) 
26

>  <i_lp_mmshare_version>  (63) 
48012

>  <i_f3d_flags>  (63) 
0

>  <s_epik_input>  (63) 
W0NIM11bQ0BASF0xW0NIMl1DKD1PKU4oW0NIM10pW0NASF0xYyhbY0hdW2NIXTIpW2NIXWMoYzIzKW5vbjM=

>  <s_epik_cmdline>  (63) 
J2VwaWtfcHl0aG9uJywgJy1waHQnLCAnMi4wJywgJy1waCcsICc3LjAnLCAnLXRuJywgJzgnLCAnLW1hJywgJzIwMCcsICctaW1hZScsICc8aW5maWxlLm1hZT4nLCAnLW9tYWUnLCAnPG91dGZpbGUubWFlPic=

>  <r_lp_tautomer_probability>  (63) 
1

>  <r_epik_Ionization_Penalty>  (63) 
8.38844e-09

>  <r_epik_Ionization_Penalty_Charging>  (63) 
0

>  <r_epik_Ionization_Penalty_Neutral>  (63) 
8.38844e-09

>  <r_epik_State_Penalty>  (63) 
-0

>  <r_epik_Charging_Adjusted_Penalty>  (63) 
0

>  <i_epik_Tot_Q>  (63) 
0

>  <i_epik_Tot_abs_Q>  (63) 
0

>  <s_lp_Force_Field>  (63) 
OPLS3e

>  <r_lp_Energy>  (63) 
6.77625

>  <b_lp_Chiralities_Consistent>  (63) 
1

>  <s_lp_Variant>  (63) 
20:0-1

>  <s_i_glide_gridfile>  (63) 
pfpi4k_grid

>  <i_i_glide_lignum>  (63) 
26

>  <i_i_glide_rotatable_bonds>  (63) 
1

>  <r_i_docking_score>  (63) 
-3.10276

>  <r_i_glide_ligand_efficiency>  (63) 
-0.182515

>  <r_i_glide_ligand_efficiency_sa>  (63) 
-0.469298

>  <r_i_glide_ligand_efficiency_ln>  (63) 
-0.809441

>  <r_i_glide_gscore>  (63) 
-3.10276

>  <r_i_glide_lipo>  (63) 
-0.104519

>  <r_i_glide_hbond>  (63) 
-0.0394756

>  <r_i_glide_metal>  (63) 
-0

>  <r_i_glide_rewards>  (63) 
-1.88136

>  <r_i_glide_evdw>  (63) 
-18.3899

>  <r_i_glide_ecoul>  (63) 
-2.25066

>  <r_i_glide_erotb>  (63) 
0.319836

>  <r_i_glide_esite>  (63) 
-0.140151

>  <r_i_glide_emodel>  (63) 
-24.5173

>  <r_i_glide_energy>  (63) 
-20.6405

>  <r_i_glide_einternal>  (63) 
0.837417

>  <r_i_glide_intrahb_reward>  (63) 
-0

>  <i_i_glide_confnum>  (63) 
2

>  <i_i_glide_posenum>  (63) 
24

>  <r_i_glide_eff_state_penalty>  (63) 
0

>  <ligand_id>  (63) 
20

>  <original_smiles>  (63) 
CC1CC(=O)N(C)C1c1ccc2nonc2c1

>  <smiles>  (63) 
[H]c1c(C2([H])N(C([H])([H])[H])C(=O)C([H])([H])C2([H])C([H])([H])[H])c([H])c2nonc2c1[H]

$$$$
20:0:2
     RDKit          3D

 30 32  0  0  1  0  0  0  0  0999 V2000
   -3.1341    3.1832    2.7371 C   0  0  0  0  0  0  0  0  0  0  0  0
   -2.1862    2.5242    3.7479 C   0  0  2  0  0  0  0  0  0  0  0  0
   -2.0512    3.3416    5.0368 C   0  0  0  0  0  0  0  0  0  0  0  0
   -0.6504    3.9095    4.9653 C   0  0  0  0  0  0  0  0  0  0  0  0
   -0.2514    4.7624    5.7553 O   0  0  0  0  0  0  0  0  0  0  0  0
    0.0339    3.3713    3.9512 N   0  0  0  0  0  0  0  0  0  0  0  0
    1.4099    3.6885    3.5733 C   0  0  0  0  0  0  0  0  0  0  0  0
   -0.7424    2.3914    3.2001 C   0  0  1  0  0  0  0  0  0  0  0  0
   -0.1669    0.9880    3.3650 C   0  0  0  0  0  0  0  0  0  0  0  0
    0.6176    0.4313    2.3356 C   0  0  0  0  0  0  0  0  0  0  0  0
    1.1984   -0.8443    2.4895 C   0  0  0  0  0  0  0  0  0  0  0  0
    0.9746   -1.5653    3.6570 C   0  0  0  0  0  0  0  0  0  0  0  0
    1.3841   -2.7844    4.0237 N   0  0  0  0  0  0  0  0  0  0  0  0
    0.8276   -2.9653    5.2977 O   0  0  0  0  0  0  0  0  0  0  0  0
    0.0744   -1.8614    5.7155 N   0  0  0  0  0  0  0  0  0  0  0  0
    0.1740   -1.0039    4.7001 C   0  0  0  0  0  0  0  0  0  0  0  0
   -0.3715    0.2620    4.5569 C   0  0  0  0  0  0  0  0  0  0  0  0
   -2.7724    4.1678    2.4479 H   0  0  0  0  0  0  0  0  0  0  0  0
   -4.1326    3.3010    3.1552 H   0  0  0  0  0  0  0  0  0  0  0  0
   -3.2339    2.5793    1.8357 H   0  0  0  0  0  0  0  0  0  0  0  0
   -2.5903    1.5434    3.9868 H   0  0  0  0  0  0  0  0  0  0  0  0
   -2.7787    4.1464    5.1106 H   0  0  0  0  0  0  0  0  0  0  0  0
   -2.1467    2.7171    5.9249 H   0  0  0  0  0  0  0  0  0  0  0  0
    1.9486    4.1506    4.3980 H   0  0  0  0  0  0  0  0  0  0  0  0
    1.4321    4.3764    2.7274 H   0  0  0  0  0  0  0  0  0  0  0  0
    1.9620    2.7931    3.2887 H   0  0  0  0  0  0  0  0  0  0  0  0
   -0.7252    2.6359    2.1348 H   0  0  0  0  0  0  0  0  0  0  0  0
    0.7842    0.9853    1.4176 H   0  0  0  0  0  0  0  0  0  0  0  0
    1.7949   -1.2489    1.6827 H   0  0  0  0  0  0  0  0  0  0  0  0
   -0.9509    0.6818    5.3606 H   0  0  0  0  0  0  0  0  0  0  0  0
  1  2  1  0
  1 18  1  0
  1 19  1  0
  1 20  1  0
  2  8  1  0
  2  3  1  0
  2 21  1  1
  3  4  1  0
  3 22  1  0
  3 23  1  0
  4  5  2  0
  4  6  1  0
  6  7  1  0
  6  8  1  0
  7 24  1  0
  7 25  1  0
  7 26  1  0
  8  9  1  0
  8 27  1  6
  9 17  2  0
  9 10  1  0
 10 11  2  0
 10 28  1  0
 11 12  1  0
 11 29  1  0
 12 16  1  0
 12 13  2  0
 13 14  1  0
 14 15  1  0
 15 16  2  0
 16 17  1  0
 17 30  1  0
M  END
>  <i_m_ct_stereo_status>  (64) 
1

>  <s_m_source_file>  (64) 
/var/tmp/pbs.5076255.sched01/tmp7me73ahx/0ll6f151o.sdf

>  <i_m_source_file_index>  (64) 
26

>  <i_lp_mmshare_version>  (64) 
48012

>  <i_f3d_flags>  (64) 
0

>  <s_epik_input>  (64) 
W0NIM11bQ0BASF0xW0NIMl1DKD1PKU4oW0NIM10pW0NASF0xYyhbY0hdW2NIXTIpW2NIXWMoYzIzKW5vbjM=

>  <s_epik_cmdline>  (64) 
J2VwaWtfcHl0aG9uJywgJy1waHQnLCAnMi4wJywgJy1waCcsICc3LjAnLCAnLXRuJywgJzgnLCAnLW1hJywgJzIwMCcsICctaW1hZScsICc8aW5maWxlLm1hZT4nLCAnLW9tYWUnLCAnPG91dGZpbGUubWFlPic=

>  <r_lp_tautomer_probability>  (64) 
1

>  <r_epik_Ionization_Penalty>  (64) 
8.38844e-09

>  <r_epik_Ionization_Penalty_Charging>  (64) 
0

>  <r_epik_Ionization_Penalty_Neutral>  (64) 
8.38844e-09

>  <r_epik_State_Penalty>  (64) 
-0

>  <r_epik_Charging_Adjusted_Penalty>  (64) 
0

>  <i_epik_Tot_Q>  (64) 
0

>  <i_epik_Tot_abs_Q>  (64) 
0

>  <s_lp_Force_Field>  (64) 
OPLS3e

>  <r_lp_Energy>  (64) 
6.77625

>  <b_lp_Chiralities_Consistent>  (64) 
1

>  <s_lp_Variant>  (64) 
20:0-1

>  <s_i_glide_gridfile>  (64) 
pfpi4k_grid

>  <i_i_glide_lignum>  (64) 
26

>  <i_i_glide_rotatable_bonds>  (64) 
1

>  <r_i_docking_score>  (64) 
-2.85454

>  <r_i_glide_ligand_efficiency>  (64) 
-0.167914

>  <r_i_glide_ligand_efficiency_sa>  (64) 
-0.431754

>  <r_i_glide_ligand_efficiency_ln>  (64) 
-0.744685

>  <r_i_glide_gscore>  (64) 
-2.85454

>  <r_i_glide_lipo>  (64) 
0

>  <r_i_glide_hbond>  (64) 
0

>  <r_i_glide_metal>  (64) 
-0

>  <r_i_glide_rewards>  (64) 
-1.83238

>  <r_i_glide_evdw>  (64) 
-18.5202

>  <r_i_glide_ecoul>  (64) 
-2.01498

>  <r_i_glide_erotb>  (64) 
0.319836

>  <r_i_glide_esite>  (64) 
-0.113734

>  <r_i_glide_emodel>  (64) 
-24.1061

>  <r_i_glide_energy>  (64) 
-20.5352

>  <r_i_glide_einternal>  (64) 
0.988679

>  <r_i_glide_intrahb_reward>  (64) 
-0

>  <i_i_glide_confnum>  (64) 
3

>  <i_i_glide_posenum>  (64) 
29

>  <r_i_glide_eff_state_penalty>  (64) 
0

>  <ligand_id>  (64) 
20

>  <original_smiles>  (64) 
CC1CC(=O)N(C)C1c1ccc2nonc2c1

>  <smiles>  (64) 
[H]c1c(C2([H])N(C([H])([H])[H])C(=O)C([H])([H])C2([H])C([H])([H])[H])c([H])c2nonc2c1[H]

$$$$
21:0:0
     RDKit          3D

 22 24  0  0  1  0  0  0  0  0999 V2000
   -0.5969   -9.0829    3.1264 C   0  0  0  0  0  0  0  0  0  0  0  0
   -1.2316   -7.9062    2.7096 C   0  0  0  0  0  0  0  0  0  0  0  0
   -0.5852   -6.9037    2.0822 N   0  0  0  0  0  0  0  0  0  0  0  0
    0.7386   -7.0273    1.8208 C   0  0  0  0  0  0  0  0  0  0  0  0
    1.3762   -6.0195    1.1898 N   0  0  0  0  0  0  0  0  0  0  0  0
    2.7016   -6.0895    0.9317 C   0  0  0  0  0  0  0  0  0  0  0  0
    3.2891   -4.9256    0.2534 C   0  0  0  0  0  0  0  0  0  0  0  0
    2.6064   -3.8493   -0.1536 N   0  0  0  0  0  0  0  0  0  0  0  0
    3.3978   -2.8945   -0.7900 C   0  0  0  0  0  0  0  0  0  0  0  0
    4.7188   -3.2547   -0.8536 C   0  0  0  0  0  0  0  0  0  0  0  0
    5.0102   -4.8088   -0.1229 S   0  0  0  0  0  0  0  0  0  0  0  0
    3.4729   -7.2171    1.2880 C   0  0  0  0  0  0  0  0  0  0  0  0
    2.8323   -8.2889    1.9374 C   0  0  0  0  0  0  0  0  0  0  0  0
    1.4553   -8.1898    2.2133 C   0  0  0  0  0  0  0  0  0  0  0  0
    0.7747   -9.2345    2.8720 C   0  0  0  0  0  0  0  0  0  0  0  0
   -1.1532   -9.8550    3.6356 H   0  0  0  0  0  0  0  0  0  0  0  0
   -2.2881   -7.7635    2.8892 H   0  0  0  0  0  0  0  0  0  0  0  0
    2.9347   -1.9869   -1.1602 H   0  0  0  0  0  0  0  0  0  0  0  0
    5.5363   -2.7031   -1.2848 H   0  0  0  0  0  0  0  0  0  0  0  0
    4.5294   -7.2777    1.0682 H   0  0  0  0  0  0  0  0  0  0  0  0
    3.3946   -9.1707    2.2182 H   0  0  0  0  0  0  0  0  0  0  0  0
    1.2938  -10.1344    3.1734 H   0  0  0  0  0  0  0  0  0  0  0  0
  1 15  2  0
  1  2  1  0
  1 16  1  0
  2  3  2  0
  2 17  1  0
  3  4  1  0
  4 14  2  0
  4  5  1  0
  5  6  2  0
  6  7  1  0
  6 12  1  0
  7 11  1  0
  7  8  2  0
  8  9  1  0
  9 10  2  0
  9 18  1  0
 10 11  1  0
 10 19  1  0
 12 13  2  0
 12 20  1  0
 13 14  1  0
 13 21  1  0
 14 15  1  0
 15 22  1  0
M  END
>  <i_m_ct_stereo_status>  (65) 
1

>  <s_m_source_file>  (65) 
/var/tmp/pbs.5076255.sched01/tmp7me73ahx/0ll6f151o.sdf

>  <i_m_source_file_index>  (65) 
27

>  <i_lp_mmshare_version>  (65) 
48012

>  <i_f3d_flags>  (65) 
0

>  <s_epik_input>  (65) 
bjFbY0hdW2NIXVtjSF1jKGMxMilbY0hdW2NIXWMobjIpLWMzbltjSF1bY0hdczM=

>  <s_epik_cmdline>  (65) 
J2VwaWtfcHl0aG9uJywgJy1waHQnLCAnMi4wJywgJy1waCcsICc3LjAnLCAnLXRuJywgJzgnLCAnLW1hJywgJzIwMCcsICctaW1hZScsICc8aW5maWxlLm1hZT4nLCAnLW9tYWUnLCAnPG91dGZpbGUubWFlPic=

>  <r_lp_tautomer_probability>  (65) 
1

>  <r_epik_Ionization_Penalty>  (65) 
7.21049e-07

>  <r_epik_Ionization_Penalty_Charging>  (65) 
0

>  <r_epik_Ionization_Penalty_Neutral>  (65) 
7.21049e-07

>  <r_epik_State_Penalty>  (65) 
-0

>  <r_epik_Charging_Adjusted_Penalty>  (65) 
0

>  <i_epik_Tot_Q>  (65) 
0

>  <i_epik_Tot_abs_Q>  (65) 
0

>  <s_lp_Force_Field>  (65) 
OPLS3e

>  <r_lp_Energy>  (65) 
22.6003

>  <b_lp_Chiralities_Consistent>  (65) 
1

>  <s_lp_Variant>  (65) 
21:0-1

>  <s_i_glide_gridfile>  (65) 
pfpi4k_grid

>  <i_i_glide_lignum>  (65) 
27

>  <i_i_glide_rotatable_bonds>  (65) 
1

>  <r_i_docking_score>  (65) 
-3.98824

>  <r_i_glide_ligand_efficiency>  (65) 
-0.265883

>  <r_i_glide_ligand_efficiency_sa>  (65) 
-0.655723

>  <r_i_glide_ligand_efficiency_ln>  (65) 
-1.07556

>  <r_i_glide_gscore>  (65) 
-3.98824

>  <r_i_glide_lipo>  (65) 
-0.134308

>  <r_i_glide_hbond>  (65) 
-0.312044

>  <r_i_glide_metal>  (65) 
-0

>  <r_i_glide_rewards>  (65) 
-1.95505

>  <r_i_glide_evdw>  (65) 
-20.7018

>  <r_i_glide_ecoul>  (65) 
-5.66547

>  <r_i_glide_erotb>  (65) 
0.366736

>  <r_i_glide_esite>  (65) 
-0.0686642

>  <r_i_glide_emodel>  (65) 
-32.085

>  <r_i_glide_energy>  (65) 
-26.3673

>  <r_i_glide_einternal>  (65) 
4.68317

>  <r_i_glide_intrahb_reward>  (65) 
-0

>  <i_i_glide_confnum>  (65) 
2

>  <i_i_glide_posenum>  (65) 
7

>  <r_i_glide_eff_state_penalty>  (65) 
0

>  <ligand_id>  (65) 
21

>  <original_smiles>  (65) 
c1cnc2nc(-c3nccs3)ccc2c1

>  <smiles>  (65) 
[H]c1nc(-c2nc3nc([H])c([H])c([H])c3c([H])c2[H])sc1[H]

$$$$
21:0:1
     RDKit          3D

 22 24  0  0  1  0  0  0  0  0999 V2000
   -0.7486   -9.0630    3.0645 C   0  0  0  0  0  0  0  0  0  0  0  0
   -1.3058   -7.8587    2.6177 C   0  0  0  0  0  0  0  0  0  0  0  0
   -0.5865   -6.8879    2.0203 N   0  0  0  0  0  0  0  0  0  0  0  0
    0.7332   -7.0778    1.7997 C   0  0  0  0  0  0  0  0  0  0  0  0
    1.4340   -6.1093    1.1728 N   0  0  0  0  0  0  0  0  0  0  0  0
    2.7639   -6.2489    0.9777 C   0  0  0  0  0  0  0  0  0  0  0  0
    3.4776   -5.1529    0.3124 C   0  0  0  0  0  0  0  0  0  0  0  0
    4.7975   -5.1005    0.0910 N   0  0  0  0  0  0  0  0  0  0  0  0
    5.1915   -3.9346   -0.5735 C   0  0  0  0  0  0  0  0  0  0  0  0
    4.1496   -3.0938   -0.8594 C   0  0  0  0  0  0  0  0  0  0  0  0
    2.6220   -3.7401   -0.3165 S   0  0  0  0  0  0  0  0  0  0  0  0
    3.4654   -7.4046    1.3796 C   0  0  0  0  0  0  0  0  0  0  0  0
    2.7566   -8.4394    2.0123 C   0  0  0  0  0  0  0  0  0  0  0  0
    1.3770   -8.2708    2.2330 C   0  0  0  0  0  0  0  0  0  0  0  0
    0.6258   -9.2767    2.8743 C   0  0  0  0  0  0  0  0  0  0  0  0
   -1.3609   -9.8125    3.5487 H   0  0  0  0  0  0  0  0  0  0  0  0
   -2.3613   -7.6626    2.7426 H   0  0  0  0  0  0  0  0  0  0  0  0
    6.2422   -3.7891   -0.7991 H   0  0  0  0  0  0  0  0  0  0  0  0
    4.1690   -2.1373   -1.3588 H   0  0  0  0  0  0  0  0  0  0  0  0
    4.5257   -7.5021    1.1934 H   0  0  0  0  0  0  0  0  0  0  0  0
    3.2707   -9.3414    2.3221 H   0  0  0  0  0  0  0  0  0  0  0  0
    1.0868  -10.1974    3.2060 H   0  0  0  0  0  0  0  0  0  0  0  0
  1 15  2  0
  1  2  1  0
  1 16  1  0
  2  3  2  0
  2 17  1  0
  3  4  1  0
  4 14  2  0
  4  5  1  0
  5  6  2  0
  6  7  1  0
  6 12  1  0
  7 11  1  0
  7  8  2  0
  8  9  1  0
  9 10  2  0
  9 18  1  0
 10 11  1  0
 10 19  1  0
 12 13  2  0
 12 20  1  0
 13 14  1  0
 13 21  1  0
 14 15  1  0
 15 22  1  0
M  END
>  <i_m_ct_stereo_status>  (66) 
1

>  <s_m_source_file>  (66) 
/var/tmp/pbs.5076255.sched01/tmp7me73ahx/0ll6f151o.sdf

>  <i_m_source_file_index>  (66) 
27

>  <i_lp_mmshare_version>  (66) 
48012

>  <i_f3d_flags>  (66) 
0

>  <s_epik_input>  (66) 
bjFbY0hdW2NIXVtjSF1jKGMxMilbY0hdW2NIXWMobjIpLWMzbltjSF1bY0hdczM=

>  <s_epik_cmdline>  (66) 
J2VwaWtfcHl0aG9uJywgJy1waHQnLCAnMi4wJywgJy1waCcsICc3LjAnLCAnLXRuJywgJzgnLCAnLW1hJywgJzIwMCcsICctaW1hZScsICc8aW5maWxlLm1hZT4nLCAnLW9tYWUnLCAnPG91dGZpbGUubWFlPic=

>  <r_lp_tautomer_probability>  (66) 
1

>  <r_epik_Ionization_Penalty>  (66) 
7.21049e-07

>  <r_epik_Ionization_Penalty_Charging>  (66) 
0

>  <r_epik_Ionization_Penalty_Neutral>  (66) 
7.21049e-07

>  <r_epik_State_Penalty>  (66) 
-0

>  <r_epik_Charging_Adjusted_Penalty>  (66) 
0

>  <i_epik_Tot_Q>  (66) 
0

>  <i_epik_Tot_abs_Q>  (66) 
0

>  <s_lp_Force_Field>  (66) 
OPLS3e

>  <r_lp_Energy>  (66) 
22.6003

>  <b_lp_Chiralities_Consistent>  (66) 
1

>  <s_lp_Variant>  (66) 
21:0-1

>  <s_i_glide_gridfile>  (66) 
pfpi4k_grid

>  <i_i_glide_lignum>  (66) 
27

>  <i_i_glide_rotatable_bonds>  (66) 
1

>  <r_i_docking_score>  (66) 
-3.89635

>  <r_i_glide_ligand_efficiency>  (66) 
-0.259757

>  <r_i_glide_ligand_efficiency_sa>  (66) 
-0.640615

>  <r_i_glide_ligand_efficiency_ln>  (66) 
-1.05078

>  <r_i_glide_gscore>  (66) 
-3.89635

>  <r_i_glide_lipo>  (66) 
-0.133596

>  <r_i_glide_hbond>  (66) 
-0.274477

>  <r_i_glide_metal>  (66) 
-0

>  <r_i_glide_rewards>  (66) 
-1.95505

>  <r_i_glide_evdw>  (66) 
-20.8069

>  <r_i_glide_ecoul>  (66) 
-5.27988

>  <r_i_glide_erotb>  (66) 
0.366736

>  <r_i_glide_esite>  (66) 
-0.067639

>  <r_i_glide_emodel>  (66) 
-33.9854

>  <r_i_glide_energy>  (66) 
-26.0867

>  <r_i_glide_einternal>  (66) 
0.0532434

>  <r_i_glide_intrahb_reward>  (66) 
-0

>  <i_i_glide_confnum>  (66) 
1

>  <i_i_glide_posenum>  (66) 
40

>  <r_i_glide_eff_state_penalty>  (66) 
0

>  <ligand_id>  (66) 
21

>  <original_smiles>  (66) 
c1cnc2nc(-c3nccs3)ccc2c1

>  <smiles>  (66) 
[H]c1nc(-c2nc3nc([H])c([H])c([H])c3c([H])c2[H])sc1[H]

$$$$
21:0:2
     RDKit          3D

 22 24  0  0  1  0  0  0  0  0999 V2000
    1.7515   -7.7517    2.3148 C   0  0  0  0  0  0  0  0  0  0  0  0
    0.7767   -7.2863    1.4186 C   0  0  0  0  0  0  0  0  0  0  0  0
    0.9808   -6.2573    0.5765 N   0  0  0  0  0  0  0  0  0  0  0  0
    2.1909   -5.6483    0.5420 C   0  0  0  0  0  0  0  0  0  0  0  0
    2.3789   -4.6195   -0.3057 N   0  0  0  0  0  0  0  0  0  0  0  0
    3.5602   -3.9651   -0.3445 C   0  0  0  0  0  0  0  0  0  0  0  0
    3.7085   -2.8803   -1.3184 C   0  0  0  0  0  0  0  0  0  0  0  0
    4.6700   -1.9492   -1.2940 N   0  0  0  0  0  0  0  0  0  0  0  0
    4.5363   -1.0132   -2.3175 C   0  0  0  0  0  0  0  0  0  0  0  0
    3.5081   -1.2898   -3.1819 C   0  0  0  0  0  0  0  0  0  0  0  0
    2.6300   -2.7165   -2.7132 S   0  0  0  0  0  0  0  0  0  0  0  0
    4.6402   -4.3244    0.4900 C   0  0  0  0  0  0  0  0  0  0  0  0
    4.4747   -5.3922    1.3879 C   0  0  0  0  0  0  0  0  0  0  0  0
    3.2346   -6.0623    1.4184 C   0  0  0  0  0  0  0  0  0  0  0  0
    3.0086   -7.1233    2.3164 C   0  0  0  0  0  0  0  0  0  0  0  0
    1.5375   -8.5757    2.9798 H   0  0  0  0  0  0  0  0  0  0  0  0
   -0.1950   -7.7486    1.3729 H   0  0  0  0  0  0  0  0  0  0  0  0
    5.2182   -0.1736   -2.3484 H   0  0  0  0  0  0  0  0  0  0  0  0
    3.1911   -0.7266   -4.0468 H   0  0  0  0  0  0  0  0  0  0  0  0
    5.5807   -3.7983    0.4267 H   0  0  0  0  0  0  0  0  0  0  0  0
    5.2820   -5.6832    2.0480 H   0  0  0  0  0  0  0  0  0  0  0  0
    3.7805   -7.4515    2.9983 H   0  0  0  0  0  0  0  0  0  0  0  0
  1 15  2  0
  1  2  1  0
  1 16  1  0
  2  3  2  0
  2 17  1  0
  3  4  1  0
  4 14  2  0
  4  5  1  0
  5  6  2  0
  6  7  1  0
  6 12  1  0
  7 11  1  0
  7  8  2  0
  8  9  1  0
  9 10  2  0
  9 18  1  0
 10 11  1  0
 10 19  1  0
 12 13  2  0
 12 20  1  0
 13 14  1  0
 13 21  1  0
 14 15  1  0
 15 22  1  0
M  END
>  <i_m_ct_stereo_status>  (67) 
1

>  <s_m_source_file>  (67) 
/var/tmp/pbs.5076255.sched01/tmp7me73ahx/0ll6f151o.sdf

>  <i_m_source_file_index>  (67) 
27

>  <i_lp_mmshare_version>  (67) 
48012

>  <i_f3d_flags>  (67) 
0

>  <s_epik_input>  (67) 
bjFbY0hdW2NIXVtjSF1jKGMxMilbY0hdW2NIXWMobjIpLWMzbltjSF1bY0hdczM=

>  <s_epik_cmdline>  (67) 
J2VwaWtfcHl0aG9uJywgJy1waHQnLCAnMi4wJywgJy1waCcsICc3LjAnLCAnLXRuJywgJzgnLCAnLW1hJywgJzIwMCcsICctaW1hZScsICc8aW5maWxlLm1hZT4nLCAnLW9tYWUnLCAnPG91dGZpbGUubWFlPic=

>  <r_lp_tautomer_probability>  (67) 
1

>  <r_epik_Ionization_Penalty>  (67) 
7.21049e-07

>  <r_epik_Ionization_Penalty_Charging>  (67) 
0

>  <r_epik_Ionization_Penalty_Neutral>  (67) 
7.21049e-07

>  <r_epik_State_Penalty>  (67) 
-0

>  <r_epik_Charging_Adjusted_Penalty>  (67) 
0

>  <i_epik_Tot_Q>  (67) 
0

>  <i_epik_Tot_abs_Q>  (67) 
0

>  <s_lp_Force_Field>  (67) 
OPLS3e

>  <r_lp_Energy>  (67) 
22.6003

>  <b_lp_Chiralities_Consistent>  (67) 
1

>  <s_lp_Variant>  (67) 
21:0-1

>  <s_i_glide_gridfile>  (67) 
pfpi4k_grid

>  <i_i_glide_lignum>  (67) 
27

>  <i_i_glide_rotatable_bonds>  (67) 
1

>  <r_i_docking_score>  (67) 
-3.59367

>  <r_i_glide_ligand_efficiency>  (67) 
-0.239578

>  <r_i_glide_ligand_efficiency_sa>  (67) 
-0.59085

>  <r_i_glide_ligand_efficiency_ln>  (67) 
-0.969153

>  <r_i_glide_gscore>  (67) 
-3.59367

>  <r_i_glide_lipo>  (67) 
-0.164806

>  <r_i_glide_hbond>  (67) 
-0.16

>  <r_i_glide_metal>  (67) 
-0

>  <r_i_glide_rewards>  (67) 
-1.95505

>  <r_i_glide_evdw>  (67) 
-21.9982

>  <r_i_glide_ecoul>  (67) 
-3.52951

>  <r_i_glide_erotb>  (67) 
0.366736

>  <r_i_glide_esite>  (67) 
-0.0512082

>  <r_i_glide_emodel>  (67) 
-32.1963

>  <r_i_glide_energy>  (67) 
-25.5278

>  <r_i_glide_einternal>  (67) 
0.953935

>  <r_i_glide_intrahb_reward>  (67) 
-0

>  <i_i_glide_confnum>  (67) 
1

>  <i_i_glide_posenum>  (67) 
3

>  <r_i_glide_eff_state_penalty>  (67) 
0

>  <ligand_id>  (67) 
21

>  <original_smiles>  (67) 
c1cnc2nc(-c3nccs3)ccc2c1

>  <smiles>  (67) 
[H]c1nc(-c2nc3nc([H])c([H])c([H])c3c([H])c2[H])sc1[H]

$$$$
22:0:0
     RDKit          3D

 53 58  0  0  1  0  0  0  0  0999 V2000
    3.8272   -8.2266    1.1620 C   0  0  0  0  0  0  0  0  0  0  0  0
    4.9517   -8.4545    2.1893 C   0  0  0  0  0  0  0  0  0  0  0  0
    4.3726   -9.0595    3.4747 C   0  0  0  0  0  0  0  0  0  0  0  0
    5.8248   -9.4494    1.6929 O   0  0  0  0  0  0  0  0  0  0  0  0
    7.0379   -8.7299    1.2158 O   0  0  0  0  0  0  0  0  0  0  0  0
    7.3111   -7.7536    2.1924 C   0  0  1  0  0  0  0  0  0  0  0  0
    8.0540   -8.3170    3.4188 C   0  0  0  0  0  0  0  0  0  0  0  0
    8.0668   -6.6712    1.6658 O   0  0  0  0  0  0  0  0  0  0  0  0
    7.2995   -5.4822    1.6703 C   0  0  1  0  0  0  0  0  0  0  0  0
    7.8899   -4.5151    0.5658 C   0  0  0  0  0  0  0  0  0  0  0  0
    6.9356   -3.4434    0.0194 C   0  0  2  0  0  0  0  0  0  0  0  0
    6.5535   -1.9778    0.4693 C   0  0  1  0  0  0  0  0  0  0  0  0
    5.3470   -1.0696    0.1503 C   0  0  0  0  0  0  0  0  0  0  0  0
    4.1504   -1.2940    1.1056 C   0  0  0  0  0  0  0  0  0  0  0  0
    3.8300   -2.5291    1.5663 C   0  0  0  0  0  0  0  0  0  0  0  0
    2.7794   -2.8377    2.6124 C   0  0  0  0  0  0  0  0  0  0  0  0
    3.4287   -3.5939    3.7829 C   0  0  0  0  0  0  0  0  0  0  0  0
    3.0683   -3.3873    4.9370 O   0  0  0  0  0  0  0  0  0  0  0  0
    4.5212   -4.6370    3.4836 C   0  0  0  0  0  0  0  0  0  0  0  0
    4.6500   -4.9826    1.9800 C   0  0  2  0  0  0  0  0  0  0  0  0
    5.8220   -5.9839    1.5939 C   0  0  2  0  0  0  0  0  0  0  0  0
    5.8964   -7.2476    2.4757 C   0  0  1  0  0  0  0  0  0  0  0  0
    4.6489   -3.7115    1.0870 C   0  0  1  0  0  0  0  0  0  0  0  0
    4.1051   -4.0864   -0.3199 C   0  0  0  0  0  0  0  0  0  0  0  0
    6.0477   -3.1668    1.1516 C   0  0  1  0  0  0  0  0  0  0  0  0
    3.0647   -7.5468    1.5410 H   0  0  0  0  0  0  0  0  0  0  0  0
    3.3201   -9.1659    0.9371 H   0  0  0  0  0  0  0  0  0  0  0  0
    4.2036   -7.8396    0.2168 H   0  0  0  0  0  0  0  0  0  0  0  0
    3.7050   -8.3607    3.9776 H   0  0  0  0  0  0  0  0  0  0  0  0
    5.1679   -9.3309    4.1665 H   0  0  0  0  0  0  0  0  0  0  0  0
    3.8086   -9.9683    3.2549 H   0  0  0  0  0  0  0  0  0  0  0  0
    9.0470   -8.6670    3.1413 H   0  0  0  0  0  0  0  0  0  0  0  0
    7.5277   -9.1482    3.8875 H   0  0  0  0  0  0  0  0  0  0  0  0
    8.1942   -7.5466    4.1789 H   0  0  0  0  0  0  0  0  0  0  0  0
    7.4558   -5.0583    2.6623 H   0  0  0  0  0  0  0  0  0  0  0  0
    8.7967   -4.0415    0.9404 H   0  0  0  0  0  0  0  0  0  0  0  0
    8.2140   -5.1094   -0.2875 H   0  0  0  0  0  0  0  0  0  0  0  0
    6.5437   -3.6876   -0.9653 H   0  0  0  0  0  0  0  0  0  0  0  0
    7.3582   -1.4355    0.9623 H   0  0  0  0  0  0  0  0  0  0  0  0
    5.6620   -0.0293    0.2392 H   0  0  0  0  0  0  0  0  0  0  0  0
    5.0324   -1.2129   -0.8837 H   0  0  0  0  0  0  0  0  0  0  0  0
    3.5903   -0.4187    1.4101 H   0  0  0  0  0  0  0  0  0  0  0  0
    2.3245   -1.9164    2.9736 H   0  0  0  0  0  0  0  0  0  0  0  0
    1.9945   -3.4538    2.1769 H   0  0  0  0  0  0  0  0  0  0  0  0
    5.4690   -4.2812    3.8862 H   0  0  0  0  0  0  0  0  0  0  0  0
    4.2679   -5.5352    4.0431 H   0  0  0  0  0  0  0  0  0  0  0  0
    3.7197   -5.4991    1.7505 H   0  0  0  0  0  0  0  0  0  0  0  0
    5.6901   -6.2999    0.5607 H   0  0  0  0  0  0  0  0  0  0  0  0
    5.8386   -6.9658    3.5259 H   0  0  0  0  0  0  0  0  0  0  0  0
    4.6384   -4.9163   -0.7842 H   0  0  0  0  0  0  0  0  0  0  0  0
    4.1305   -3.2510   -1.0185 H   0  0  0  0  0  0  0  0  0  0  0  0
    3.0574   -4.3883   -0.2460 H   0  0  0  0  0  0  0  0  0  0  0  0
    6.4284   -3.1359    2.1690 H   0  0  0  0  0  0  0  0  0  0  0  0
  1  2  1  0
  1 26  1  0
  1 27  1  0
  1 28  1  0
  2 22  1  0
  2  3  1  0
  2  4  1  0
  3 29  1  0
  3 30  1  0
  3 31  1  0
  4  5  1  0
  5  6  1  0
  6 22  1  0
  6  7  1  1
  6  8  1  0
  7 32  1  0
  7 33  1  0
  7 34  1  0
  8  9  1  0
  9 21  1  0
  9 10  1  0
  9 35  1  1
 10 11  1  0
 10 36  1  0
 10 37  1  0
 11 25  1  0
 11 12  1  0
 11 38  1  6
 12 25  1  0
 12 13  1  0
 12 39  1  1
 13 14  1  0
 13 40  1  0
 13 41  1  0
 14 15  2  0
 14 42  1  0
 15 23  1  0
 15 16  1  0
 16 17  1  0
 16 43  1  0
 16 44  1  0
 17 18  2  0
 17 19  1  0
 19 20  1  0
 19 45  1  0
 19 46  1  0
 20 21  1  0
 20 23  1  0
 20 47  1  6
 21 22  1  0
 21 48  1  6
 22 49  1  1
 23 24  1  6
 23 25  1  0
 24 50  1  0
 24 51  1  0
 24 52  1  0
 25 53  1  1
M  END
>  <i_m_ct_stereo_status>  (68) 
1

>  <s_m_source_file>  (68) 
/var/tmp/pbs.5076255.sched01/tmp7me73ahx/0ll6f151o.sdf

>  <i_m_source_file_index>  (68) 
28

>  <i_lp_mmshare_version>  (68) 
48012

>  <i_f3d_flags>  (68) 
0

>  <s_epik_input>  (68) 
TzFPQyhbQ0gzXSkoW0NIM10pW0NAQEhdKFtDQEBdMTJbQ0gzXSlbQ0BASF0zW0NAQEhdKE8yKVtDSDJdW0NAQEhdNFtDQEBIXTVbQ0BIXTRbQ0BdNihbQ0gzXSlDKD1bQ0hdW0NIMl01KVtDSDJdQyg9TylbQ0gyXVtDQEhdMzY=

>  <s_epik_cmdline>  (68) 
J2VwaWtfcHl0aG9uJywgJy1waHQnLCAnMi4wJywgJy1waCcsICc3LjAnLCAnLXRuJywgJzgnLCAnLW1hJywgJzIwMCcsICctaW1hZScsICc8aW5maWxlLm1hZT4nLCAnLW9tYWUnLCAnPG91dGZpbGUubWFlPic=

>  <r_lp_tautomer_probability>  (68) 
1

>  <r_epik_Ionization_Penalty>  (68) 
3.10083e-13

>  <r_epik_Ionization_Penalty_Charging>  (68) 
0

>  <r_epik_Ionization_Penalty_Neutral>  (68) 
3.10083e-13

>  <r_epik_State_Penalty>  (68) 
-0

>  <r_epik_Charging_Adjusted_Penalty>  (68) 
0

>  <i_epik_Tot_Q>  (68) 
0

>  <i_epik_Tot_abs_Q>  (68) 
0

>  <s_lp_Force_Field>  (68) 
OPLS3e

>  <r_lp_Energy>  (68) 
73.1495

>  <b_lp_Chiralities_Consistent>  (68) 
1

>  <s_lp_Variant>  (68) 
22:0-1

>  <s_i_glide_gridfile>  (68) 
pfpi4k_grid

>  <i_i_glide_lignum>  (68) 
28

>  <i_i_glide_rotatable_bonds>  (68) 
0

>  <r_i_docking_score>  (68) 
-3.15437

>  <r_i_glide_ligand_efficiency>  (68) 
-0.126175

>  <r_i_glide_ligand_efficiency_sa>  (68) 
-0.368938

>  <r_i_glide_ligand_efficiency_ln>  (68) 
-0.747681

>  <r_i_glide_gscore>  (68) 
-3.15437

>  <r_i_glide_lipo>  (68) 
-0.697798

>  <r_i_glide_hbond>  (68) 
0

>  <r_i_glide_metal>  (68) 
-0

>  <r_i_glide_rewards>  (68) 
-1.0833

>  <r_i_glide_evdw>  (68) 
-25.0747

>  <r_i_glide_ecoul>  (68) 
-0.796893

>  <r_i_glide_erotb>  (68) 
0

>  <r_i_glide_esite>  (68) 
0

>  <r_i_glide_emodel>  (68) 
-30.4321

>  <r_i_glide_energy>  (68) 
-25.8716

>  <r_i_glide_einternal>  (68) 
0

>  <r_i_glide_intrahb_reward>  (68) 
-0

>  <i_i_glide_confnum>  (68) 
2

>  <i_i_glide_posenum>  (68) 
33

>  <r_i_glide_eff_state_penalty>  (68) 
0

>  <ligand_id>  (68) 
22

>  <original_smiles>  (68) 
CC1(C)OOC2(C)OC3CC4C5CC=C6CC(=O)CC(C3C12)C6(C)C54

>  <smiles>  (68) 
[H]C1=C2C([H])([H])C(=O)C([H])([H])C3([H])C4([H])C([H])(OC5(C([H])([H])[H])OOC(C([H])([H])[H])(C([H])([H])[H])C54[H])C([H])([H])C4([H])C([H])(C1([H])[H])C4([H])C23C([H])([H])[H]

$$$$
23:0:0
     RDKit          3D

 40 44  0  0  1  0  0  0  0  0999 V2000
    4.4585   -7.4793    2.6768 C   0  0  0  0  0  0  0  0  0  0  0  0
    5.5435   -6.7626    1.8962 C   0  0  0  0  0  0  0  0  0  0  0  0
    6.6804   -7.3033    1.4364 C   0  0  0  0  0  0  0  0  0  0  0  0
    7.6183   -6.2726    0.8319 C   0  0  0  0  0  0  0  0  0  0  0  0
    7.0241   -4.9892    1.4170 C   0  0  1  0  0  0  0  0  0  0  0  0
    7.2561   -3.5575    0.8321 C   0  0  1  0  0  0  0  0  0  0  0  0
    7.9347   -3.3939   -0.5544 C   0  0  0  0  0  0  0  0  0  0  0  0
    6.9740   -3.1149   -1.6837 C   0  0  2  0  0  0  0  0  0  0  0  0
    6.2176   -1.8971   -1.5930 O   0  0  0  0  0  0  0  0  0  0  0  0
    5.5018   -3.1276   -1.4362 C   0  0  1  0  0  0  0  0  0  0  0  0
    4.5464   -3.4639   -2.5549 C   0  0  0  0  0  0  0  0  0  0  0  0
    4.9678   -3.4055   -0.0378 C   0  0  2  0  0  0  0  0  0  0  0  0
    5.9126   -2.8338    1.0096 C   0  0  0  0  0  0  0  0  0  0  0  0
    5.4359   -2.8991    2.2778 C   0  0  0  0  0  0  0  0  0  0  0  0
    5.0102   -4.2998    2.7193 C   0  0  0  0  0  0  0  0  0  0  0  0
    5.5031   -5.2788    1.6148 C   0  0  2  0  0  0  0  0  0  0  0  0
    4.7740   -4.9256    0.2696 C   0  0  1  0  0  0  0  0  0  0  0  0
    3.2910   -5.3233    0.2307 C   0  0  0  0  0  0  0  0  0  0  0  0
    3.4734   -7.3315    2.2361 H   0  0  0  0  0  0  0  0  0  0  0  0
    4.4380   -7.0920    3.6965 H   0  0  0  0  0  0  0  0  0  0  0  0
    4.6606   -8.5510    2.7280 H   0  0  0  0  0  0  0  0  0  0  0  0
    6.9376   -8.3540    1.4883 H   0  0  0  0  0  0  0  0  0  0  0  0
    8.6581   -6.4475    1.1110 H   0  0  0  0  0  0  0  0  0  0  0  0
    7.5309   -6.2673   -0.2497 H   0  0  0  0  0  0  0  0  0  0  0  0
    7.4537   -4.9649    2.4182 H   0  0  0  0  0  0  0  0  0  0  0  0
    7.9539   -3.0900    1.5049 H   0  0  0  0  0  0  0  0  0  0  0  0
    8.6359   -2.5594   -0.5201 H   0  0  0  0  0  0  0  0  0  0  0  0
    8.5489   -4.2585   -0.7965 H   0  0  0  0  0  0  0  0  0  0  0  0
    7.3126   -3.3806   -2.6813 H   0  0  0  0  0  0  0  0  0  0  0  0
    4.4462   -4.5462   -2.6134 H   0  0  0  0  0  0  0  0  0  0  0  0
    4.9408   -3.1272   -3.5145 H   0  0  0  0  0  0  0  0  0  0  0  0
    3.5712   -3.0116   -2.3839 H   0  0  0  0  0  0  0  0  0  0  0  0
    4.0188   -2.8733    0.0619 H   0  0  0  0  0  0  0  0  0  0  0  0
    6.1212   -2.5409    3.0224 H   0  0  0  0  0  0  0  0  0  0  0  0
    5.4731   -4.5315    3.6774 H   0  0  0  0  0  0  0  0  0  0  0  0
    3.9332   -4.3376    2.8639 H   0  0  0  0  0  0  0  0  0  0  0  0
    5.2721   -5.4924   -0.5188 H   0  0  0  0  0  0  0  0  0  0  0  0
    2.7203   -4.9084    1.0631 H   0  0  0  0  0  0  0  0  0  0  0  0
    3.1879   -6.4066    0.2371 H   0  0  0  0  0  0  0  0  0  0  0  0
    2.8431   -4.9623   -0.6976 H   0  0  0  0  0  0  0  0  0  0  0  0
  1  2  1  0
  1 19  1  0
  1 20  1  0
  1 21  1  0
 16  2  1  1
  2  3  2  0
  3  4  1  0
  3 22  1  0
  4  5  1  0
  4 23  1  0
  4 24  1  0
  5 16  1  0
  5  6  1  0
  5 25  1  1
  6 13  1  0
  6  7  1  0
  6 26  1  1
  7  8  1  0
  7 27  1  0
  7 28  1  0
  8 10  1  0
  8  9  1  0
  8 29  1  6
  9 10  1  0
 10 11  1  6
 10 12  1  0
 11 30  1  0
 11 31  1  0
 11 32  1  0
 12 17  1  0
 12 13  1  0
 12 33  1  6
 13 14  2  0
 14 15  1  0
 14 34  1  0
 15 16  1  0
 15 35  1  0
 15 36  1  0
 16 17  1  0
 17 18  1  0
 17 37  1  6
 18 38  1  0
 18 39  1  0
 18 40  1  0
M  END
>  <i_m_ct_stereo_status>  (69) 
1

>  <s_m_source_file>  (69) 
/var/tmp/pbs.5076255.sched01/tmp7me73ahx/0ll6f151o.sdf

>  <i_m_source_file_index>  (69) 
29

>  <i_lp_mmshare_version>  (69) 
48012

>  <i_f3d_flags>  (69) 
1

>  <s_epik_input>  (69) 
W0NIM11DMT1bQ0hdW0NIMl1bQ0BIXShbQ0BAXTEyMylbQ0hdNEMoPVtDSF1bQ0gyXTIpW0NASF0oW0NAQEhdM1tDSDNdKVtDQF01KFtDSDNdKVtDQEBIXShPNSlbQ0gyXTQ=

>  <s_epik_cmdline>  (69) 
J2VwaWtfcHl0aG9uJywgJy1waHQnLCAnMi4wJywgJy1waCcsICc3LjAnLCAnLXRuJywgJzgnLCAnLW1hJywgJzIwMCcsICctaW1hZScsICc8aW5maWxlLm1hZT4nLCAnLW9tYWUnLCAnPG91dGZpbGUubWFlPic=

>  <r_lp_tautomer_probability>  (69) 
1

>  <r_epik_Ionization_Penalty>  (69) 
3.688e-11

>  <r_epik_Ionization_Penalty_Charging>  (69) 
0

>  <r_epik_Ionization_Penalty_Neutral>  (69) 
3.688e-11

>  <r_epik_State_Penalty>  (69) 
-0

>  <r_epik_Charging_Adjusted_Penalty>  (69) 
0

>  <i_epik_Tot_Q>  (69) 
0

>  <i_epik_Tot_abs_Q>  (69) 
0

>  <s_lp_Force_Field>  (69) 
OPLS3e

>  <r_lp_Energy>  (69) 
86.0634

>  <b_lp_Chiralities_Consistent>  (69) 
1

>  <s_lp_Variant>  (69) 
23:0-1

>  <s_i_glide_gridfile>  (69) 
pfpi4k_grid

>  <i_i_glide_lignum>  (69) 
29

>  <i_i_glide_rotatable_bonds>  (69) 
0

>  <r_i_docking_score>  (69) 
-3.88136

>  <r_i_glide_ligand_efficiency>  (69) 
-0.215631

>  <r_i_glide_ligand_efficiency_sa>  (69) 
-0.565114

>  <r_i_glide_ligand_efficiency_ln>  (69) 
-0.997685

>  <r_i_glide_gscore>  (69) 
-3.88136

>  <r_i_glide_lipo>  (69) 
-0.943103

>  <r_i_glide_hbond>  (69) 
-0.14473

>  <r_i_glide_metal>  (69) 
-0

>  <r_i_glide_rewards>  (69) 
-1.75666

>  <r_i_glide_evdw>  (69) 
-14.8476

>  <r_i_glide_ecoul>  (69) 
-1.96323

>  <r_i_glide_erotb>  (69) 
0

>  <r_i_glide_esite>  (69) 
0

>  <r_i_glide_emodel>  (69) 
-22.0737

>  <r_i_glide_energy>  (69) 
-16.8109

>  <r_i_glide_einternal>  (69) 
0

>  <r_i_glide_intrahb_reward>  (69) 
-0

>  <i_i_glide_confnum>  (69) 
1

>  <i_i_glide_posenum>  (69) 
19

>  <r_i_glide_eff_state_penalty>  (69) 
0

>  <ligand_id>  (69) 
23

>  <original_smiles>  (69) 
CC1=CCC2C3CC4OC4(C)C4C3=CCC12C4C

>  <smiles>  (69) 
[H]C1=C(C([H])([H])[H])C23C([H])([H])C([H])=C4C([H])(C([H])([H])C5([H])OC5(C([H])([H])[H])C4([H])C2([H])C([H])([H])[H])C3([H])C1([H])[H]

$$$$
23:0:1
     RDKit          3D

 40 44  0  0  1  0  0  0  0  0999 V2000
    4.4724   -4.4544    3.7000 C   0  0  0  0  0  0  0  0  0  0  0  0
    5.2268   -4.3711    2.3824 C   0  0  0  0  0  0  0  0  0  0  0  0
    6.0307   -5.3082    1.8620 C   0  0  0  0  0  0  0  0  0  0  0  0
    6.7275   -4.8436    0.5981 C   0  0  0  0  0  0  0  0  0  0  0  0
    6.5482   -3.3168    0.7320 C   0  0  1  0  0  0  0  0  0  0  0  0
    6.6862   -2.2859   -0.4365 C   0  0  1  0  0  0  0  0  0  0  0  0
    6.7683   -2.8406   -1.8809 C   0  0  0  0  0  0  0  0  0  0  0  0
    5.4613   -2.8494   -2.6450 C   0  0  2  0  0  0  0  0  0  0  0  0
    4.8780   -1.5503   -2.9002 O   0  0  0  0  0  0  0  0  0  0  0  0
    4.1924   -2.4135   -1.9881 C   0  0  1  0  0  0  0  0  0  0  0  0
    2.8517   -2.9093   -2.4904 C   0  0  0  0  0  0  0  0  0  0  0  0
    4.2379   -1.9641   -0.5332 C   0  0  2  0  0  0  0  0  0  0  0  0
    5.5641   -1.2718   -0.1935 C   0  0  0  0  0  0  0  0  0  0  0  0
    5.6147   -0.7395    1.0479 C   0  0  0  0  0  0  0  0  0  0  0  0
    5.2583   -1.7246    2.1662 C   0  0  0  0  0  0  0  0  0  0  0  0
    5.2055   -3.1359    1.5141 C   0  0  2  0  0  0  0  0  0  0  0  0
    4.0584   -3.1630    0.4464 C   0  0  1  0  0  0  0  0  0  0  0  0
    2.6331   -3.2105    1.0151 C   0  0  0  0  0  0  0  0  0  0  0  0
    3.4119   -4.2552    3.5640 H   0  0  0  0  0  0  0  0  0  0  0  0
    4.8674   -3.7179    4.3983 H   0  0  0  0  0  0  0  0  0  0  0  0
    4.5822   -5.4411    4.1530 H   0  0  0  0  0  0  0  0  0  0  0  0
    6.2043   -6.2872    2.2826 H   0  0  0  0  0  0  0  0  0  0  0  0
    7.7751   -5.1415    0.5763 H   0  0  0  0  0  0  0  0  0  0  0  0
    6.2062   -5.2528   -0.2691 H   0  0  0  0  0  0  0  0  0  0  0  0
    7.3361   -3.0402    1.4314 H   0  0  0  0  0  0  0  0  0  0  0  0
    7.6366   -1.7756   -0.2686 H   0  0  0  0  0  0  0  0  0  0  0  0
    7.4842   -2.2556   -2.4553 H   0  0  0  0  0  0  0  0  0  0  0  0
    7.1914   -3.8332   -1.8780 H   0  0  0  0  0  0  0  0  0  0  0  0
    5.4135   -3.5146   -3.5073 H   0  0  0  0  0  0  0  0  0  0  0  0
    2.5889   -3.8532   -2.0144 H   0  0  0  0  0  0  0  0  0  0  0  0
    2.8898   -3.0737   -3.5689 H   0  0  0  0  0  0  0  0  0  0  0  0
    2.0659   -2.1836   -2.3024 H   0  0  0  0  0  0  0  0  0  0  0  0
    3.4510   -1.2209   -0.3875 H   0  0  0  0  0  0  0  0  0  0  0  0
    6.5656   -0.3122    1.3135 H   0  0  0  0  0  0  0  0  0  0  0  0
    6.0243   -1.6807    2.9369 H   0  0  0  0  0  0  0  0  0  0  0  0
    4.3147   -1.4476    2.6328 H   0  0  0  0  0  0  0  0  0  0  0  0
    4.1769   -4.0818   -0.1278 H   0  0  0  0  0  0  0  0  0  0  0  0
    2.4216   -2.3742    1.6801 H   0  0  0  0  0  0  0  0  0  0  0  0
    2.4466   -4.1428    1.5460 H   0  0  0  0  0  0  0  0  0  0  0  0
    1.9141   -3.1618    0.1970 H   0  0  0  0  0  0  0  0  0  0  0  0
  1  2  1  0
  1 19  1  0
  1 20  1  0
  1 21  1  0
 16  2  1  1
  2  3  2  0
  3  4  1  0
  3 22  1  0
  4  5  1  0
  4 23  1  0
  4 24  1  0
  5 16  1  0
  5  6  1  0
  5 25  1  1
  6 13  1  0
  6  7  1  0
  6 26  1  1
  7  8  1  0
  7 27  1  0
  7 28  1  0
  8 10  1  0
  8  9  1  0
  8 29  1  6
  9 10  1  0
 10 11  1  6
 10 12  1  0
 11 30  1  0
 11 31  1  0
 11 32  1  0
 12 17  1  0
 12 13  1  0
 12 33  1  6
 13 14  2  0
 14 15  1  0
 14 34  1  0
 15 16  1  0
 15 35  1  0
 15 36  1  0
 16 17  1  0
 17 18  1  0
 17 37  1  6
 18 38  1  0
 18 39  1  0
 18 40  1  0
M  END
>  <i_m_ct_stereo_status>  (70) 
1

>  <s_m_source_file>  (70) 
/var/tmp/pbs.5076255.sched01/tmp7me73ahx/0ll6f151o.sdf

>  <i_m_source_file_index>  (70) 
29

>  <i_lp_mmshare_version>  (70) 
48012

>  <i_f3d_flags>  (70) 
1

>  <s_epik_input>  (70) 
W0NIM11DMT1bQ0hdW0NIMl1bQ0BIXShbQ0BAXTEyMylbQ0hdNEMoPVtDSF1bQ0gyXTIpW0NASF0oW0NAQEhdM1tDSDNdKVtDQF01KFtDSDNdKVtDQEBIXShPNSlbQ0gyXTQ=

>  <s_epik_cmdline>  (70) 
J2VwaWtfcHl0aG9uJywgJy1waHQnLCAnMi4wJywgJy1waCcsICc3LjAnLCAnLXRuJywgJzgnLCAnLW1hJywgJzIwMCcsICctaW1hZScsICc8aW5maWxlLm1hZT4nLCAnLW9tYWUnLCAnPG91dGZpbGUubWFlPic=

>  <r_lp_tautomer_probability>  (70) 
1

>  <r_epik_Ionization_Penalty>  (70) 
3.688e-11

>  <r_epik_Ionization_Penalty_Charging>  (70) 
0

>  <r_epik_Ionization_Penalty_Neutral>  (70) 
3.688e-11

>  <r_epik_State_Penalty>  (70) 
-0

>  <r_epik_Charging_Adjusted_Penalty>  (70) 
0

>  <i_epik_Tot_Q>  (70) 
0

>  <i_epik_Tot_abs_Q>  (70) 
0

>  <s_lp_Force_Field>  (70) 
OPLS3e

>  <r_lp_Energy>  (70) 
86.0634

>  <b_lp_Chiralities_Consistent>  (70) 
1

>  <s_lp_Variant>  (70) 
23:0-1

>  <s_i_glide_gridfile>  (70) 
pfpi4k_grid

>  <i_i_glide_lignum>  (70) 
29

>  <i_i_glide_rotatable_bonds>  (70) 
0

>  <r_i_docking_score>  (70) 
-3.72692

>  <r_i_glide_ligand_efficiency>  (70) 
-0.207051

>  <r_i_glide_ligand_efficiency_sa>  (70) 
-0.542628

>  <r_i_glide_ligand_efficiency_ln>  (70) 
-0.957987

>  <r_i_glide_gscore>  (70) 
-3.72692

>  <r_i_glide_lipo>  (70) 
-0.710235

>  <r_i_glide_hbond>  (70) 
0

>  <r_i_glide_metal>  (70) 
-0

>  <r_i_glide_rewards>  (70) 
-1.75666

>  <r_i_glide_evdw>  (70) 
-21.1495

>  <r_i_glide_ecoul>  (70) 
-1.35034

>  <r_i_glide_erotb>  (70) 
0

>  <r_i_glide_esite>  (70) 
0

>  <r_i_glide_emodel>  (70) 
-27.5856

>  <r_i_glide_energy>  (70) 
-22.4998

>  <r_i_glide_einternal>  (70) 
0

>  <r_i_glide_intrahb_reward>  (70) 
-0

>  <i_i_glide_confnum>  (70) 
2

>  <i_i_glide_posenum>  (70) 
38

>  <r_i_glide_eff_state_penalty>  (70) 
0

>  <ligand_id>  (70) 
23

>  <original_smiles>  (70) 
CC1=CCC2C3CC4OC4(C)C4C3=CCC12C4C

>  <smiles>  (70) 
[H]C1=C(C([H])([H])[H])C23C([H])([H])C([H])=C4C([H])(C([H])([H])C5([H])OC5(C([H])([H])[H])C4([H])C2([H])C([H])([H])[H])C3([H])C1([H])[H]

$$$$
23:0:2
     RDKit          3D

 40 44  0  0  1  0  0  0  0  0999 V2000
    3.0616   -6.4433    2.5656 C   0  0  0  0  0  0  0  0  0  0  0  0
    4.2944   -5.9364    1.8414 C   0  0  0  0  0  0  0  0  0  0  0  0
    5.3638   -6.6578    1.4740 C   0  0  0  0  0  0  0  0  0  0  0  0
    6.4708   -5.8031    0.8865 C   0  0  0  0  0  0  0  0  0  0  0  0
    6.0492   -4.4165    1.3999 C   0  0  1  0  0  0  0  0  0  0  0  0
    6.5445   -3.0537    0.7986 C   0  0  1  0  0  0  0  0  0  0  0  0
    7.3220   -3.0816   -0.5450 C   0  0  0  0  0  0  0  0  0  0  0  0
    6.4859   -2.7829   -1.7708 C   0  0  2  0  0  0  0  0  0  0  0  0
    5.8988   -1.4688   -1.8243 O   0  0  0  0  0  0  0  0  0  0  0  0
    5.0090   -2.5680   -1.6533 C   0  0  1  0  0  0  0  0  0  0  0  0
    4.0873   -2.8220   -2.8337 C   0  0  0  0  0  0  0  0  0  0  0  0
    4.3615   -2.6537   -0.2798 C   0  0  2  0  0  0  0  0  0  0  0  0
    5.3039   -2.1495    0.8194 C   0  0  0  0  0  0  0  0  0  0  0  0
    4.7417   -2.0773    2.0508 C   0  0  0  0  0  0  0  0  0  0  0  0
    4.0651   -3.3753    2.5076 C   0  0  0  0  0  0  0  0  0  0  0  0
    4.4911   -4.4780    1.4913 C   0  0  2  0  0  0  0  0  0  0  0  0
    3.9374   -4.1099    0.0720 C   0  0  1  0  0  0  0  0  0  0  0  0
    2.4319   -4.3116   -0.1244 C   0  0  0  0  0  0  0  0  0  0  0  0
    2.1488   -6.1834    2.0334 H   0  0  0  0  0  0  0  0  0  0  0  0
    3.0122   -6.0007    3.5607 H   0  0  0  0  0  0  0  0  0  0  0  0
    3.0958   -7.5271    2.6837 H   0  0  0  0  0  0  0  0  0  0  0  0
    5.4674   -7.7266    1.5928 H   0  0  0  0  0  0  0  0  0  0  0  0
    7.4567   -6.1013    1.2459 H   0  0  0  0  0  0  0  0  0  0  0  0
    6.4326   -5.8672   -0.1992 H   0  0  0  0  0  0  0  0  0  0  0  0
    6.4064   -4.4067    2.4311 H   0  0  0  0  0  0  0  0  0  0  0  0
    7.2442   -2.6395    1.5225 H   0  0  0  0  0  0  0  0  0  0  0  0
    8.1244   -2.3441   -0.5137 H   0  0  0  0  0  0  0  0  0  0  0  0
    7.8240   -4.0387   -0.6769 H   0  0  0  0  0  0  0  0  0  0  0  0
    6.9015   -3.1159   -2.7193 H   0  0  0  0  0  0  0  0  0  0  0  0
    3.7812   -3.8663   -2.8664 H   0  0  0  0  0  0  0  0  0  0  0  0
    4.6053   -2.6007   -3.7677 H   0  0  0  0  0  0  0  0  0  0  0  0
    3.1981   -2.1954   -2.7754 H   0  0  0  0  0  0  0  0  0  0  0  0
    3.4957   -1.9870   -0.2782 H   0  0  0  0  0  0  0  0  0  0  0  0
    5.4126   -1.7770    2.8403 H   0  0  0  0  0  0  0  0  0  0  0  0
    4.4034   -3.6217    3.5142 H   0  0  0  0  0  0  0  0  0  0  0  0
    2.9857   -3.2471    2.5552 H   0  0  0  0  0  0  0  0  0  0  0  0
    4.4158   -4.7807   -0.6439 H   0  0  0  0  0  0  0  0  0  0  0  0
    1.8545   -3.7442    0.6061 H   0  0  0  0  0  0  0  0  0  0  0  0
    2.1611   -5.3640   -0.0552 H   0  0  0  0  0  0  0  0  0  0  0  0
    2.1255   -3.9753   -1.1159 H   0  0  0  0  0  0  0  0  0  0  0  0
  1  2  1  0
  1 19  1  0
  1 20  1  0
  1 21  1  0
 16  2  1  1
  2  3  2  0
  3  4  1  0
  3 22  1  0
  4  5  1  0
  4 23  1  0
  4 24  1  0
  5 16  1  0
  5  6  1  0
  5 25  1  1
  6 13  1  0
  6  7  1  0
  6 26  1  1
  7  8  1  0
  7 27  1  0
  7 28  1  0
  8 10  1  0
  8  9  1  0
  8 29  1  6
  9 10  1  0
 10 11  1  6
 10 12  1  0
 11 30  1  0
 11 31  1  0
 11 32  1  0
 12 17  1  0
 12 13  1  0
 12 33  1  6
 13 14  2  0
 14 15  1  0
 14 34  1  0
 15 16  1  0
 15 35  1  0
 15 36  1  0
 16 17  1  0
 17 18  1  0
 17 37  1  6
 18 38  1  0
 18 39  1  0
 18 40  1  0
M  END
>  <i_m_ct_stereo_status>  (71) 
1

>  <s_m_source_file>  (71) 
/var/tmp/pbs.5076255.sched01/tmp7me73ahx/0ll6f151o.sdf

>  <i_m_source_file_index>  (71) 
29

>  <i_lp_mmshare_version>  (71) 
48012

>  <i_f3d_flags>  (71) 
1

>  <s_epik_input>  (71) 
W0NIM11DMT1bQ0hdW0NIMl1bQ0BIXShbQ0BAXTEyMylbQ0hdNEMoPVtDSF1bQ0gyXTIpW0NASF0oW0NAQEhdM1tDSDNdKVtDQF01KFtDSDNdKVtDQEBIXShPNSlbQ0gyXTQ=

>  <s_epik_cmdline>  (71) 
J2VwaWtfcHl0aG9uJywgJy1waHQnLCAnMi4wJywgJy1waCcsICc3LjAnLCAnLXRuJywgJzgnLCAnLW1hJywgJzIwMCcsICctaW1hZScsICc8aW5maWxlLm1hZT4nLCAnLW9tYWUnLCAnPG91dGZpbGUubWFlPic=

>  <r_lp_tautomer_probability>  (71) 
1

>  <r_epik_Ionization_Penalty>  (71) 
3.688e-11

>  <r_epik_Ionization_Penalty_Charging>  (71) 
0

>  <r_epik_Ionization_Penalty_Neutral>  (71) 
3.688e-11

>  <r_epik_State_Penalty>  (71) 
-0

>  <r_epik_Charging_Adjusted_Penalty>  (71) 
0

>  <i_epik_Tot_Q>  (71) 
0

>  <i_epik_Tot_abs_Q>  (71) 
0

>  <s_lp_Force_Field>  (71) 
OPLS3e

>  <r_lp_Energy>  (71) 
86.0634

>  <b_lp_Chiralities_Consistent>  (71) 
1

>  <s_lp_Variant>  (71) 
23:0-1

>  <s_i_glide_gridfile>  (71) 
pfpi4k_grid

>  <i_i_glide_lignum>  (71) 
29

>  <i_i_glide_rotatable_bonds>  (71) 
0

>  <r_i_docking_score>  (71) 
-3.63228

>  <r_i_glide_ligand_efficiency>  (71) 
-0.201793

>  <r_i_glide_ligand_efficiency_sa>  (71) 
-0.528848

>  <r_i_glide_ligand_efficiency_ln>  (71) 
-0.933659

>  <r_i_glide_gscore>  (71) 
-3.63228

>  <r_i_glide_lipo>  (71) 
-0.604041

>  <r_i_glide_hbond>  (71) 
-0.092271

>  <r_i_glide_metal>  (71) 
-0

>  <r_i_glide_rewards>  (71) 
-1.75666

>  <r_i_glide_evdw>  (71) 
-19.0602

>  <r_i_glide_ecoul>  (71) 
-1.50861

>  <r_i_glide_erotb>  (71) 
0

>  <r_i_glide_esite>  (71) 
0

>  <r_i_glide_emodel>  (71) 
-25.5409

>  <r_i_glide_energy>  (71) 
-20.5688

>  <r_i_glide_einternal>  (71) 
0

>  <r_i_glide_intrahb_reward>  (71) 
-0

>  <i_i_glide_confnum>  (71) 
1

>  <i_i_glide_posenum>  (71) 
7

>  <r_i_glide_eff_state_penalty>  (71) 
0

>  <ligand_id>  (71) 
23

>  <original_smiles>  (71) 
CC1=CCC2C3CC4OC4(C)C4C3=CCC12C4C

>  <smiles>  (71) 
[H]C1=C(C([H])([H])[H])C23C([H])([H])C([H])=C4C([H])(C([H])([H])C5([H])OC5(C([H])([H])[H])C4([H])C2([H])C([H])([H])[H])C3([H])C1([H])[H]

$$$$
24:0:0
     RDKit          3D

 65 69  0  0  1  0  0  0  0  0999 V2000
    7.1969   -4.5393    0.9153 C   0  0  0  0  0  0  0  0  0  0  0  0
    7.0007   -3.1657    1.2707 O   0  0  0  0  0  0  0  0  0  0  0  0
    5.8645   -2.8070    2.0097 C   0  0  2  0  0  0  0  0  0  0  0  0
    5.5530   -3.8579    2.9118 O   0  0  0  0  0  0  0  0  0  0  0  0
    4.3748   -3.6098    3.6155 C   0  0  2  0  0  0  0  0  0  0  0  0
    4.0835   -4.2242    4.9886 C   0  0  0  0  0  0  0  0  0  0  0  0
    2.8945   -3.4341    5.6250 C   0  0  0  0  0  0  0  0  0  0  0  0
    1.7425   -2.8569    4.6953 C   0  0  0  0  0  0  0  0  0  0  0  0
    0.5020   -3.8092    4.6836 C   0  0  0  0  0  0  0  0  0  0  0  0
    1.2093   -1.5665    5.3921 C   0  0  0  0  0  0  0  0  0  0  0  0
    2.2440   -2.5874    3.1942 C   0  0  1  0  0  0  0  0  0  0  0  0
    2.8872   -1.1734    2.8905 C   0  0  1  0  0  0  0  0  0  0  0  0
    3.5670   -0.5348    3.9767 O   0  0  0  0  0  0  0  0  0  0  0  0
    3.8212   -1.0851    1.6286 C   0  0  1  0  0  0  0  0  0  0  0  0
    4.6115    0.1040    1.6540 O   0  0  0  0  0  0  0  0  0  0  0  0
    4.5962   -2.3575    1.0681 C   0  0  2  0  0  0  0  0  0  0  0  0
    3.5720   -3.5286    1.1299 C   0  0  1  0  0  0  0  0  0  0  0  0
    4.0750   -4.7730    0.3288 C   0  0  1  0  0  0  0  0  0  0  0  0
    3.1315   -5.8086    0.0926 O   0  0  0  0  0  0  0  0  0  0  0  0
    4.5290   -4.4291   -1.1221 C   0  0  0  0  0  0  0  0  0  0  0  0
    5.4797   -3.2132   -1.3179 C   0  0  1  0  0  0  0  0  0  0  0  0
    5.3124   -2.6709   -2.7228 C   0  0  0  0  0  0  0  0  0  0  0  0
    4.5127   -1.6215   -2.7343 C   0  0  0  0  0  0  0  0  0  0  0  0
    4.0315   -0.8167   -3.9505 C   0  0  0  0  0  0  0  0  0  0  0  0
    4.0584   -1.2743   -1.3580 C   0  0  0  0  0  0  0  0  0  0  0  0
    5.0732   -2.0286   -0.4157 C   0  0  1  0  0  0  0  0  0  0  0  0
    6.1817   -1.1211   -0.3630 O   0  0  0  0  0  0  0  0  0  0  0  0
    3.1573   -3.7397    2.6582 C   0  0  1  0  0  0  0  0  0  0  0  0
    2.5085   -5.1529    2.7806 C   0  0  0  0  0  0  0  0  0  0  0  0
    8.1242   -4.6737    0.3689 H   0  0  0  0  0  0  0  0  0  0  0  0
    6.4912   -4.8703    0.1921 H   0  0  0  0  0  0  0  0  0  0  0  0
    7.1363   -5.2097    1.7616 H   0  0  0  0  0  0  0  0  0  0  0  0
    6.1782   -1.9361    2.6016 H   0  0  0  0  0  0  0  0  0  0  0  0
    4.5802   -2.6031    3.9537 H   0  0  0  0  0  0  0  0  0  0  0  0
    3.9305   -5.3005    4.9476 H   0  0  0  0  0  0  0  0  0  0  0  0
    4.9592   -4.0947    5.6347 H   0  0  0  0  0  0  0  0  0  0  0  0
    2.4744   -3.9977    6.4682 H   0  0  0  0  0  0  0  0  0  0  0  0
    3.3790   -2.5879    6.0992 H   0  0  0  0  0  0  0  0  0  0  0  0
    0.2207   -4.1349    3.6804 H   0  0  0  0  0  0  0  0  0  0  0  0
   -0.4007   -3.3557    5.0838 H   0  0  0  0  0  0  0  0  0  0  0  0
    0.6638   -4.7174    5.2697 H   0  0  0  0  0  0  0  0  0  0  0  0
    0.6043   -0.9628    4.7230 H   0  0  0  0  0  0  0  0  0  0  0  0
    2.0023   -0.9287    5.7768 H   0  0  0  0  0  0  0  0  0  0  0  0
    0.6141   -1.7992    6.2684 H   0  0  0  0  0  0  0  0  0  0  0  0
    1.3681   -2.6120    2.5435 H   0  0  0  0  0  0  0  0  0  0  0  0
    2.0540   -0.4925    2.7147 H   0  0  0  0  0  0  0  0  0  0  0  0
    3.7622    0.3287    3.7421 H   0  0  0  0  0  0  0  0  0  0  0  0
    3.0735   -0.8490    0.8696 H   0  0  0  0  0  0  0  0  0  0  0  0
    4.0548    0.8410    1.7221 H   0  0  0  0  0  0  0  0  0  0  0  0
    2.6700   -3.1946    0.5901 H   0  0  0  0  0  0  0  0  0  0  0  0
    4.8255   -5.2642    0.9419 H   0  0  0  0  0  0  0  0  0  0  0  0
    3.0234   -5.9232   -0.8223 H   0  0  0  0  0  0  0  0  0  0  0  0
    5.0057   -5.2824   -1.5923 H   0  0  0  0  0  0  0  0  0  0  0  0
    3.6407   -4.2374   -1.7045 H   0  0  0  0  0  0  0  0  0  0  0  0
    6.5311   -3.4602   -1.2043 H   0  0  0  0  0  0  0  0  0  0  0  0
    5.7980   -3.1356   -3.5625 H   0  0  0  0  0  0  0  0  0  0  0  0
    4.3136    0.2271   -3.8492 H   0  0  0  0  0  0  0  0  0  0  0  0
    2.9484   -0.8703   -4.0037 H   0  0  0  0  0  0  0  0  0  0  0  0
    4.4470   -1.2101   -4.8682 H   0  0  0  0  0  0  0  0  0  0  0  0
    4.0944   -0.2195   -1.1771 H   0  0  0  0  0  0  0  0  0  0  0  0
    3.0382   -1.6440   -1.2290 H   0  0  0  0  0  0  0  0  0  0  0  0
    5.9306   -0.3833    0.1622 H   0  0  0  0  0  0  0  0  0  0  0  0
    1.6804   -5.2656    2.0824 H   0  0  0  0  0  0  0  0  0  0  0  0
    2.1281   -5.4136    3.7570 H   0  0  0  0  0  0  0  0  0  0  0  0
    3.2390   -5.9398    2.5916 H   0  0  0  0  0  0  0  0  0  0  0  0
  1  2  1  0
  1 30  1  0
  1 31  1  0
  1 32  1  0
  2  3  1  0
  3 16  1  0
  3  4  1  0
  3 33  1  1
  4  5  1  0
  5 28  1  0
  5  6  1  0
  5 34  1  1
  6  7  1  0
  6 35  1  0
  6 36  1  0
  7  8  1  0
  7 37  1  0
  7 38  1  0
  8  9  1  0
  8 10  1  0
  8 11  1  0
  9 39  1  0
  9 40  1  0
  9 41  1  0
 10 42  1  0
 10 43  1  0
 10 44  1  0
 11 28  1  0
 11 12  1  0
 11 45  1  6
 12 13  1  0
 12 14  1  0
 12 46  1  6
 13 47  1  0
 14 15  1  0
 14 16  1  0
 14 48  1  6
 15 49  1  0
 16 26  1  6
 16 17  1  0
 17 18  1  0
 17 28  1  0
 17 50  1  6
 18 19  1  0
 18 20  1  0
 18 51  1  1
 19 52  1  0
 20 21  1  0
 20 53  1  0
 20 54  1  0
 21 26  1  0
 21 22  1  0
 21 55  1  1
 22 23  2  0
 22 56  1  0
 23 24  1  0
 23 25  1  0
 24 57  1  0
 24 58  1  0
 24 59  1  0
 25 26  1  0
 25 60  1  0
 25 61  1  0
 26 27  1  1
 27 62  1  0
 28 29  1  6
 29 63  1  0
 29 64  1  0
 29 65  1  0
M  END
>  <i_m_ct_stereo_status>  (72) 
1

>  <s_m_source_file>  (72) 
/var/tmp/pbs.5076255.sched01/tmp7me73ahx/0ll6f151o.sdf

>  <i_m_source_file_index>  (72) 
30

>  <i_lp_mmshare_version>  (72) 
48012

>  <i_f3d_flags>  (72) 
0

>  <s_epik_input>  (72) 
W09IXVtDQEBIXTFbQ0BIXShbT0hdKVtDQEBIXTJDKFtDSDNdKShbQ0gzXSlbQ0gyXVtDSDJdW0NAQEhdKE9bQ0BIXTNPW0NIM10pW0NAXTIoW0NIM10pW0NAQEhdKFtDQEBdMTM0KVtDQEBIXShbT0hdKVtDSDJdW0NAQEhdNVtDQEBdNChbT0hdKVtDSDJdQyg9W0NIXTUpW0NIM10=

>  <s_epik_cmdline>  (72) 
J2VwaWtfcHl0aG9uJywgJy1waHQnLCAnMi4wJywgJy1waCcsICc3LjAnLCAnLXRuJywgJzgnLCAnLW1hJywgJzIwMCcsICctaW1hZScsICc8aW5maWxlLm1hZT4nLCAnLW9tYWUnLCAnPG91dGZpbGUubWFlPic=

>  <r_lp_tautomer_probability>  (72) 
1

>  <r_epik_Ionization_Penalty>  (72) 
6.72415e-07

>  <r_epik_Ionization_Penalty_Charging>  (72) 
0

>  <r_epik_Ionization_Penalty_Neutral>  (72) 
6.72415e-07

>  <r_epik_State_Penalty>  (72) 
-0

>  <r_epik_Charging_Adjusted_Penalty>  (72) 
0

>  <i_epik_Tot_Q>  (72) 
0

>  <i_epik_Tot_abs_Q>  (72) 
0

>  <s_epik_Chemistry_Notes>  (72) 
This compound contains an acetal/aminal-like group ( X-CH(R)-Y where X, Y are N, S, or O) that may be acid/base labile, releasing an aldehyde.

>  <s_lp_Force_Field>  (72) 
OPLS3e

>  <r_lp_Energy>  (72) 
99.699

>  <b_lp_Chiralities_Consistent>  (72) 
1

>  <s_lp_Variant>  (72) 
24:0-1

>  <s_i_glide_gridfile>  (72) 
pfpi4k_grid

>  <i_i_glide_lignum>  (72) 
30

>  <i_i_glide_rotatable_bonds>  (72) 
5

>  <r_i_docking_score>  (72) 
-4.47045

>  <r_i_glide_ligand_efficiency>  (72) 
-0.154153

>  <r_i_glide_ligand_efficiency_sa>  (72) 
-0.473608

>  <r_i_glide_ligand_efficiency_ln>  (72) 
-1.02362

>  <r_i_glide_gscore>  (72) 
-4.47045

>  <r_i_glide_lipo>  (72) 
-0.591985

>  <r_i_glide_hbond>  (72) 
-0.32

>  <r_i_glide_metal>  (72) 
-0

>  <r_i_glide_rewards>  (72) 
-1.18277

>  <r_i_glide_evdw>  (72) 
-19.6784

>  <r_i_glide_ecoul>  (72) 
-9.27851

>  <r_i_glide_erotb>  (72) 
0

>  <r_i_glide_esite>  (72) 
0

>  <r_i_glide_emodel>  (72) 
-36.1013

>  <r_i_glide_energy>  (72) 
-28.9569

>  <r_i_glide_einternal>  (72) 
6.39679

>  <r_i_glide_intrahb_reward>  (72) 
-0.5

>  <i_i_glide_confnum>  (72) 
1

>  <i_i_glide_posenum>  (72) 
7

>  <r_i_glide_eff_state_penalty>  (72) 
0

>  <ligand_id>  (72) 
24

>  <original_smiles>  (72) 
COC1OC2CCC(C)(C)C3C(O)C(O)C14C(C(O)CC1C=C(C)CC14O)C23C

>  <smiles>  (72) 
[H]OC1([H])C([H])(O[H])C23C([H])(OC([H])([H])[H])OC4([H])C([H])([H])C([H])([H])C(C([H])([H])[H])(C([H])([H])[H])C1([H])C4(C([H])([H])[H])C2([H])C([H])(O[H])C([H])([H])C1([H])C([H])=C(C([H])([H])[H])C([H])([H])C13O[H]

$$$$
24:0:1
     RDKit          3D

 65 69  0  0  1  0  0  0  0  0999 V2000
    8.1066   -4.4511    1.2035 C   0  0  0  0  0  0  0  0  0  0  0  0
    6.9725   -3.7061    0.7888 O   0  0  0  0  0  0  0  0  0  0  0  0
    6.0954   -3.2985    1.8018 C   0  0  2  0  0  0  0  0  0  0  0  0
    5.7358   -4.4539    2.5505 O   0  0  0  0  0  0  0  0  0  0  0  0
    4.7688   -4.1515    3.5203 C   0  0  2  0  0  0  0  0  0  0  0  0
    4.5995   -4.9142    4.8285 C   0  0  0  0  0  0  0  0  0  0  0  0
    3.7344   -4.0325    5.7812 C   0  0  0  0  0  0  0  0  0  0  0  0
    2.5670   -3.1458    5.1714 C   0  0  0  0  0  0  0  0  0  0  0  0
    1.1754   -3.8553    5.2727 C   0  0  0  0  0  0  0  0  0  0  0  0
    2.3928   -1.9294    6.1273 C   0  0  0  0  0  0  0  0  0  0  0  0
    2.8508   -2.7169    3.6591 C   0  0  1  0  0  0  0  0  0  0  0  0
    3.6983   -1.4012    3.4516 C   0  0  1  0  0  0  0  0  0  0  0  0
    4.6505   -1.0979    4.4499 O   0  0  0  0  0  0  0  0  0  0  0  0
    4.3938   -1.2591    2.0623 C   0  0  1  0  0  0  0  0  0  0  0  0
    5.4336   -0.3074    2.1230 O   0  0  0  0  0  0  0  0  0  0  0  0
    4.8124   -2.5253    1.2155 C   0  0  2  0  0  0  0  0  0  0  0  0
    3.6239   -3.5007    1.2870 C   0  0  1  0  0  0  0  0  0  0  0  0
    3.8417   -4.6344    0.2296 C   0  0  1  0  0  0  0  0  0  0  0  0
    2.6809   -5.4250    0.0807 O   0  0  0  0  0  0  0  0  0  0  0  0
    4.0576   -4.0758   -1.1867 C   0  0  0  0  0  0  0  0  0  0  0  0
    5.1561   -3.0547   -1.3795 C   0  0  1  0  0  0  0  0  0  0  0  0
    4.8631   -2.2956   -2.6459 C   0  0  0  0  0  0  0  0  0  0  0  0
    4.3052   -1.1109   -2.3811 C   0  0  0  0  0  0  0  0  0  0  0  0
    3.7922   -0.0913   -3.3576 C   0  0  0  0  0  0  0  0  0  0  0  0
    4.1538   -0.9362   -0.8885 C   0  0  0  0  0  0  0  0  0  0  0  0
    5.1151   -1.9863   -0.2642 C   0  0  1  0  0  0  0  0  0  0  0  0
    6.3894   -1.3730   -0.2851 O   0  0  0  0  0  0  0  0  0  0  0  0
    3.4313   -3.8959    2.8145 C   0  0  1  0  0  0  0  0  0  0  0  0
    2.5342   -5.1704    2.8585 C   0  0  0  0  0  0  0  0  0  0  0  0
    8.7102   -4.7226    0.3395 H   0  0  0  0  0  0  0  0  0  0  0  0
    7.8324   -5.3892    1.6922 H   0  0  0  0  0  0  0  0  0  0  0  0
    8.7591   -3.8946    1.8751 H   0  0  0  0  0  0  0  0  0  0  0  0
    6.6218   -2.5965    2.4298 H   0  0  0  0  0  0  0  0  0  0  0  0
    5.2293   -3.2724    3.9378 H   0  0  0  0  0  0  0  0  0  0  0  0
    4.2075   -5.9162    4.6803 H   0  0  0  0  0  0  0  0  0  0  0  0
    5.5758   -5.0675    5.2850 H   0  0  0  0  0  0  0  0  0  0  0  0
    3.3336   -4.6753    6.5620 H   0  0  0  0  0  0  0  0  0  0  0  0
    4.4335   -3.3789    6.2991 H   0  0  0  0  0  0  0  0  0  0  0  0
    0.6733   -3.9398    4.3107 H   0  0  0  0  0  0  0  0  0  0  0  0
    0.4609   -3.3233    5.8998 H   0  0  0  0  0  0  0  0  0  0  0  0
    1.2515   -4.8571    5.6906 H   0  0  0  0  0  0  0  0  0  0  0  0
    1.7944   -1.1339    5.6739 H   0  0  0  0  0  0  0  0  0  0  0  0
    3.3468   -1.4933    6.4317 H   0  0  0  0  0  0  0  0  0  0  0  0
    1.9179   -2.2216    7.0680 H   0  0  0  0  0  0  0  0  0  0  0  0
    1.8892   -2.4677    3.2085 H   0  0  0  0  0  0  0  0  0  0  0  0
    2.9960   -0.5716    3.5286 H   0  0  0  0  0  0  0  0  0  0  0  0
    5.0130   -0.2441    4.2182 H   0  0  0  0  0  0  0  0  0  0  0  0
    3.6095   -0.7662    1.5000 H   0  0  0  0  0  0  0  0  0  0  0  0
    5.8352   -0.2771    1.2591 H   0  0  0  0  0  0  0  0  0  0  0  0
    2.7201   -2.9839    0.9699 H   0  0  0  0  0  0  0  0  0  0  0  0
    4.6858   -5.2762    0.4744 H   0  0  0  0  0  0  0  0  0  0  0  0
    2.7422   -5.8323   -0.7796 H   0  0  0  0  0  0  0  0  0  0  0  0
    4.4108   -4.8708   -1.8261 H   0  0  0  0  0  0  0  0  0  0  0  0
    3.1018   -3.6911   -1.5630 H   0  0  0  0  0  0  0  0  0  0  0  0
    6.1128   -3.5670   -1.4889 H   0  0  0  0  0  0  0  0  0  0  0  0
    5.0578   -2.6946   -3.6300 H   0  0  0  0  0  0  0  0  0  0  0  0
    4.2782    0.8693   -3.1767 H   0  0  0  0  0  0  0  0  0  0  0  0
    2.7169    0.0530   -3.2163 H   0  0  0  0  0  0  0  0  0  0  0  0
    3.9666   -0.3864   -4.3948 H   0  0  0  0  0  0  0  0  0  0  0  0
    4.3833    0.0837   -0.5842 H   0  0  0  0  0  0  0  0  0  0  0  0
    3.1071   -1.1548   -0.6592 H   0  0  0  0  0  0  0  0  0  0  0  0
    6.9943   -2.0315    0.0453 H   0  0  0  0  0  0  0  0  0  0  0  0
    1.5972   -5.0123    2.3249 H   0  0  0  0  0  0  0  0  0  0  0  0
    2.2735   -5.5299    3.8462 H   0  0  0  0  0  0  0  0  0  0  0  0
    3.0590   -6.0210    2.4176 H   0  0  0  0  0  0  0  0  0  0  0  0
  1  2  1  0
  1 30  1  0
  1 31  1  0
  1 32  1  0
  2  3  1  0
  3 16  1  0
  3  4  1  0
  3 33  1  1
  4  5  1  0
  5 28  1  0
  5  6  1  0
  5 34  1  1
  6  7  1  0
  6 35  1  0
  6 36  1  0
  7  8  1  0
  7 37  1  0
  7 38  1  0
  8  9  1  0
  8 10  1  0
  8 11  1  0
  9 39  1  0
  9 40  1  0
  9 41  1  0
 10 42  1  0
 10 43  1  0
 10 44  1  0
 11 28  1  0
 11 12  1  0
 11 45  1  6
 12 13  1  0
 12 14  1  0
 12 46  1  6
 13 47  1  0
 14 15  1  0
 14 16  1  0
 14 48  1  6
 15 49  1  0
 16 26  1  6
 16 17  1  0
 17 18  1  0
 17 28  1  0
 17 50  1  6
 18 19  1  0
 18 20  1  0
 18 51  1  1
 19 52  1  0
 20 21  1  0
 20 53  1  0
 20 54  1  0
 21 26  1  0
 21 22  1  0
 21 55  1  6
 22 23  2  0
 22 56  1  0
 23 24  1  0
 23 25  1  0
 24 57  1  0
 24 58  1  0
 24 59  1  0
 25 26  1  0
 25 60  1  0
 25 61  1  0
 26 27  1  1
 27 62  1  0
 28 29  1  6
 29 63  1  0
 29 64  1  0
 29 65  1  0
M  END
>  <i_m_ct_stereo_status>  (73) 
1

>  <s_m_source_file>  (73) 
/var/tmp/pbs.5076255.sched01/tmp7me73ahx/0ll6f151o.sdf

>  <i_m_source_file_index>  (73) 
30

>  <i_lp_mmshare_version>  (73) 
48012

>  <i_f3d_flags>  (73) 
0

>  <s_epik_input>  (73) 
W09IXVtDQEBIXTFbQ0BIXShbT0hdKVtDQEBIXTJDKFtDSDNdKShbQ0gzXSlbQ0gyXVtDSDJdW0NAQEhdKE9bQ0BIXTNPW0NIM10pW0NAXTIoW0NIM10pW0NAQEhdKFtDQEBdMTM0KVtDQEBIXShbT0hdKVtDSDJdW0NAQEhdNVtDQEBdNChbT0hdKVtDSDJdQyg9W0NIXTUpW0NIM10=

>  <s_epik_cmdline>  (73) 
J2VwaWtfcHl0aG9uJywgJy1waHQnLCAnMi4wJywgJy1waCcsICc3LjAnLCAnLXRuJywgJzgnLCAnLW1hJywgJzIwMCcsICctaW1hZScsICc8aW5maWxlLm1hZT4nLCAnLW9tYWUnLCAnPG91dGZpbGUubWFlPic=

>  <r_lp_tautomer_probability>  (73) 
1

>  <r_epik_Ionization_Penalty>  (73) 
6.72415e-07

>  <r_epik_Ionization_Penalty_Charging>  (73) 
0

>  <r_epik_Ionization_Penalty_Neutral>  (73) 
6.72415e-07

>  <r_epik_State_Penalty>  (73) 
-0

>  <r_epik_Charging_Adjusted_Penalty>  (73) 
0

>  <i_epik_Tot_Q>  (73) 
0

>  <i_epik_Tot_abs_Q>  (73) 
0

>  <s_epik_Chemistry_Notes>  (73) 
This compound contains an acetal/aminal-like group ( X-CH(R)-Y where X, Y are N, S, or O) that may be acid/base labile, releasing an aldehyde.

>  <s_lp_Force_Field>  (73) 
OPLS3e

>  <r_lp_Energy>  (73) 
99.699

>  <b_lp_Chiralities_Consistent>  (73) 
1

>  <s_lp_Variant>  (73) 
24:0-1

>  <s_i_glide_gridfile>  (73) 
pfpi4k_grid

>  <i_i_glide_lignum>  (73) 
30

>  <i_i_glide_rotatable_bonds>  (73) 
5

>  <r_i_docking_score>  (73) 
-3.95975

>  <r_i_glide_ligand_efficiency>  (73) 
-0.136543

>  <r_i_glide_ligand_efficiency_sa>  (73) 
-0.419504

>  <r_i_glide_ligand_efficiency_ln>  (73) 
-0.906683

>  <r_i_glide_gscore>  (73) 
-3.95975

>  <r_i_glide_lipo>  (73) 
-0.507205

>  <r_i_glide_hbond>  (73) 
-0.31118

>  <r_i_glide_metal>  (73) 
-0

>  <r_i_glide_rewards>  (73) 
-1.19943

>  <r_i_glide_evdw>  (73) 
-18.8889

>  <r_i_glide_ecoul>  (73) 
-6.64992

>  <r_i_glide_erotb>  (73) 
0

>  <r_i_glide_esite>  (73) 
0

>  <r_i_glide_emodel>  (73) 
-35.5944

>  <r_i_glide_energy>  (73) 
-25.5388

>  <r_i_glide_einternal>  (73) 
2.52564

>  <r_i_glide_intrahb_reward>  (73) 
-0.5

>  <i_i_glide_confnum>  (73) 
1

>  <i_i_glide_posenum>  (73) 
25

>  <r_i_glide_eff_state_penalty>  (73) 
0

>  <ligand_id>  (73) 
24

>  <original_smiles>  (73) 
COC1OC2CCC(C)(C)C3C(O)C(O)C14C(C(O)CC1C=C(C)CC14O)C23C

>  <smiles>  (73) 
[H]OC1([H])C([H])(O[H])C23C([H])(OC([H])([H])[H])OC4([H])C([H])([H])C([H])([H])C(C([H])([H])[H])(C([H])([H])[H])C1([H])C4(C([H])([H])[H])C2([H])C([H])(O[H])C([H])([H])C1([H])C([H])=C(C([H])([H])[H])C([H])([H])C13O[H]

$$$$
24:0:2
     RDKit          3D

 65 69  0  0  1  0  0  0  0  0999 V2000
    6.1513   -4.9753    1.9475 C   0  0  0  0  0  0  0  0  0  0  0  0
    6.2697   -3.5545    1.8558 O   0  0  0  0  0  0  0  0  0  0  0  0
    5.2638   -2.7413    2.4093 C   0  0  2  0  0  0  0  0  0  0  0  0
    4.7337   -3.3829    3.5610 O   0  0  0  0  0  0  0  0  0  0  0  0
    3.6462   -2.6828    4.0925 C   0  0  2  0  0  0  0  0  0  0  0  0
    3.2288   -2.7894    5.5614 C   0  0  0  0  0  0  0  0  0  0  0  0
    2.2770   -1.5892    5.8761 C   0  0  0  0  0  0  0  0  0  0  0  0
    1.2872   -1.0562    4.7544 C   0  0  0  0  0  0  0  0  0  0  0  0
   -0.1507   -1.6508    4.9354 C   0  0  0  0  0  0  0  0  0  0  0  0
    1.0885    0.4674    5.0276 C   0  0  0  0  0  0  0  0  0  0  0  0
    1.8210   -1.3565    3.2742 C   0  0  1  0  0  0  0  0  0  0  0  0
    2.7879   -0.2749    2.6230 C   0  0  1  0  0  0  0  0  0  0  0  0
    3.6010    0.4593    3.5286 O   0  0  0  0  0  0  0  0  0  0  0  0
    3.6974   -0.7735    1.4435 C   0  0  1  0  0  0  0  0  0  0  0  0
    4.7530    0.1407    1.2161 O   0  0  0  0  0  0  0  0  0  0  0  0
    4.1330   -2.3036    1.3156 C   0  0  2  0  0  0  0  0  0  0  0  0
    2.8515   -3.1326    1.6381 C   0  0  1  0  0  0  0  0  0  0  0  0
    3.0139   -4.6369    1.2430 C   0  0  1  0  0  0  0  0  0  0  0  0
    1.9147   -5.4836    1.2508 O   0  0  0  0  0  0  0  0  0  0  0  0
    3.5330   -4.8363   -0.2137 C   0  0  0  0  0  0  0  0  0  0  0  0
    4.7534   -3.9858   -0.6922 C   0  0  1  0  0  0  0  0  0  0  0  0
    4.7207   -3.8462   -2.1897 C   0  0  0  0  0  0  0  0  0  0  0  0
    4.2068   -2.6753   -2.5562 C   0  0  0  0  0  0  0  0  0  0  0  0
    3.9148   -2.1857   -3.9589 C   0  0  0  0  0  0  0  0  0  0  0  0
    3.8668   -1.8458   -1.3518 C   0  0  0  0  0  0  0  0  0  0  0  0
    4.6708   -2.5227   -0.1789 C   0  0  1  0  0  0  0  0  0  0  0  0
    5.9869   -1.9886   -0.3116 O   0  0  0  0  0  0  0  0  0  0  0  0
    2.4268   -2.7958    3.1398 C   0  0  1  0  0  0  0  0  0  0  0  0
    1.4517   -3.9199    3.6111 C   0  0  0  0  0  0  0  0  0  0  0  0
    6.9869   -5.4863    1.4997 H   0  0  0  0  0  0  0  0  0  0  0  0
    5.3839   -5.3591    1.3147 H   0  0  0  0  0  0  0  0  0  0  0  0
    5.9148   -5.3437    2.9281 H   0  0  0  0  0  0  0  0  0  0  0  0
    5.7928   -1.8411    2.7589 H   0  0  0  0  0  0  0  0  0  0  0  0
    4.0932   -1.6964    4.1430 H   0  0  0  0  0  0  0  0  0  0  0  0
    2.8219   -3.7654    5.8165 H   0  0  0  0  0  0  0  0  0  0  0  0
    4.1169   -2.6879    6.1962 H   0  0  0  0  0  0  0  0  0  0  0  0
    1.7395   -1.7752    6.8178 H   0  0  0  0  0  0  0  0  0  0  0  0
    2.9541   -0.7842    6.1209 H   0  0  0  0  0  0  0  0  0  0  0  0
   -0.5130   -2.1764    4.0505 H   0  0  0  0  0  0  0  0  0  0  0  0
   -0.9107   -0.9008    5.1376 H   0  0  0  0  0  0  0  0  0  0  0  0
   -0.2052   -2.3619    5.7622 H   0  0  0  0  0  0  0  0  0  0  0  0
    0.6438    0.9821    4.1816 H   0  0  0  0  0  0  0  0  0  0  0  0
    2.0176    0.9868    5.2641 H   0  0  0  0  0  0  0  0  0  0  0  0
    0.4654    0.6487    5.8964 H   0  0  0  0  0  0  0  0  0  0  0  0
    0.9615   -1.3576    2.6036 H   0  0  0  0  0  0  0  0  0  0  0  0
    2.1383    0.4981    2.2114 H   0  0  0  0  0  0  0  0  0  0  0  0
    3.9459    1.2151    3.0782 H   0  0  0  0  0  0  0  0  0  0  0  0
    3.0244   -0.6027    0.6056 H   0  0  0  0  0  0  0  0  0  0  0  0
    4.3929    0.9811    0.9969 H   0  0  0  0  0  0  0  0  0  0  0  0
    2.0651   -2.7653    0.9758 H   0  0  0  0  0  0  0  0  0  0  0  0
    3.6121   -5.0917    2.0382 H   0  0  0  0  0  0  0  0  0  0  0  0
    2.2479   -6.3694    1.2144 H   0  0  0  0  0  0  0  0  0  0  0  0
    3.7876   -5.8830   -0.3841 H   0  0  0  0  0  0  0  0  0  0  0  0
    2.7088   -4.6272   -0.8735 H   0  0  0  0  0  0  0  0  0  0  0  0
    5.7203   -4.4208   -0.4889 H   0  0  0  0  0  0  0  0  0  0  0  0
    5.0579   -4.6373   -2.8479 H   0  0  0  0  0  0  0  0  0  0  0  0
    4.4517   -1.2584   -4.1503 H   0  0  0  0  0  0  0  0  0  0  0  0
    2.8474   -1.9926   -4.0633 H   0  0  0  0  0  0  0  0  0  0  0  0
    4.2016   -2.9241   -4.7023 H   0  0  0  0  0  0  0  0  0  0  0  0
    4.1283   -0.8020   -1.4836 H   0  0  0  0  0  0  0  0  0  0  0  0
    2.7925   -1.9374   -1.1901 H   0  0  0  0  0  0  0  0  0  0  0  0
    6.5082   -2.3609    0.3843 H   0  0  0  0  0  0  0  0  0  0  0  0
    0.6217   -4.0271    2.9288 H   0  0  0  0  0  0  0  0  0  0  0  0
    1.0329   -3.7875    4.5966 H   0  0  0  0  0  0  0  0  0  0  0  0
    1.9710   -4.8746    3.6969 H   0  0  0  0  0  0  0  0  0  0  0  0
  1  2  1  0
  1 30  1  0
  1 31  1  0
  1 32  1  0
  2  3  1  0
  3 16  1  0
  3  4  1  0
  3 33  1  1
  4  5  1  0
  5 28  1  0
  5  6  1  0
  5 34  1  1
  6  7  1  0
  6 35  1  0
  6 36  1  0
  7  8  1  0
  7 37  1  0
  7 38  1  0
  8  9  1  0
  8 10  1  0
  8 11  1  0
  9 39  1  0
  9 40  1  0
  9 41  1  0
 10 42  1  0
 10 43  1  0
 10 44  1  0
 11 28  1  0
 11 12  1  0
 11 45  1  6
 12 13  1  0
 12 14  1  0
 12 46  1  6
 13 47  1  0
 14 15  1  0
 14 16  1  0
 14 48  1  6
 15 49  1  0
 16 26  1  6
 16 17  1  0
 17 18  1  0
 17 28  1  0
 17 50  1  6
 18 19  1  0
 18 20  1  0
 18 51  1  1
 19 52  1  0
 20 21  1  0
 20 53  1  0
 20 54  1  0
 21 26  1  0
 21 22  1  0
 21 55  1  6
 22 23  2  0
 22 56  1  0
 23 24  1  0
 23 25  1  0
 24 57  1  0
 24 58  1  0
 24 59  1  0
 25 26  1  0
 25 60  1  0
 25 61  1  0
 26 27  1  1
 27 62  1  0
 28 29  1  1
 29 63  1  0
 29 64  1  0
 29 65  1  0
M  END
>  <i_m_ct_stereo_status>  (74) 
1

>  <s_m_source_file>  (74) 
/var/tmp/pbs.5076255.sched01/tmp7me73ahx/0ll6f151o.sdf

>  <i_m_source_file_index>  (74) 
30

>  <i_lp_mmshare_version>  (74) 
48012

>  <i_f3d_flags>  (74) 
0

>  <s_epik_input>  (74) 
W09IXVtDQEBIXTFbQ0BIXShbT0hdKVtDQEBIXTJDKFtDSDNdKShbQ0gzXSlbQ0gyXVtDSDJdW0NAQEhdKE9bQ0BIXTNPW0NIM10pW0NAXTIoW0NIM10pW0NAQEhdKFtDQEBdMTM0KVtDQEBIXShbT0hdKVtDSDJdW0NAQEhdNVtDQEBdNChbT0hdKVtDSDJdQyg9W0NIXTUpW0NIM10=

>  <s_epik_cmdline>  (74) 
J2VwaWtfcHl0aG9uJywgJy1waHQnLCAnMi4wJywgJy1waCcsICc3LjAnLCAnLXRuJywgJzgnLCAnLW1hJywgJzIwMCcsICctaW1hZScsICc8aW5maWxlLm1hZT4nLCAnLW9tYWUnLCAnPG91dGZpbGUubWFlPic=

>  <r_lp_tautomer_probability>  (74) 
1

>  <r_epik_Ionization_Penalty>  (74) 
6.72415e-07

>  <r_epik_Ionization_Penalty_Charging>  (74) 
0

>  <r_epik_Ionization_Penalty_Neutral>  (74) 
6.72415e-07

>  <r_epik_State_Penalty>  (74) 
-0

>  <r_epik_Charging_Adjusted_Penalty>  (74) 
0

>  <i_epik_Tot_Q>  (74) 
0

>  <i_epik_Tot_abs_Q>  (74) 
0

>  <s_epik_Chemistry_Notes>  (74) 
This compound contains an acetal/aminal-like group ( X-CH(R)-Y where X, Y are N, S, or O) that may be acid/base labile, releasing an aldehyde.

>  <s_lp_Force_Field>  (74) 
OPLS3e

>  <r_lp_Energy>  (74) 
99.699

>  <b_lp_Chiralities_Consistent>  (74) 
1

>  <s_lp_Variant>  (74) 
24:0-1

>  <s_i_glide_gridfile>  (74) 
pfpi4k_grid

>  <i_i_glide_lignum>  (74) 
30

>  <i_i_glide_rotatable_bonds>  (74) 
5

>  <r_i_docking_score>  (74) 
-3.35134

>  <r_i_glide_ligand_efficiency>  (74) 
-0.115563

>  <r_i_glide_ligand_efficiency_sa>  (74) 
-0.355048

>  <r_i_glide_ligand_efficiency_ln>  (74) 
-0.767372

>  <r_i_glide_gscore>  (74) 
-3.35134

>  <r_i_glide_lipo>  (74) 
-0.139126

>  <r_i_glide_hbond>  (74) 
-0.0548711

>  <r_i_glide_metal>  (74) 
-0

>  <r_i_glide_rewards>  (74) 
-1.19177

>  <r_i_glide_evdw>  (74) 
-21.1954

>  <r_i_glide_ecoul>  (74) 
-6.03866

>  <r_i_glide_erotb>  (74) 
0

>  <r_i_glide_esite>  (74) 
0

>  <r_i_glide_emodel>  (74) 
-34.0193

>  <r_i_glide_energy>  (74) 
-27.2341

>  <r_i_glide_einternal>  (74) 
5.48883

>  <r_i_glide_intrahb_reward>  (74) 
-0.5

>  <i_i_glide_confnum>  (74) 
1

>  <i_i_glide_posenum>  (74) 
19

>  <r_i_glide_eff_state_penalty>  (74) 
0

>  <ligand_id>  (74) 
24

>  <original_smiles>  (74) 
COC1OC2CCC(C)(C)C3C(O)C(O)C14C(C(O)CC1C=C(C)CC14O)C23C

>  <smiles>  (74) 
[H]OC1([H])C([H])(O[H])C23C([H])(OC([H])([H])[H])OC4([H])C([H])([H])C([H])([H])C(C([H])([H])[H])(C([H])([H])[H])C1([H])C4(C([H])([H])[H])C2([H])C([H])(O[H])C([H])([H])C1([H])C([H])=C(C([H])([H])[H])C([H])([H])C13O[H]

$$$$
25:0:0
     RDKit          3D

 34 35  0  0  1  0  0  0  0  0999 V2000
    1.2249  -10.3648    3.8624 C   0  0  0  0  0  0  0  0  0  0  0  0
    1.5389   -8.9454    3.3495 C   0  0  0  0  0  0  0  0  0  0  0  0
    1.7242   -8.0359    4.5859 C   0  0  0  0  0  0  0  0  0  0  0  0
    2.8499   -8.9771    2.5112 C   0  0  0  0  0  0  0  0  0  0  0  0
    3.1073   -7.7202    1.6681 C   0  0  0  0  0  0  0  0  0  0  0  0
    4.3278   -7.7081    1.3821 O   0  0  0  0  0  0  0  0  0  0  0  0
    2.0486   -6.8538    1.3879 C   0  0  0  0  0  0  0  0  0  0  0  0
    2.4035   -5.3662    0.4854 S   0  0  0  0  0  0  0  0  0  0  0  0
    3.5340   -4.4833    1.5911 C   0  0  0  0  0  0  0  0  0  0  0  0
    4.4378   -3.5809    0.7797 C   0  0  0  0  0  0  0  0  0  0  0  0
    3.9414   -2.3902    0.2177 C   0  0  0  0  0  0  0  0  0  0  0  0
    4.8277   -1.5757   -0.5240 C   0  0  0  0  0  0  0  0  0  0  0  0
    6.1279   -1.8798   -0.7190 N   0  0  0  0  0  0  0  0  0  0  0  0
    6.5910   -3.0291   -0.1878 C   0  0  0  0  0  0  0  0  0  0  0  0
    5.7916   -3.9158    0.5698 C   0  0  0  0  0  0  0  0  0  0  0  0
    0.6715   -7.1028    1.8138 C   0  0  0  0  0  0  0  0  0  0  0  0
   -0.2376   -6.2776    1.6702 O   0  0  0  0  0  0  0  0  0  0  0  0
    0.3671   -8.4491    2.4811 C   0  0  0  0  0  0  0  0  0  0  0  0
    2.0028  -10.7381    4.5323 H   0  0  0  0  0  0  0  0  0  0  0  0
    1.1251  -11.0852    3.0505 H   0  0  0  0  0  0  0  0  0  0  0  0
    0.2915  -10.3826    4.4254 H   0  0  0  0  0  0  0  0  0  0  0  0
    2.0149   -7.0224    4.3154 H   0  0  0  0  0  0  0  0  0  0  0  0
    2.4972   -8.4213    5.2532 H   0  0  0  0  0  0  0  0  0  0  0  0
    0.7995   -7.9747    5.1571 H   0  0  0  0  0  0  0  0  0  0  0  0
    3.6964   -9.1392    3.1891 H   0  0  0  0  0  0  0  0  0  0  0  0
    2.8542   -9.8364    1.8364 H   0  0  0  0  0  0  0  0  0  0  0  0
    2.9481   -3.9041    2.3059 H   0  0  0  0  0  0  0  0  0  0  0  0
    4.1398   -5.1826    2.1665 H   0  0  0  0  0  0  0  0  0  0  0  0
    2.9078   -2.1064    0.3388 H   0  0  0  0  0  0  0  0  0  0  0  0
    4.4716   -0.6559   -0.9609 H   0  0  0  0  0  0  0  0  0  0  0  0
    7.6333   -3.2540   -0.3569 H   0  0  0  0  0  0  0  0  0  0  0  0
    6.2063   -4.8256    0.9721 H   0  0  0  0  0  0  0  0  0  0  0  0
    0.1396   -9.1616    1.6945 H   0  0  0  0  0  0  0  0  0  0  0  0
   -0.5306   -8.3587    3.0894 H   0  0  0  0  0  0  0  0  0  0  0  0
  1  2  1  0
  1 19  1  0
  1 20  1  0
  1 21  1  0
  2 18  1  0
  2  3  1  0
  2  4  1  0
  3 22  1  0
  3 23  1  0
  3 24  1  0
  4  5  1  0
  4 25  1  0
  4 26  1  0
  5  6  1  0
  5  7  2  0
  7  8  1  0
  7 16  1  0
  8  9  1  0
  9 10  1  0
  9 27  1  0
  9 28  1  0
 10 15  1  0
 10 11  2  0
 11 12  1  0
 11 29  1  0
 12 13  2  0
 12 30  1  0
 13 14  1  0
 14 15  2  0
 14 31  1  0
 15 32  1  0
 16 17  2  0
 16 18  1  0
 18 33  1  0
 18 34  1  0
M  CHG  1   6  -1
M  END
>  <i_m_ct_stereo_status>  (75) 
1

>  <s_m_source_file>  (75) 
/var/tmp/pbs.5076255.sched01/tmp7me73ahx/0ll6f151o.sdf

>  <i_m_source_file_index>  (75) 
31

>  <i_lp_mmshare_version>  (75) 
48012

>  <i_f3d_flags>  (75) 
0

>  <s_epik_input>  (75) 
W0NIM11DMShbQ0gzXSlbQ0gyXUMoPU8pW0NIXShDKD1PKVtDSDJdMSlTW0NIMl1jMltjSF1bY0hdbltjSF1bY0hdMg==

>  <s_epik_cmdline>  (75) 
J2VwaWtfcHl0aG9uJywgJy1waHQnLCAnMi4wJywgJy1waCcsICc3LjAnLCAnLXRuJywgJzgnLCAnLW1hJywgJzIwMCcsICctaW1hZScsICc8aW5maWxlLm1hZT4nLCAnLW9tYWUnLCAnPG91dGZpbGUubWFlPic=

>  <r_lp_tautomer_probability>  (75) 
1

>  <r_epik_Ionization_Penalty>  (75) 
0.0027378

>  <r_epik_Ionization_Penalty_Charging>  (75) 
0.00179253

>  <r_epik_Ionization_Penalty_Neutral>  (75) 
0.000945262

>  <r_epik_State_Penalty>  (75) 
-0

>  <r_epik_Charging_Adjusted_Penalty>  (75) 
0.00179253

>  <i_epik_Tot_Q>  (75) 
-1

>  <i_epik_Tot_abs_Q>  (75) 
1

>  <s_lp_Force_Field>  (75) 
OPLS3e

>  <r_lp_Energy>  (75) 
25.9069

>  <b_lp_Chiralities_Consistent>  (75) 
1

>  <s_lp_Variant>  (75) 
25:0-1

>  <s_i_glide_gridfile>  (75) 
pfpi4k_grid

>  <i_i_glide_lignum>  (75) 
31

>  <i_i_glide_rotatable_bonds>  (75) 
3

>  <r_i_docking_score>  (75) 
-3.45034

>  <r_i_glide_ligand_efficiency>  (75) 
-0.191686

>  <r_i_glide_ligand_efficiency_sa>  (75) 
-0.502359

>  <r_i_glide_ligand_efficiency_ln>  (75) 
-0.886893

>  <r_i_glide_gscore>  (75) 
-3.45034

>  <r_i_glide_lipo>  (75) 
-0.206354

>  <r_i_glide_hbond>  (75) 
-0.342438

>  <r_i_glide_metal>  (75) 
-0

>  <r_i_glide_rewards>  (75) 
-1.62035

>  <r_i_glide_evdw>  (75) 
-20.1807

>  <r_i_glide_ecoul>  (75) 
-6.50828

>  <r_i_glide_erotb>  (75) 
0.773184

>  <r_i_glide_esite>  (75) 
-0.0691042

>  <r_i_glide_emodel>  (75) 
-34.4872

>  <r_i_glide_energy>  (75) 
-26.689

>  <r_i_glide_einternal>  (75) 
0.992812

>  <r_i_glide_intrahb_reward>  (75) 
-0

>  <i_i_glide_confnum>  (75) 
2

>  <i_i_glide_posenum>  (75) 
27

>  <r_i_glide_eff_state_penalty>  (75) 
0

>  <ligand_id>  (75) 
25

>  <original_smiles>  (75) 
CC1(C)CC(=O)C(SCc2ccncc2)C(=O)C1

>  <smiles>  (75) 
[H]c1nc([H])c([H])c(C([H])([H])SC2=C([O-])C([H])([H])C(C([H])([H])[H])(C([H])([H])[H])C([H])([H])C2=O)c1[H]

$$$$
25:0:1
     RDKit          3D

 34 35  0  0  1  0  0  0  0  0999 V2000
   -0.0180   -8.6938    4.6774 C   0  0  0  0  0  0  0  0  0  0  0  0
    0.5850   -7.5881    3.7938 C   0  0  0  0  0  0  0  0  0  0  0  0
    0.1209   -6.2372    4.3765 C   0  0  0  0  0  0  0  0  0  0  0  0
    2.1378   -7.6723    3.8314 C   0  0  0  0  0  0  0  0  0  0  0  0
    2.8606   -6.8548    2.7536 C   0  0  0  0  0  0  0  0  0  0  0  0
    4.0376   -6.6782    3.1386 O   0  0  0  0  0  0  0  0  0  0  0  0
    2.1487   -6.4376    1.6292 C   0  0  0  0  0  0  0  0  0  0  0  0
    2.9969   -5.4122    0.4693 S   0  0  0  0  0  0  0  0  0  0  0  0
    3.3127   -3.8988    1.3954 C   0  0  0  0  0  0  0  0  0  0  0  0
    4.3260   -3.0604    0.6521 C   0  0  0  0  0  0  0  0  0  0  0  0
    3.9049   -2.0346   -0.2160 C   0  0  0  0  0  0  0  0  0  0  0  0
    4.8891   -1.2704   -0.8758 C   0  0  0  0  0  0  0  0  0  0  0  0
    6.2117   -1.4743   -0.7219 N   0  0  0  0  0  0  0  0  0  0  0  0
    6.6077   -2.4683    0.1040 C   0  0  0  0  0  0  0  0  0  0  0  0
    5.7082   -3.2892    0.8123 C   0  0  0  0  0  0  0  0  0  0  0  0
    0.7411   -6.7757    1.3894 C   0  0  0  0  0  0  0  0  0  0  0  0
    0.0609   -6.2669    0.4943 O   0  0  0  0  0  0  0  0  0  0  0  0
    0.0768   -7.7647    2.3487 C   0  0  0  0  0  0  0  0  0  0  0  0
    0.2699   -8.5777    5.7235 H   0  0  0  0  0  0  0  0  0  0  0  0
    0.2952   -9.6906    4.3641 H   0  0  0  0  0  0  0  0  0  0  0  0
   -1.1077   -8.6758    4.6409 H   0  0  0  0  0  0  0  0  0  0  0  0
    0.5552   -5.3890    3.8484 H   0  0  0  0  0  0  0  0  0  0  0  0
    0.4045   -6.1396    5.4255 H   0  0  0  0  0  0  0  0  0  0  0  0
   -0.9633   -6.1519    4.3188 H   0  0  0  0  0  0  0  0  0  0  0  0
    2.4831   -7.3531    4.8205 H   0  0  0  0  0  0  0  0  0  0  0  0
    2.4639   -8.7095    3.7363 H   0  0  0  0  0  0  0  0  0  0  0  0
    2.3707   -3.3632    1.5080 H   0  0  0  0  0  0  0  0  0  0  0  0
    3.6930   -4.1300    2.3878 H   0  0  0  0  0  0  0  0  0  0  0  0
    2.8554   -1.8358   -0.3728 H   0  0  0  0  0  0  0  0  0  0  0  0
    4.5975   -0.4719   -1.5415 H   0  0  0  0  0  0  0  0  0  0  0  0
    7.6724   -2.6110    0.2086 H   0  0  0  0  0  0  0  0  0  0  0  0
    6.0672   -4.0755    1.4606 H   0  0  0  0  0  0  0  0  0  0  0  0
    0.2732   -8.7695    1.9805 H   0  0  0  0  0  0  0  0  0  0  0  0
   -1.0014   -7.6177    2.3118 H   0  0  0  0  0  0  0  0  0  0  0  0
  1  2  1  0
  1 19  1  0
  1 20  1  0
  1 21  1  0
  2 18  1  0
  2  3  1  0
  2  4  1  0
  3 22  1  0
  3 23  1  0
  3 24  1  0
  4  5  1  0
  4 25  1  0
  4 26  1  0
  5  6  1  0
  5  7  2  0
  7  8  1  0
  7 16  1  0
  8  9  1  0
  9 10  1  0
  9 27  1  0
  9 28  1  0
 10 15  1  0
 10 11  2  0
 11 12  1  0
 11 29  1  0
 12 13  2  0
 12 30  1  0
 13 14  1  0
 14 15  2  0
 14 31  1  0
 15 32  1  0
 16 17  2  0
 16 18  1  0
 18 33  1  0
 18 34  1  0
M  CHG  1   6  -1
M  END
>  <i_m_ct_stereo_status>  (76) 
1

>  <s_m_source_file>  (76) 
/var/tmp/pbs.5076255.sched01/tmp7me73ahx/0ll6f151o.sdf

>  <i_m_source_file_index>  (76) 
31

>  <i_lp_mmshare_version>  (76) 
48012

>  <i_f3d_flags>  (76) 
0

>  <s_epik_input>  (76) 
W0NIM11DMShbQ0gzXSlbQ0gyXUMoPU8pW0NIXShDKD1PKVtDSDJdMSlTW0NIMl1jMltjSF1bY0hdbltjSF1bY0hdMg==

>  <s_epik_cmdline>  (76) 
J2VwaWtfcHl0aG9uJywgJy1waHQnLCAnMi4wJywgJy1waCcsICc3LjAnLCAnLXRuJywgJzgnLCAnLW1hJywgJzIwMCcsICctaW1hZScsICc8aW5maWxlLm1hZT4nLCAnLW9tYWUnLCAnPG91dGZpbGUubWFlPic=

>  <r_lp_tautomer_probability>  (76) 
1

>  <r_epik_Ionization_Penalty>  (76) 
0.0027378

>  <r_epik_Ionization_Penalty_Charging>  (76) 
0.00179253

>  <r_epik_Ionization_Penalty_Neutral>  (76) 
0.000945262

>  <r_epik_State_Penalty>  (76) 
-0

>  <r_epik_Charging_Adjusted_Penalty>  (76) 
0.00179253

>  <i_epik_Tot_Q>  (76) 
-1

>  <i_epik_Tot_abs_Q>  (76) 
1

>  <s_lp_Force_Field>  (76) 
OPLS3e

>  <r_lp_Energy>  (76) 
25.9069

>  <b_lp_Chiralities_Consistent>  (76) 
1

>  <s_lp_Variant>  (76) 
25:0-1

>  <s_i_glide_gridfile>  (76) 
pfpi4k_grid

>  <i_i_glide_lignum>  (76) 
31

>  <i_i_glide_rotatable_bonds>  (76) 
3

>  <r_i_docking_score>  (76) 
-3.41616

>  <r_i_glide_ligand_efficiency>  (76) 
-0.189786

>  <r_i_glide_ligand_efficiency_sa>  (76) 
-0.497381

>  <r_i_glide_ligand_efficiency_ln>  (76) 
-0.878105

>  <r_i_glide_gscore>  (76) 
-3.41616

>  <r_i_glide_lipo>  (76) 
-0.120633

>  <r_i_glide_hbond>  (76) 
-0.329835

>  <r_i_glide_metal>  (76) 
-0

>  <r_i_glide_rewards>  (76) 
-1.62035

>  <r_i_glide_evdw>  (76) 
-20.109

>  <r_i_glide_ecoul>  (76) 
-6.81161

>  <r_i_glide_erotb>  (76) 
0.773184

>  <r_i_glide_esite>  (76) 
-0.0913298

>  <r_i_glide_emodel>  (76) 
-34.9521

>  <r_i_glide_energy>  (76) 
-26.9206

>  <r_i_glide_einternal>  (76) 
0.406155

>  <r_i_glide_intrahb_reward>  (76) 
-0

>  <i_i_glide_confnum>  (76) 
2

>  <i_i_glide_posenum>  (76) 
36

>  <r_i_glide_eff_state_penalty>  (76) 
0

>  <ligand_id>  (76) 
25

>  <original_smiles>  (76) 
CC1(C)CC(=O)C(SCc2ccncc2)C(=O)C1

>  <smiles>  (76) 
[H]c1nc([H])c([H])c(C([H])([H])SC2=C([O-])C([H])([H])C(C([H])([H])[H])(C([H])([H])[H])C([H])([H])C2=O)c1[H]

$$$$
25:0:2
     RDKit          3D

 34 35  0  0  1  0  0  0  0  0999 V2000
    0.2217   -9.4931    4.0911 C   0  0  0  0  0  0  0  0  0  0  0  0
    0.4895   -8.0582    3.6184 C   0  0  0  0  0  0  0  0  0  0  0  0
   -0.7155   -7.1984    4.0445 C   0  0  0  0  0  0  0  0  0  0  0  0
    1.7829   -7.5187    4.2858 C   0  0  0  0  0  0  0  0  0  0  0  0
    2.3402   -6.2391    3.6560 C   0  0  0  0  0  0  0  0  0  0  0  0
    3.1154   -5.6987    4.4817 O   0  0  0  0  0  0  0  0  0  0  0  0
    1.9542   -5.8668    2.3766 C   0  0  0  0  0  0  0  0  0  0  0  0
    2.6418   -4.3767    1.7182 S   0  0  0  0  0  0  0  0  0  0  0  0
    3.7537   -5.0481    0.4627 C   0  0  0  0  0  0  0  0  0  0  0  0
    4.6161   -3.9429   -0.1005 C   0  0  0  0  0  0  0  0  0  0  0  0
    6.0038   -3.9207    0.1385 C   0  0  0  0  0  0  0  0  0  0  0  0
    6.7583   -2.8611   -0.3952 C   0  0  0  0  0  0  0  0  0  0  0  0
    6.2196   -1.8560   -1.1223 N   0  0  0  0  0  0  0  0  0  0  0  0
    4.8864   -1.8842   -1.3429 C   0  0  0  0  0  0  0  0  0  0  0  0
    4.0449   -2.9006   -0.8584 C   0  0  0  0  0  0  0  0  0  0  0  0
    1.0363   -6.6716    1.5625 C   0  0  0  0  0  0  0  0  0  0  0  0
    0.5584   -6.2733    0.4970 O   0  0  0  0  0  0  0  0  0  0  0  0
    0.6426   -8.0460    2.0862 C   0  0  0  0  0  0  0  0  0  0  0  0
    0.0437   -9.5402    5.1659 H   0  0  0  0  0  0  0  0  0  0  0  0
    1.0446  -10.1722    3.8720 H   0  0  0  0  0  0  0  0  0  0  0  0
   -0.6659   -9.9014    3.6123 H   0  0  0  0  0  0  0  0  0  0  0  0
   -0.5725   -6.1474    3.8077 H   0  0  0  0  0  0  0  0  0  0  0  0
   -0.8825   -7.2622    5.1189 H   0  0  0  0  0  0  0  0  0  0  0  0
   -1.6233   -7.5375    3.5492 H   0  0  0  0  0  0  0  0  0  0  0  0
    1.5891   -7.3488    5.3480 H   0  0  0  0  0  0  0  0  0  0  0  0
    2.5687   -8.2757    4.2577 H   0  0  0  0  0  0  0  0  0  0  0  0
    4.3680   -5.8277    0.9152 H   0  0  0  0  0  0  0  0  0  0  0  0
    3.1649   -5.5143   -0.3225 H   0  0  0  0  0  0  0  0  0  0  0  0
    6.4769   -4.6957    0.7247 H   0  0  0  0  0  0  0  0  0  0  0  0
    7.8253   -2.8215   -0.2353 H   0  0  0  0  0  0  0  0  0  0  0  0
    4.4785   -1.0735   -1.9283 H   0  0  0  0  0  0  0  0  0  0  0  0
    2.9815   -2.8732   -1.0497 H   0  0  0  0  0  0  0  0  0  0  0  0
    1.3904   -8.7645    1.7605 H   0  0  0  0  0  0  0  0  0  0  0  0
   -0.2918   -8.3516    1.6202 H   0  0  0  0  0  0  0  0  0  0  0  0
  1  2  1  0
  1 19  1  0
  1 20  1  0
  1 21  1  0
  2 18  1  0
  2  3  1  0
  2  4  1  0
  3 22  1  0
  3 23  1  0
  3 24  1  0
  4  5  1  0
  4 25  1  0
  4 26  1  0
  5  6  1  0
  5  7  2  0
  7  8  1  0
  7 16  1  0
  8  9  1  0
  9 10  1  0
  9 27  1  0
  9 28  1  0
 10 15  1  0
 10 11  2  0
 11 12  1  0
 11 29  1  0
 12 13  2  0
 12 30  1  0
 13 14  1  0
 14 15  2  0
 14 31  1  0
 15 32  1  0
 16 17  2  0
 16 18  1  0
 18 33  1  0
 18 34  1  0
M  CHG  1   6  -1
M  END
>  <i_m_ct_stereo_status>  (77) 
1

>  <s_m_source_file>  (77) 
/var/tmp/pbs.5076255.sched01/tmp7me73ahx/0ll6f151o.sdf

>  <i_m_source_file_index>  (77) 
31

>  <i_lp_mmshare_version>  (77) 
48012

>  <i_f3d_flags>  (77) 
0

>  <s_epik_input>  (77) 
W0NIM11DMShbQ0gzXSlbQ0gyXUMoPU8pW0NIXShDKD1PKVtDSDJdMSlTW0NIMl1jMltjSF1bY0hdbltjSF1bY0hdMg==

>  <s_epik_cmdline>  (77) 
J2VwaWtfcHl0aG9uJywgJy1waHQnLCAnMi4wJywgJy1waCcsICc3LjAnLCAnLXRuJywgJzgnLCAnLW1hJywgJzIwMCcsICctaW1hZScsICc8aW5maWxlLm1hZT4nLCAnLW9tYWUnLCAnPG91dGZpbGUubWFlPic=

>  <r_lp_tautomer_probability>  (77) 
1

>  <r_epik_Ionization_Penalty>  (77) 
0.0027378

>  <r_epik_Ionization_Penalty_Charging>  (77) 
0.00179253

>  <r_epik_Ionization_Penalty_Neutral>  (77) 
0.000945262

>  <r_epik_State_Penalty>  (77) 
-0

>  <r_epik_Charging_Adjusted_Penalty>  (77) 
0.00179253

>  <i_epik_Tot_Q>  (77) 
-1

>  <i_epik_Tot_abs_Q>  (77) 
1

>  <s_lp_Force_Field>  (77) 
OPLS3e

>  <r_lp_Energy>  (77) 
25.9069

>  <b_lp_Chiralities_Consistent>  (77) 
1

>  <s_lp_Variant>  (77) 
25:0-1

>  <s_i_glide_gridfile>  (77) 
pfpi4k_grid

>  <i_i_glide_lignum>  (77) 
31

>  <i_i_glide_rotatable_bonds>  (77) 
3

>  <r_i_docking_score>  (77) 
-3.33499

>  <r_i_glide_ligand_efficiency>  (77) 
-0.185277

>  <r_i_glide_ligand_efficiency_sa>  (77) 
-0.485564

>  <r_i_glide_ligand_efficiency_ln>  (77) 
-0.857242

>  <r_i_glide_gscore>  (77) 
-3.33499

>  <r_i_glide_lipo>  (77) 
-0.126272

>  <r_i_glide_hbond>  (77) 
-0.369654

>  <r_i_glide_metal>  (77) 
-0

>  <r_i_glide_rewards>  (77) 
-1.62035

>  <r_i_glide_evdw>  (77) 
-22.1623

>  <r_i_glide_ecoul>  (77) 
-5.41531

>  <r_i_glide_erotb>  (77) 
0.773184

>  <r_i_glide_esite>  (77) 
-0.0714815

>  <r_i_glide_emodel>  (77) 
-35.4399

>  <r_i_glide_energy>  (77) 
-27.5776

>  <r_i_glide_einternal>  (77) 
0.310155

>  <r_i_glide_intrahb_reward>  (77) 
-0

>  <i_i_glide_confnum>  (77) 
1

>  <i_i_glide_posenum>  (77) 
10

>  <r_i_glide_eff_state_penalty>  (77) 
0

>  <ligand_id>  (77) 
25

>  <original_smiles>  (77) 
CC1(C)CC(=O)C(SCc2ccncc2)C(=O)C1

>  <smiles>  (77) 
[H]c1nc([H])c([H])c(C([H])([H])SC2=C([O-])C([H])([H])C(C([H])([H])[H])(C([H])([H])[H])C([H])([H])C2=O)c1[H]

$$$$
26:0:0
     RDKit          3D

 82 89  0  0  1  0  0  0  0  0999 V2000
    1.2159   -1.8609    4.7209 C   0  0  0  0  0  0  0  0  0  0  0  0
    1.3861   -0.3346    4.9001 C   0  0  2  0  0  0  0  0  0  0  0  0
    2.6320    0.3007    4.2407 C   0  0  1  0  0  0  0  0  0  0  0  0
    2.7379   -0.0228    2.8677 O   0  0  0  0  0  0  0  0  0  0  0  0
    2.7006    1.8365    4.4845 C   0  0  2  0  0  0  0  0  0  0  0  0
    2.7540    2.0353    6.0024 C   0  0  1  0  0  0  0  0  0  0  0  0
    3.5262    3.2615    6.4551 C   0  0  0  0  0  0  0  0  0  0  0  0
    3.3906    4.5201    6.0237 C   0  0  0  0  0  0  0  0  0  0  0  0
    2.3183    5.0313    5.0897 C   0  0  2  0  0  0  0  0  0  0  0  0
    1.0358    5.2194    5.9145 C   0  0  1  0  0  0  0  0  0  0  0  0
    0.5156    6.5330    5.7762 O   0  0  0  0  0  0  0  0  0  0  0  0
   -0.0341    4.1381    5.6418 C   0  0  1  0  0  0  0  0  0  0  0  0
   -0.8911    4.6411    4.6178 O   0  0  0  0  0  0  0  0  0  0  0  0
    0.4508    2.6640    5.2792 C   0  0  1  0  0  0  0  0  0  0  0  0
   -0.9480    1.9873    4.9778 C   0  0  0  0  0  0  0  0  0  0  0  0
    1.4872    2.7354    4.0497 C   0  0  2  0  0  0  0  0  0  0  0  0
    0.8814    2.2949    2.6921 C   0  0  0  0  0  0  0  0  0  0  0  0
    2.1092    4.1752    3.8148 C   0  0  1  0  0  0  0  0  0  0  0  0
    1.3877    5.0198    2.9184 O   0  0  0  0  0  0  0  0  0  0  0  0
    1.2699    1.8384    6.4185 C   0  0  2  0  0  0  0  0  0  0  0  0
    0.9417    2.3232    7.8728 C   0  0  1  0  0  0  0  0  0  0  0  0
   -0.4686    2.3304    8.0914 O   0  0  0  0  0  0  0  0  0  0  0  0
   -0.8815    2.8401    9.3401 C   0  0  0  0  0  0  0  0  0  0  0  0
   -2.3997    2.6461    9.4398 C   0  0  0  0  0  0  0  0  0  0  0  0
   -2.9943    3.8523    8.7042 C   0  0  0  0  0  0  0  0  0  0  0  0
   -1.9862    4.9995    8.8793 C   0  0  0  0  0  0  0  0  0  0  0  0
   -0.7061    4.3775    9.4486 C   0  0  0  0  0  0  0  0  0  0  0  0
   -0.2648    2.2181   10.4383 O   0  0  0  0  0  0  0  0  0  0  0  0
    1.0844    2.1177   10.3677 C   0  0  0  0  0  0  0  0  0  0  0  0
    1.8296    2.3300   11.3192 O   0  0  0  0  0  0  0  0  0  0  0  0
    1.6212    1.5754    9.0359 C   0  0  1  0  0  0  0  0  0  0  0  0
    1.6028    0.0297    8.9756 C   0  0  1  0  0  0  0  0  0  0  0  0
    2.6127   -0.4786   10.0449 C   0  0  0  0  0  0  0  0  0  0  0  0
    0.2508   -0.6900    9.0822 C   0  0  0  0  0  0  0  0  0  0  0  0
    0.7695   -1.6866    8.0606 C   0  0  0  0  0  0  0  0  0  0  0  0
    1.7347   -0.5940    7.5452 C   0  0  2  0  0  0  0  0  0  0  0  0
    3.1733   -1.1112    7.2793 C   0  0  0  0  0  0  0  0  0  0  0  0
    1.1030    0.2451    6.3449 C   0  0  2  0  0  0  0  0  0  0  0  0
    1.9233   -2.4778    5.2684 H   0  0  0  0  0  0  0  0  0  0  0  0
    1.3122   -2.1321    3.6683 H   0  0  0  0  0  0  0  0  0  0  0  0
    0.2166   -2.1681    5.0277 H   0  0  0  0  0  0  0  0  0  0  0  0
    0.5929   -0.0132    4.2574 H   0  0  0  0  0  0  0  0  0  0  0  0
    3.5363   -0.1272    4.6657 H   0  0  0  0  0  0  0  0  0  0  0  0
    2.0251    0.3889    2.4005 H   0  0  0  0  0  0  0  0  0  0  0  0
    3.6362    2.1647    4.0341 H   0  0  0  0  0  0  0  0  0  0  0  0
    3.3838    1.2676    6.4268 H   0  0  0  0  0  0  0  0  0  0  0  0
    4.3060    3.0623    7.1788 H   0  0  0  0  0  0  0  0  0  0  0  0
    4.0300    5.2836    6.4425 H   0  0  0  0  0  0  0  0  0  0  0  0
    2.6949    6.0052    4.7754 H   0  0  0  0  0  0  0  0  0  0  0  0
    1.2951    5.1891    6.9690 H   0  0  0  0  0  0  0  0  0  0  0  0
    1.2183    7.1475    5.9262 H   0  0  0  0  0  0  0  0  0  0  0  0
   -0.6723    4.1133    6.5200 H   0  0  0  0  0  0  0  0  0  0  0  0
   -0.3659    4.7158    3.8276 H   0  0  0  0  0  0  0  0  0  0  0  0
   -1.0112    0.9179    4.8752 H   0  0  0  0  0  0  0  0  0  0  0  0
   -1.4061    2.3563    4.0618 H   0  0  0  0  0  0  0  0  0  0  0  0
   -1.6574    2.2140    5.7735 H   0  0  0  0  0  0  0  0  0  0  0  0
    0.0472    2.9409    2.4381 H   0  0  0  0  0  0  0  0  0  0  0  0
    0.4712    1.2925    2.6694 H   0  0  0  0  0  0  0  0  0  0  0  0
    1.6210    2.3643    1.8953 H   0  0  0  0  0  0  0  0  0  0  0  0
    3.0780    4.0713    3.3268 H   0  0  0  0  0  0  0  0  0  0  0  0
    1.1149    4.5548    2.1269 H   0  0  0  0  0  0  0  0  0  0  0  0
    1.3178    3.3364    7.9452 H   0  0  0  0  0  0  0  0  0  0  0  0
   -2.7162    1.7089    9.0001 H   0  0  0  0  0  0  0  0  0  0  0  0
   -2.6996    2.6661   10.4864 H   0  0  0  0  0  0  0  0  0  0  0  0
   -3.1045    3.6280    7.6417 H   0  0  0  0  0  0  0  0  0  0  0  0
   -3.9796    4.1225    9.0906 H   0  0  0  0  0  0  0  0  0  0  0  0
   -1.7869    5.4890    7.9282 H   0  0  0  0  0  0  0  0  0  0  0  0
   -2.3674    5.7639    9.5581 H   0  0  0  0  0  0  0  0  0  0  0  0
   -0.6434    4.6410   10.5059 H   0  0  0  0  0  0  0  0  0  0  0  0
    0.1911    4.7597    8.9685 H   0  0  0  0  0  0  0  0  0  0  0  0
    2.6635    1.8855    9.0244 H   0  0  0  0  0  0  0  0  0  0  0  0
    2.7194   -1.5640   10.0260 H   0  0  0  0  0  0  0  0  0  0  0  0
    2.3049   -0.2424   11.0625 H   0  0  0  0  0  0  0  0  0  0  0  0
    3.6091   -0.0579    9.9006 H   0  0  0  0  0  0  0  0  0  0  0  0
    0.0459   -1.1155   10.0614 H   0  0  0  0  0  0  0  0  0  0  0  0
   -0.5882   -0.0993    8.7197 H   0  0  0  0  0  0  0  0  0  0  0  0
    1.2689   -2.5355    8.5283 H   0  0  0  0  0  0  0  0  0  0  0  0
    0.0186   -2.0250    7.3569 H   0  0  0  0  0  0  0  0  0  0  0  0
    3.3786   -1.4273    6.2687 H   0  0  0  0  0  0  0  0  0  0  0  0
    3.3896   -1.9951    7.8810 H   0  0  0  0  0  0  0  0  0  0  0  0
    3.9393   -0.3847    7.5531 H   0  0  0  0  0  0  0  0  0  0  0  0
    0.0366    0.0974    6.4790 H   0  0  0  0  0  0  0  0  0  0  0  0
  1  2  1  0
  1 39  1  0
  1 40  1  0
  1 41  1  0
  2 38  1  0
  2  3  1  0
  2 42  1  6
  3  4  1  0
  3  5  1  0
  3 43  1  1
  4 44  1  0
  5 16  1  0
  5  6  1  0
  5 45  1  6
  6 20  1  0
  6  7  1  0
  6 46  1  1
  7  8  2  0
  7 47  1  0
  8  9  1  0
  8 48  1  0
  9 18  1  0
  9 10  1  0
  9 49  1  6
 10 11  1  0
 10 12  1  0
 10 50  1  1
 11 51  1  0
 12 13  1  0
 12 14  1  0
 12 52  1  1
 13 53  1  0
 14 15  1  6
 14 16  1  0
 20 14  1  6
 15 54  1  0
 15 55  1  0
 15 56  1  0
 16 17  1  6
 16 18  1  0
 17 57  1  0
 17 58  1  0
 17 59  1  0
 18 19  1  0
 18 60  1  6
 19 61  1  0
 20 38  1  0
 20 21  1  0
 21 31  1  0
 21 22  1  0
 21 62  1  6
 22 23  1  0
 23 27  1  0
 23 24  1  0
 23 28  1  0
 24 25  1  0
 24 63  1  0
 24 64  1  0
 25 26  1  0
 25 65  1  0
 25 66  1  0
 26 27  1  0
 26 67  1  0
 26 68  1  0
 27 69  1  0
 27 70  1  0
 28 29  1  0
 29 30  2  0
 29 31  1  0
 31 32  1  0
 31 71  1  1
 32 36  1  0
 32 33  1  1
 32 34  1  0
 33 72  1  0
 33 73  1  0
 33 74  1  0
 34 35  1  0
 34 75  1  0
 34 76  1  0
 35 36  1  0
 35 77  1  0
 35 78  1  0
 36 37  1  6
 36 38  1  0
 37 79  1  0
 37 80  1  0
 37 81  1  0
 38 82  1  1
M  END
>  <i_m_ct_stereo_status>  (78) 
1

>  <s_m_source_file>  (78) 
/var/tmp/pbs.5076255.sched01/tmp7me73ahx/0ll6f151o.sdf

>  <i_m_source_file_index>  (78) 
32

>  <i_lp_mmshare_version>  (78) 
48012

>  <i_f3d_flags>  (78) 
0

>  <s_epik_input>  (78) 
W0NIXTE9W0NIXVtDQEBIXShbQ0BASF0yW09IXSlbQ0BASF0oW09IXSlbQ0BASF0oW09IXSlbQ0BAXTMoW0NIM10pW0NAXTIoW0NIM10pW0NAQEhdKFtDSF0xQzM0NSlbQ0BIXShbT0hdKVtDQEBIXShbQ0gzXSlbQ0BIXTVbQ0BAXTYoW0NIM10pW0NAXShbQ0gzXSkoW0NIMl1bQ0gyXTYpW0NASF03W0NAQEhdNE9DOChPQzc9TylbQ0gyXVtDSDJdW0NIMl1bQ0gyXTg=

>  <s_epik_cmdline>  (78) 
J2VwaWtfcHl0aG9uJywgJy1waHQnLCAnMi4wJywgJy1waCcsICc3LjAnLCAnLXRuJywgJzgnLCAnLW1hJywgJzIwMCcsICctaW1hZScsICc8aW5maWxlLm1hZT4nLCAnLW9tYWUnLCAnPG91dGZpbGUubWFlPic=

>  <r_lp_tautomer_probability>  (78) 
1

>  <r_epik_Ionization_Penalty>  (78) 
1.29603e-06

>  <r_epik_Ionization_Penalty_Charging>  (78) 
0

>  <r_epik_Ionization_Penalty_Neutral>  (78) 
1.29603e-06

>  <r_epik_State_Penalty>  (78) 
-0

>  <r_epik_Charging_Adjusted_Penalty>  (78) 
0

>  <i_epik_Tot_Q>  (78) 
0

>  <i_epik_Tot_abs_Q>  (78) 
0

>  <s_epik_Chemistry_Notes>  (78) 
This compound has an ester and may undergo hydrolysis at high or low pH.

>  <s_lp_Force_Field>  (78) 
OPLS3e

>  <r_lp_Energy>  (78) 
134.123

>  <b_lp_Chiralities_Consistent>  (78) 
1

>  <s_lp_Variant>  (78) 
26:0-1

>  <s_i_glide_gridfile>  (78) 
pfpi4k_grid

>  <i_i_glide_lignum>  (78) 
32

>  <i_i_glide_rotatable_bonds>  (78) 
4

>  <r_i_docking_score>  (78) 
-2.51586

>  <r_i_glide_ligand_efficiency>  (78) 
-0.0662069

>  <r_i_glide_ligand_efficiency_sa>  (78) 
-0.222586

>  <r_i_glide_ligand_efficiency_ln>  (78) 
-0.542494

>  <r_i_glide_gscore>  (78) 
-2.51586

>  <r_i_glide_lipo>  (78) 
-0.0621443

>  <r_i_glide_hbond>  (78) 
0

>  <r_i_glide_metal>  (78) 
-0

>  <r_i_glide_rewards>  (78) 
-0.5

>  <r_i_glide_evdw>  (78) 
-17.7931

>  <r_i_glide_ecoul>  (78) 
-7.01358

>  <r_i_glide_erotb>  (78) 
0

>  <r_i_glide_esite>  (78) 
-0.0120258

>  <r_i_glide_emodel>  (78) 
-33.4037

>  <r_i_glide_energy>  (78) 
-24.8067

>  <r_i_glide_einternal>  (78) 
1.11178

>  <r_i_glide_intrahb_reward>  (78) 
-0.5

>  <i_i_glide_confnum>  (78) 
3

>  <i_i_glide_posenum>  (78) 
5

>  <r_i_glide_eff_state_penalty>  (78) 
0

>  <ligand_id>  (78) 
26

>  <original_smiles>  (78) 
CC1C(O)C2C3C=CC4C(O)C(O)C(C)(C2(C)C4O)C32C3OC4(CCCC4)OC(=O)C3C3(C)CCC3(C)C12

>  <smiles>  (78) 
[H]OC1([H])C([H])(O[H])C2(C([H])([H])[H])C3(C([H])([H])[H])C([H])(O[H])C1([H])C([H])=C([H])C1([H])C3([H])C([H])(O[H])C([H])(C([H])([H])[H])C3([H])C4(C([H])([H])[H])C([H])([H])C([H])([H])C4(C([H])([H])[H])C4([H])C(=O)OC5(OC4([H])C132)C([H])([H])C([H])([H])C([H])([H])C5([H])[H]

$$$$
26:0:1
     RDKit          3D

 82 89  0  0  1  0  0  0  0  0999 V2000
   -0.9180   -8.5702    4.4709 C   0  0  0  0  0  0  0  0  0  0  0  0
    0.6043   -8.4790    4.2296 C   0  0  2  0  0  0  0  0  0  0  0  0
    1.4198   -9.7571    4.5173 C   0  0  1  0  0  0  0  0  0  0  0  0
    0.8851  -10.8626    3.8355 O   0  0  0  0  0  0  0  0  0  0  0  0
    2.9350   -9.5530    4.2157 C   0  0  2  0  0  0  0  0  0  0  0  0
    3.4059   -8.4177    5.1240 C   0  0  1  0  0  0  0  0  0  0  0  0
    4.8533   -8.5170    5.5603 C   0  0  0  0  0  0  0  0  0  0  0  0
    5.9369   -8.7083    4.7897 C   0  0  0  0  0  0  0  0  0  0  0  0
    5.9645   -8.7230    3.2821 C   0  0  2  0  0  0  0  0  0  0  0  0
    5.9481   -7.2641    2.8136 C   0  0  1  0  0  0  0  0  0  0  0  0
    7.0213   -6.9951    1.9325 O   0  0  0  0  0  0  0  0  0  0  0  0
    4.5821   -6.8313    2.2264 C   0  0  1  0  0  0  0  0  0  0  0  0
    4.6446   -7.0652    0.8291 O   0  0  0  0  0  0  0  0  0  0  0  0
    3.2531   -7.4711    2.8316 C   0  0  1  0  0  0  0  0  0  0  0  0
    2.1792   -6.8332    1.8688 C   0  0  0  0  0  0  0  0  0  0  0  0
    3.3778   -9.0685    2.7892 C   0  0  2  0  0  0  0  0  0  0  0  0
    2.5663   -9.7470    1.6588 C   0  0  0  0  0  0  0  0  0  0  0  0
    4.8653   -9.5916    2.6283 C   0  0  1  0  0  0  0  0  0  0  0  0
    5.2554   -9.8061    1.2762 O   0  0  0  0  0  0  0  0  0  0  0  0
    2.8923   -7.1565    4.3819 C   0  0  2  0  0  0  0  0  0  0  0  0
    3.5182   -5.8156    4.8854 C   0  0  1  0  0  0  0  0  0  0  0  0
    3.1940   -4.7545    3.9957 O   0  0  0  0  0  0  0  0  0  0  0  0
    3.7644   -3.5020    4.2949 C   0  0  0  0  0  0  0  0  0  0  0  0
    3.1809   -2.4679    3.3260 C   0  0  0  0  0  0  0  0  0  0  0  0
    4.0355   -2.6028    2.0556 C   0  0  0  0  0  0  0  0  0  0  0  0
    5.4287   -3.0649    2.5149 C   0  0  0  0  0  0  0  0  0  0  0  0
    5.2862   -3.4708    3.9884 C   0  0  0  0  0  0  0  0  0  0  0  0
    3.5430   -3.0609    5.6096 O   0  0  0  0  0  0  0  0  0  0  0  0
    3.8162   -3.9799    6.5675 C   0  0  0  0  0  0  0  0  0  0  0  0
    4.3659   -3.7358    7.6348 O   0  0  0  0  0  0  0  0  0  0  0  0
    3.2025   -5.3686    6.3225 C   0  0  1  0  0  0  0  0  0  0  0  0
    1.7197   -5.4696    6.7639 C   0  0  1  0  0  0  0  0  0  0  0  0
    1.7058   -5.3129    8.3074 C   0  0  0  0  0  0  0  0  0  0  0  0
    0.6900   -4.5571    6.0813 C   0  0  0  0  0  0  0  0  0  0  0  0
   -0.2924   -5.7104    6.1563 C   0  0  0  0  0  0  0  0  0  0  0  0
    0.9127   -6.6770    6.1822 C   0  0  2  0  0  0  0  0  0  0  0  0
    0.7680   -7.8210    7.2193 C   0  0  0  0  0  0  0  0  0  0  0  0
    1.3278   -7.1686    4.7267 C   0  0  2  0  0  0  0  0  0  0  0  0
   -1.2143   -8.6699    5.5101 H   0  0  0  0  0  0  0  0  0  0  0  0
   -1.3293   -9.4304    3.9432 H   0  0  0  0  0  0  0  0  0  0  0  0
   -1.4289   -7.6983    4.0648 H   0  0  0  0  0  0  0  0  0  0  0  0
    0.5807   -8.4627    3.1583 H   0  0  0  0  0  0  0  0  0  0  0  0
    1.3389  -10.0392    5.5646 H   0  0  0  0  0  0  0  0  0  0  0  0
    0.0291  -11.0571    4.2231 H   0  0  0  0  0  0  0  0  0  0  0  0
    3.4183  -10.4880    4.5011 H   0  0  0  0  0  0  0  0  0  0  0  0
    2.9260   -8.5262    6.0867 H   0  0  0  0  0  0  0  0  0  0  0  0
    5.0057   -8.4633    6.6288 H   0  0  0  0  0  0  0  0  0  0  0  0
    6.9031   -8.7679    5.2659 H   0  0  0  0  0  0  0  0  0  0  0  0
    6.9338   -9.1695    3.0445 H   0  0  0  0  0  0  0  0  0  0  0  0
    6.1709   -6.6214    3.6615 H   0  0  0  0  0  0  0  0  0  0  0  0
    7.8404   -7.2308    2.3673 H   0  0  0  0  0  0  0  0  0  0  0  0
    4.5408   -5.7482    2.3084 H   0  0  0  0  0  0  0  0  0  0  0  0
    4.7677   -8.0089    0.7049 H   0  0  0  0  0  0  0  0  0  0  0  0
    1.1312   -6.9210    2.0944 H   0  0  0  0  0  0  0  0  0  0  0  0
    2.2465   -7.2490    0.8735 H   0  0  0  0  0  0  0  0  0  0  0  0
    2.3438   -5.7617    1.7618 H   0  0  0  0  0  0  0  0  0  0  0  0
    2.8962   -9.4625    0.6607 H   0  0  0  0  0  0  0  0  0  0  0  0
    1.5021   -9.5491    1.6768 H   0  0  0  0  0  0  0  0  0  0  0  0
    2.6902  -10.8195    1.7503 H   0  0  0  0  0  0  0  0  0  0  0  0
    4.9545  -10.5893    3.0581 H   0  0  0  0  0  0  0  0  0  0  0  0
    4.7994  -10.5817    0.9543 H   0  0  0  0  0  0  0  0  0  0  0  0
    4.5895   -5.9631    4.8731 H   0  0  0  0  0  0  0  0  0  0  0  0
    2.1193   -2.6171    3.1514 H   0  0  0  0  0  0  0  0  0  0  0  0
    3.3247   -1.4721    3.7425 H   0  0  0  0  0  0  0  0  0  0  0  0
    3.6119   -3.3555    1.3893 H   0  0  0  0  0  0  0  0  0  0  0  0
    4.0956   -1.6651    1.4978 H   0  0  0  0  0  0  0  0  0  0  0  0
    5.7766   -3.8936    1.9013 H   0  0  0  0  0  0  0  0  0  0  0  0
    6.1686   -2.2692    2.4157 H   0  0  0  0  0  0  0  0  0  0  0  0
    5.7439   -2.6881    4.5976 H   0  0  0  0  0  0  0  0  0  0  0  0
    5.8160   -4.3932    4.2182 H   0  0  0  0  0  0  0  0  0  0  0  0
    3.7761   -6.0461    6.9690 H   0  0  0  0  0  0  0  0  0  0  0  0
    0.7069   -5.4374    8.7253 H   0  0  0  0  0  0  0  0  0  0  0  0
    2.0272   -4.3248    8.6376 H   0  0  0  0  0  0  0  0  0  0  0  0
    2.3496   -6.0424    8.8038 H   0  0  0  0  0  0  0  0  0  0  0  0
    0.4026   -3.6919    6.6731 H   0  0  0  0  0  0  0  0  0  0  0  0
    0.9431   -4.2801    5.0613 H   0  0  0  0  0  0  0  0  0  0  0  0
   -0.8744   -5.6999    7.0763 H   0  0  0  0  0  0  0  0  0  0  0  0
   -0.9342   -5.7905    5.2879 H   0  0  0  0  0  0  0  0  0  0  0  0
    0.3464   -8.7445    6.8499 H   0  0  0  0  0  0  0  0  0  0  0  0
    0.0967   -7.5346    8.0298 H   0  0  0  0  0  0  0  0  0  0  0  0
    1.7112   -8.0739    7.7079 H   0  0  0  0  0  0  0  0  0  0  0  0
    0.9204   -6.3919    4.0878 H   0  0  0  0  0  0  0  0  0  0  0  0
  1  2  1  0
  1 39  1  0
  1 40  1  0
  1 41  1  0
  2 38  1  0
  2  3  1  0
  2 42  1  6
  3  4  1  0
  3  5  1  0
  3 43  1  1
  4 44  1  0
  5 16  1  0
  5  6  1  0
  5 45  1  1
  6 20  1  0
  6  7  1  0
  6 46  1  1
  7  8  2  0
  7 47  1  0
  8  9  1  0
  8 48  1  0
  9 18  1  0
  9 10  1  0
  9 49  1  1
 10 11  1  0
 10 12  1  0
 10 50  1  1
 11 51  1  0
 12 13  1  0
 12 14  1  0
 12 52  1  6
 13 53  1  0
 14 15  1  6
 14 16  1  0
 20 14  1  6
 15 54  1  0
 15 55  1  0
 15 56  1  0
 16 17  1  6
 16 18  1  0
 17 57  1  0
 17 58  1  0
 17 59  1  0
 18 19  1  0
 18 60  1  1
 19 61  1  0
 20 38  1  0
 20 21  1  0
 21 31  1  0
 21 22  1  0
 21 62  1  1
 22 23  1  0
 23 27  1  0
 23 24  1  0
 23 28  1  0
 24 25  1  0
 24 63  1  0
 24 64  1  0
 25 26  1  0
 25 65  1  0
 25 66  1  0
 26 27  1  0
 26 67  1  0
 26 68  1  0
 27 69  1  0
 27 70  1  0
 28 29  1  0
 29 30  2  0
 29 31  1  0
 31 32  1  0
 31 71  1  1
 32 36  1  0
 32 33  1  1
 32 34  1  0
 33 72  1  0
 33 73  1  0
 33 74  1  0
 34 35  1  0
 34 75  1  0
 34 76  1  0
 35 36  1  0
 35 77  1  0
 35 78  1  0
 36 37  1  1
 36 38  1  0
 37 79  1  0
 37 80  1  0
 37 81  1  0
 38 82  1  6
M  END
>  <i_m_ct_stereo_status>  (79) 
1

>  <s_m_source_file>  (79) 
/var/tmp/pbs.5076255.sched01/tmp7me73ahx/0ll6f151o.sdf

>  <i_m_source_file_index>  (79) 
32

>  <i_lp_mmshare_version>  (79) 
48012

>  <i_f3d_flags>  (79) 
0

>  <s_epik_input>  (79) 
W0NIXTE9W0NIXVtDQEBIXShbQ0BASF0yW09IXSlbQ0BASF0oW09IXSlbQ0BASF0oW09IXSlbQ0BAXTMoW0NIM10pW0NAXTIoW0NIM10pW0NAQEhdKFtDSF0xQzM0NSlbQ0BIXShbT0hdKVtDQEBIXShbQ0gzXSlbQ0BIXTVbQ0BAXTYoW0NIM10pW0NAXShbQ0gzXSkoW0NIMl1bQ0gyXTYpW0NASF03W0NAQEhdNE9DOChPQzc9TylbQ0gyXVtDSDJdW0NIMl1bQ0gyXTg=

>  <s_epik_cmdline>  (79) 
J2VwaWtfcHl0aG9uJywgJy1waHQnLCAnMi4wJywgJy1waCcsICc3LjAnLCAnLXRuJywgJzgnLCAnLW1hJywgJzIwMCcsICctaW1hZScsICc8aW5maWxlLm1hZT4nLCAnLW9tYWUnLCAnPG91dGZpbGUubWFlPic=

>  <r_lp_tautomer_probability>  (79) 
1

>  <r_epik_Ionization_Penalty>  (79) 
1.29603e-06

>  <r_epik_Ionization_Penalty_Charging>  (79) 
0

>  <r_epik_Ionization_Penalty_Neutral>  (79) 
1.29603e-06

>  <r_epik_State_Penalty>  (79) 
-0

>  <r_epik_Charging_Adjusted_Penalty>  (79) 
0

>  <i_epik_Tot_Q>  (79) 
0

>  <i_epik_Tot_abs_Q>  (79) 
0

>  <s_epik_Chemistry_Notes>  (79) 
This compound has an ester and may undergo hydrolysis at high or low pH.

>  <s_lp_Force_Field>  (79) 
OPLS3e

>  <r_lp_Energy>  (79) 
134.123

>  <b_lp_Chiralities_Consistent>  (79) 
1

>  <s_lp_Variant>  (79) 
26:0-1

>  <s_i_glide_gridfile>  (79) 
pfpi4k_grid

>  <i_i_glide_lignum>  (79) 
32

>  <i_i_glide_rotatable_bonds>  (79) 
4

>  <r_i_docking_score>  (79) 
-2.31158

>  <r_i_glide_ligand_efficiency>  (79) 
-0.0608311

>  <r_i_glide_ligand_efficiency_sa>  (79) 
-0.204513

>  <r_i_glide_ligand_efficiency_ln>  (79) 
-0.498445

>  <r_i_glide_gscore>  (79) 
-2.31158

>  <r_i_glide_lipo>  (79) 
-0.10435

>  <r_i_glide_hbond>  (79) 
-0.0209551

>  <r_i_glide_metal>  (79) 
-0

>  <r_i_glide_rewards>  (79) 
-0.5

>  <r_i_glide_evdw>  (79) 
-20.8175

>  <r_i_glide_ecoul>  (79) 
-4.30266

>  <r_i_glide_erotb>  (79) 
0

>  <r_i_glide_esite>  (79) 
0

>  <r_i_glide_emodel>  (79) 
-33.1826

>  <r_i_glide_energy>  (79) 
-25.1202

>  <r_i_glide_einternal>  (79) 
1.15554

>  <r_i_glide_intrahb_reward>  (79) 
-0.5

>  <i_i_glide_confnum>  (79) 
3

>  <i_i_glide_posenum>  (79) 
9

>  <r_i_glide_eff_state_penalty>  (79) 
0

>  <ligand_id>  (79) 
26

>  <original_smiles>  (79) 
CC1C(O)C2C3C=CC4C(O)C(O)C(C)(C2(C)C4O)C32C3OC4(CCCC4)OC(=O)C3C3(C)CCC3(C)C12

>  <smiles>  (79) 
[H]OC1([H])C([H])(O[H])C2(C([H])([H])[H])C3(C([H])([H])[H])C([H])(O[H])C1([H])C([H])=C([H])C1([H])C3([H])C([H])(O[H])C([H])(C([H])([H])[H])C3([H])C4(C([H])([H])[H])C([H])([H])C([H])([H])C4(C([H])([H])[H])C4([H])C(=O)OC5(OC4([H])C132)C([H])([H])C([H])([H])C([H])([H])C5([H])[H]

$$$$
26:0:2
     RDKit          3D

 82 89  0  0  1  0  0  0  0  0999 V2000
   -1.0836   -8.5643    4.2899 C   0  0  0  0  0  0  0  0  0  0  0  0
    0.4415   -8.4253    4.0929 C   0  0  2  0  0  0  0  0  0  0  0  0
    1.2871   -9.6899    4.3587 C   0  0  1  0  0  0  0  0  0  0  0  0
    0.8031  -10.7899    3.6297 O   0  0  0  0  0  0  0  0  0  0  0  0
    2.8030   -9.4317    4.0996 C   0  0  2  0  0  0  0  0  0  0  0  0
    3.2182   -8.3144    5.0548 C   0  0  1  0  0  0  0  0  0  0  0  0
    4.6585   -8.3863    5.5235 C   0  0  0  0  0  0  0  0  0  0  0  0
    5.7635   -8.5160    4.7733 C   0  0  0  0  0  0  0  0  0  0  0  0
    5.8280   -8.4721    3.2685 C   0  0  2  0  0  0  0  0  0  0  0  0
    5.7748   -6.9981    2.8545 C   0  0  1  0  0  0  0  0  0  0  0  0
    6.8703   -6.6646    2.0256 O   0  0  0  0  0  0  0  0  0  0  0  0
    4.4160   -6.5937    2.2412 C   0  0  1  0  0  0  0  0  0  0  0  0
    4.5390   -6.7840    0.8385 O   0  0  0  0  0  0  0  0  0  0  0  0
    3.0903   -7.2957    2.7869 C   0  0  1  0  0  0  0  0  0  0  0  0
    2.0241   -6.6588    1.8103 C   0  0  0  0  0  0  0  0  0  0  0  0
    3.2638   -8.8871    2.7007 C   0  0  2  0  0  0  0  0  0  0  0  0
    2.4995   -9.5568    1.5329 C   0  0  0  0  0  0  0  0  0  0  0  0
    4.7720   -9.3480    2.5558 C   0  0  1  0  0  0  0  0  0  0  0  0
    5.1884   -9.4857    1.2045 O   0  0  0  0  0  0  0  0  0  0  0  0
    2.6848   -7.0443    4.3419 C   0  0  2  0  0  0  0  0  0  0  0  0
    3.2574   -5.7046    4.9095 C   0  0  1  0  0  0  0  0  0  0  0  0
    2.9209   -4.6221    4.0514 O   0  0  0  0  0  0  0  0  0  0  0  0
    3.4475   -3.3653    4.4100 C   0  0  0  0  0  0  0  0  0  0  0  0
    2.8547   -2.3152    3.4643 C   0  0  0  0  0  0  0  0  0  0  0  0
    3.7411   -2.3791    2.2106 C   0  0  0  0  0  0  0  0  0  0  0  0
    5.1379   -2.8152    2.6856 C   0  0  0  0  0  0  0  0  0  0  0  0
    4.9768   -3.2782    4.1399 C   0  0  0  0  0  0  0  0  0  0  0  0
    3.1832   -2.9794    5.7325 O   0  0  0  0  0  0  0  0  0  0  0  0
    3.4632   -3.9215    6.6642 C   0  0  0  0  0  0  0  0  0  0  0  0
    3.9792   -3.6987    7.7515 O   0  0  0  0  0  0  0  0  0  0  0  0
    2.8968   -5.3201    6.3562 C   0  0  1  0  0  0  0  0  0  0  0  0
    1.4086   -5.4791    6.7594 C   0  0  1  0  0  0  0  0  0  0  0  0
    1.3546   -5.3772    8.3071 C   0  0  0  0  0  0  0  0  0  0  0  0
    0.3652   -4.5776    6.0822 C   0  0  0  0  0  0  0  0  0  0  0  0
   -0.5789   -5.7637    6.1023 C   0  0  0  0  0  0  0  0  0  0  0  0
    0.6550   -6.6905    6.1182 C   0  0  2  0  0  0  0  0  0  0  0  0
    0.5213   -7.8747    7.1122 C   0  0  0  0  0  0  0  0  0  0  0  0
    1.1150   -7.1147    4.6531 C   0  0  2  0  0  0  0  0  0  0  0  0
   -1.4031   -8.6836    5.3195 H   0  0  0  0  0  0  0  0  0  0  0  0
   -1.4574   -9.4263    3.7357 H   0  0  0  0  0  0  0  0  0  0  0  0
   -1.6084   -7.6988    3.8878 H   0  0  0  0  0  0  0  0  0  0  0  0
    0.4447   -8.3724    3.0230 H   0  0  0  0  0  0  0  0  0  0  0  0
    1.1921  -10.0090    5.3939 H   0  0  0  0  0  0  0  0  0  0  0  0
   -0.0442  -11.0396    4.0020 H   0  0  0  0  0  0  0  0  0  0  0  0
    3.3081  -10.3608    4.3635 H   0  0  0  0  0  0  0  0  0  0  0  0
    2.7211   -8.4702    6.0022 H   0  0  0  0  0  0  0  0  0  0  0  0
    4.7846   -8.3680    6.5969 H   0  0  0  0  0  0  0  0  0  0  0  0
    6.7220   -8.5638    5.2692 H   0  0  0  0  0  0  0  0  0  0  0  0
    6.8164   -8.8786    3.0388 H   0  0  0  0  0  0  0  0  0  0  0  0
    5.9569   -6.3777    3.7311 H   0  0  0  0  0  0  0  0  0  0  0  0
    6.8377   -7.2260    1.2548 H   0  0  0  0  0  0  0  0  0  0  0  0
    4.3332   -5.5163    2.3573 H   0  0  0  0  0  0  0  0  0  0  0  0
    4.6524   -7.7240    0.6875 H   0  0  0  0  0  0  0  0  0  0  0  0
    0.9754   -6.7849    2.0156 H   0  0  0  0  0  0  0  0  0  0  0  0
    2.1293   -7.0223    0.7920 H   0  0  0  0  0  0  0  0  0  0  0  0
    2.1548   -5.5795    1.7576 H   0  0  0  0  0  0  0  0  0  0  0  0
    2.8486   -9.2406    0.5554 H   0  0  0  0  0  0  0  0  0  0  0  0
    1.4337   -9.3790    1.5262 H   0  0  0  0  0  0  0  0  0  0  0  0
    2.6369  -10.6423    1.5931 H   0  0  0  0  0  0  0  0  0  0  0  0
    4.8837  -10.3589    2.9472 H   0  0  0  0  0  0  0  0  0  0  0  0
    4.8486  -10.3211    0.8917 H   0  0  0  0  0  0  0  0  0  0  0  0
    4.3326   -5.8182    4.9182 H   0  0  0  0  0  0  0  0  0  0  0  0
    1.8024   -2.4897    3.2594 H   0  0  0  0  0  0  0  0  0  0  0  0
    2.9568   -1.3302    3.9188 H   0  0  0  0  0  0  0  0  0  0  0  0
    3.3545   -3.1196    1.5084 H   0  0  0  0  0  0  0  0  0  0  0  0
    3.7835   -1.4207    1.6873 H   0  0  0  0  0  0  0  0  0  0  0  0
    5.5248   -3.6109    2.0519 H   0  0  0  0  0  0  0  0  0  0  0  0
    5.8539   -1.9939    2.6317 H   0  0  0  0  0  0  0  0  0  0  0  0
    5.3964   -2.5030    4.7854 H   0  0  0  0  0  0  0  0  0  0  0  0
    5.5320   -4.1900    4.3502 H   0  0  0  0  0  0  0  0  0  0  0  0
    3.4759   -6.0024    6.9922 H   0  0  0  0  0  0  0  0  0  0  0  0
    0.3507   -5.5463    8.6975 H   0  0  0  0  0  0  0  0  0  0  0  0
    1.6381   -4.3924    8.6802 H   0  0  0  0  0  0  0  0  0  0  0  0
    2.0087   -6.1049    8.7929 H   0  0  0  0  0  0  0  0  0  0  0  0
    0.0385   -3.7421    6.6964 H   0  0  0  0  0  0  0  0  0  0  0  0
    0.6313   -4.2552    5.0793 H   0  0  0  0  0  0  0  0  0  0  0  0
   -1.1762   -5.7955    7.0112 H   0  0  0  0  0  0  0  0  0  0  0  0
   -1.2001   -5.8526    5.2212 H   0  0  0  0  0  0  0  0  0  0  0  0
    0.1316   -8.7938    6.6988 H   0  0  0  0  0  0  0  0  0  0  0  0
   -0.1771   -7.6361    7.9160 H   0  0  0  0  0  0  0  0  0  0  0  0
    1.4594   -8.1183    7.6146 H   0  0  0  0  0  0  0  0  0  0  0  0
    0.6977   -6.3275    4.0324 H   0  0  0  0  0  0  0  0  0  0  0  0
  1  2  1  0
  1 39  1  0
  1 40  1  0
  1 41  1  0
  2 38  1  0
  2  3  1  0
  2 42  1  6
  3  4  1  0
  3  5  1  0
  3 43  1  1
  4 44  1  0
  5 16  1  0
  5  6  1  0
  5 45  1  1
  6 20  1  0
  6  7  1  0
  6 46  1  1
  7  8  2  0
  7 47  1  0
  8  9  1  0
  8 48  1  0
  9 18  1  0
  9 10  1  0
  9 49  1  1
 10 11  1  0
 10 12  1  0
 10 50  1  1
 11 51  1  0
 12 13  1  0
 12 14  1  0
 12 52  1  6
 13 53  1  0
 14 15  1  6
 14 16  1  0
 20 14  1  6
 15 54  1  0
 15 55  1  0
 15 56  1  0
 16 17  1  6
 16 18  1  0
 17 57  1  0
 17 58  1  0
 17 59  1  0
 18 19  1  0
 18 60  1  1
 19 61  1  0
 20 38  1  0
 20 21  1  0
 21 31  1  0
 21 22  1  0
 21 62  1  1
 22 23  1  0
 23 27  1  0
 23 24  1  0
 23 28  1  0
 24 25  1  0
 24 63  1  0
 24 64  1  0
 25 26  1  0
 25 65  1  0
 25 66  1  0
 26 27  1  0
 26 67  1  0
 26 68  1  0
 27 69  1  0
 27 70  1  0
 28 29  1  0
 29 30  2  0
 29 31  1  0
 31 32  1  0
 31 71  1  1
 32 36  1  0
 32 33  1  1
 32 34  1  0
 33 72  1  0
 33 73  1  0
 33 74  1  0
 34 35  1  0
 34 75  1  0
 34 76  1  0
 35 36  1  0
 35 77  1  0
 35 78  1  0
 36 37  1  1
 36 38  1  0
 37 79  1  0
 37 80  1  0
 37 81  1  0
 38 82  1  6
M  END
>  <i_m_ct_stereo_status>  (80) 
1

>  <s_m_source_file>  (80) 
/var/tmp/pbs.5076255.sched01/tmp7me73ahx/0ll6f151o.sdf

>  <i_m_source_file_index>  (80) 
32

>  <i_lp_mmshare_version>  (80) 
48012

>  <i_f3d_flags>  (80) 
0

>  <s_epik_input>  (80) 
W0NIXTE9W0NIXVtDQEBIXShbQ0BASF0yW09IXSlbQ0BASF0oW09IXSlbQ0BASF0oW09IXSlbQ0BAXTMoW0NIM10pW0NAXTIoW0NIM10pW0NAQEhdKFtDSF0xQzM0NSlbQ0BIXShbT0hdKVtDQEBIXShbQ0gzXSlbQ0BIXTVbQ0BAXTYoW0NIM10pW0NAXShbQ0gzXSkoW0NIMl1bQ0gyXTYpW0NASF03W0NAQEhdNE9DOChPQzc9TylbQ0gyXVtDSDJdW0NIMl1bQ0gyXTg=

>  <s_epik_cmdline>  (80) 
J2VwaWtfcHl0aG9uJywgJy1waHQnLCAnMi4wJywgJy1waCcsICc3LjAnLCAnLXRuJywgJzgnLCAnLW1hJywgJzIwMCcsICctaW1hZScsICc8aW5maWxlLm1hZT4nLCAnLW9tYWUnLCAnPG91dGZpbGUubWFlPic=

>  <r_lp_tautomer_probability>  (80) 
1

>  <r_epik_Ionization_Penalty>  (80) 
1.29603e-06

>  <r_epik_Ionization_Penalty_Charging>  (80) 
0

>  <r_epik_Ionization_Penalty_Neutral>  (80) 
1.29603e-06

>  <r_epik_State_Penalty>  (80) 
-0

>  <r_epik_Charging_Adjusted_Penalty>  (80) 
0

>  <i_epik_Tot_Q>  (80) 
0

>  <i_epik_Tot_abs_Q>  (80) 
0

>  <s_epik_Chemistry_Notes>  (80) 
This compound has an ester and may undergo hydrolysis at high or low pH.

>  <s_lp_Force_Field>  (80) 
OPLS3e

>  <r_lp_Energy>  (80) 
134.123

>  <b_lp_Chiralities_Consistent>  (80) 
1

>  <s_lp_Variant>  (80) 
26:0-1

>  <s_i_glide_gridfile>  (80) 
pfpi4k_grid

>  <i_i_glide_lignum>  (80) 
32

>  <i_i_glide_rotatable_bonds>  (80) 
4

>  <r_i_docking_score>  (80) 
-2.06428

>  <r_i_glide_ligand_efficiency>  (80) 
-0.0543231

>  <r_i_glide_ligand_efficiency_sa>  (80) 
-0.182633

>  <r_i_glide_ligand_efficiency_ln>  (80) 
-0.445119

>  <r_i_glide_gscore>  (80) 
-2.06428

>  <r_i_glide_lipo>  (80) 
-0.134271

>  <r_i_glide_hbond>  (80) 
-0.0103802

>  <r_i_glide_metal>  (80) 
-0

>  <r_i_glide_rewards>  (80) 
-0.5

>  <r_i_glide_evdw>  (80) 
-22.1375

>  <r_i_glide_ecoul>  (80) 
-2.08501

>  <r_i_glide_erotb>  (80) 
0

>  <r_i_glide_esite>  (80) 
0

>  <r_i_glide_emodel>  (80) 
-31.8651

>  <r_i_glide_energy>  (80) 
-24.2225

>  <r_i_glide_einternal>  (80) 
0.914083

>  <r_i_glide_intrahb_reward>  (80) 
-0.5

>  <i_i_glide_confnum>  (80) 
3

>  <i_i_glide_posenum>  (80) 
20

>  <r_i_glide_eff_state_penalty>  (80) 
0

>  <ligand_id>  (80) 
26

>  <original_smiles>  (80) 
CC1C(O)C2C3C=CC4C(O)C(O)C(C)(C2(C)C4O)C32C3OC4(CCCC4)OC(=O)C3C3(C)CCC3(C)C12

>  <smiles>  (80) 
[H]OC1([H])C([H])(O[H])C2(C([H])([H])[H])C3(C([H])([H])[H])C([H])(O[H])C1([H])C([H])=C([H])C1([H])C3([H])C([H])(O[H])C([H])(C([H])([H])[H])C3([H])C4(C([H])([H])[H])C([H])([H])C([H])([H])C4(C([H])([H])[H])C4([H])C(=O)OC5(OC4([H])C132)C([H])([H])C([H])([H])C([H])([H])C5([H])[H]

$$$$
27:0:0
     RDKit          3D

 51 56  0  0  1  0  0  0  0  0999 V2000
   -0.2979   -9.4713    6.9615 O   0  0  0  0  0  0  0  0  0  0  0  0
    0.8145   -9.0697    6.6193 C   0  0  0  0  0  0  0  0  0  0  0  0
    1.5287   -9.6921    5.4448 C   0  0  0  0  0  0  0  0  0  0  0  0
    2.7581  -10.3461    5.6948 C   0  0  0  0  0  0  0  0  0  0  0  0
    3.4802  -10.9811    4.6694 C   0  0  0  0  0  0  0  0  0  0  0  0
    2.9657  -10.9915    3.3643 C   0  0  0  0  0  0  0  0  0  0  0  0
    1.7448  -10.3496    3.0951 C   0  0  0  0  0  0  0  0  0  0  0  0
    1.0096   -9.6900    4.1125 C   0  0  0  0  0  0  0  0  0  0  0  0
   -0.1982   -9.0271    3.7237 N   0  0  0  0  0  0  0  0  0  0  0  0
   -0.9495   -9.4475    2.6648 N   0  0  0  0  0  0  0  0  0  0  0  0
   -1.9380   -8.5964    2.6329 C   0  0  0  0  0  0  0  0  0  0  0  0
   -1.7824   -7.6533    3.6765 C   0  0  0  0  0  0  0  0  0  0  0  0
   -0.6679   -7.8881    4.3177 N   0  0  0  0  0  0  0  0  0  0  0  0
    1.4489   -8.0761    7.2845 N   0  0  0  0  0  0  0  0  0  0  0  0
    1.0034   -7.4606    8.5280 C   0  0  1  0  0  0  0  0  0  0  0  0
    2.2988   -7.3681    9.3488 C   0  0  0  0  0  0  0  0  0  0  0  0
    3.4163   -7.3213    8.2981 C   0  0  0  0  0  0  0  0  0  0  0  0
    2.6847   -7.3817    6.9505 C   0  0  2  0  0  0  0  0  0  0  0  0
    2.2892   -5.9901    6.4106 C   0  0  0  0  0  0  0  0  0  0  0  0
    1.4418   -5.1734    7.4211 C   0  0  1  0  0  0  0  0  0  0  0  0
    0.7763   -4.0029    6.7612 C   0  0  0  0  0  0  0  0  0  0  0  0
   -0.5547   -3.6745    6.7059 C   0  0  0  0  0  0  0  0  0  0  0  0
   -0.6418   -2.5085    5.9698 N   0  0  0  0  0  0  0  0  0  0  0  0
   -1.7907   -1.8445    5.6783 N   0  0  0  0  0  0  0  0  0  0  0  0
   -1.5643   -0.7557    4.9459 C   0  0  0  0  0  0  0  0  0  0  0  0
   -0.3051   -0.2856    4.5012 C   0  0  0  0  0  0  0  0  0  0  0  0
    0.8240   -0.9914    4.8339 C   0  0  0  0  0  0  0  0  0  0  0  0
    0.6809   -2.1654    5.6090 C   0  0  0  0  0  0  0  0  0  0  0  0
    1.5412   -3.0527    6.1048 N   0  0  0  0  0  0  0  0  0  0  0  0
    0.4257   -6.0718    8.1777 C   0  0  0  0  0  0  0  0  0  0  0  0
    3.1518  -10.3711    6.6995 H   0  0  0  0  0  0  0  0  0  0  0  0
    4.4161  -11.4742    4.8909 H   0  0  0  0  0  0  0  0  0  0  0  0
    3.5029  -11.4837    2.5667 H   0  0  0  0  0  0  0  0  0  0  0  0
    1.3740  -10.3610    2.0820 H   0  0  0  0  0  0  0  0  0  0  0  0
   -2.7182   -8.7012    1.8920 H   0  0  0  0  0  0  0  0  0  0  0  0
   -2.4309   -6.8488    3.9903 H   0  0  0  0  0  0  0  0  0  0  0  0
    0.2503   -8.0579    9.0487 H   0  0  0  0  0  0  0  0  0  0  0  0
    2.3076   -6.4958   10.0031 H   0  0  0  0  0  0  0  0  0  0  0  0
    2.4093   -8.2558    9.9726 H   0  0  0  0  0  0  0  0  0  0  0  0
    4.0384   -6.4307    8.3824 H   0  0  0  0  0  0  0  0  0  0  0  0
    4.0635   -8.1908    8.4103 H   0  0  0  0  0  0  0  0  0  0  0  0
    3.3078   -7.8762    6.2070 H   0  0  0  0  0  0  0  0  0  0  0  0
    3.1895   -5.4319    6.1415 H   0  0  0  0  0  0  0  0  0  0  0  0
    1.7288   -6.1226    5.4819 H   0  0  0  0  0  0  0  0  0  0  0  0
    2.1366   -4.7867    8.1658 H   0  0  0  0  0  0  0  0  0  0  0  0
   -1.4422   -4.1461    7.0994 H   0  0  0  0  0  0  0  0  0  0  0  0
   -2.4569   -0.1931    4.6787 H   0  0  0  0  0  0  0  0  0  0  0  0
   -0.2335    0.6190    3.9078 H   0  0  0  0  0  0  0  0  0  0  0  0
    1.8122   -0.6734    4.5170 H   0  0  0  0  0  0  0  0  0  0  0  0
   -0.4514   -6.2441    7.5563 H   0  0  0  0  0  0  0  0  0  0  0  0
    0.0817   -5.5573    9.0761 H   0  0  0  0  0  0  0  0  0  0  0  0
  1  2  2  0
  2  3  1  0
  2 14  1  0
  3  8  1  0
  3  4  2  0
  4  5  1  0
  4 31  1  0
  5  6  2  0
  5 32  1  0
  6  7  1  0
  6 33  1  0
  7  8  2  0
  7 34  1  0
  8  9  1  0
  9 13  1  0
  9 10  1  0
 10 11  2  0
 11 12  1  0
 11 35  1  0
 12 13  2  0
 12 36  1  0
 14 18  1  0
 14 15  1  0
 15 30  1  0
 15 16  1  0
 15 37  1  1
 16 17  1  0
 16 38  1  0
 16 39  1  0
 17 18  1  0
 17 40  1  0
 17 41  1  0
 18 19  1  0
 18 42  1  6
 19 20  1  0
 19 43  1  0
 19 44  1  0
 20 21  1  0
 20 30  1  0
 20 45  1  1
 21 29  1  0
 21 22  2  0
 22 23  1  0
 22 46  1  0
 23 28  1  0
 23 24  1  0
 24 25  2  0
 25 26  1  0
 25 47  1  0
 26 27  2  0
 26 48  1  0
 27 28  1  0
 27 49  1  0
 28 29  2  0
 30 50  1  0
 30 51  1  0
M  END
>  <i_m_ct_stereo_status>  (81) 
1

>  <s_m_source_file>  (81) 
/var/tmp/pbs.5076255.sched01/tmp7me73ahx/0ll6f151o.sdf

>  <i_m_source_file_index>  (81) 
33

>  <i_lp_mmshare_version>  (81) 
48012

>  <i_f3d_flags>  (81) 
0

>  <s_epik_input>  (81) 
bjFbY0hdW2NIXVtjSF1jKG4xMiluYyhbY0hdMilbQ0BASF0oW0NIMl0zKVtDSDJdW0NAQEhdKFtDSDJdW0NIMl00KU4oW0NASF0zNClDKD1PKWM1W2NIXVtjSF1bY0hdW2NIXWM1LW42bltjSF1bY0hdbjY=

>  <s_epik_cmdline>  (81) 
J2VwaWtfcHl0aG9uJywgJy1waHQnLCAnMi4wJywgJy1waCcsICc3LjAnLCAnLXRuJywgJzgnLCAnLW1hJywgJzIwMCcsICctaW1hZScsICc8aW5maWxlLm1hZT4nLCAnLW9tYWUnLCAnPG91dGZpbGUubWFlPic=

>  <r_lp_tautomer_probability>  (81) 
1

>  <r_epik_Ionization_Penalty>  (81) 
0.0167254

>  <r_epik_Ionization_Penalty_Charging>  (81) 
0

>  <r_epik_Ionization_Penalty_Neutral>  (81) 
0.0167254

>  <r_epik_State_Penalty>  (81) 
0.0132176

>  <r_epik_Charging_Adjusted_Penalty>  (81) 
0.0132176

>  <i_epik_Tot_Q>  (81) 
0

>  <i_epik_Tot_abs_Q>  (81) 
0

>  <s_lp_Force_Field>  (81) 
OPLS3e

>  <r_lp_Energy>  (81) 
42.2107

>  <b_lp_Chiralities_Consistent>  (81) 
1

>  <s_lp_Variant>  (81) 
27:0-1

>  <s_i_glide_gridfile>  (81) 
pfpi4k_grid

>  <i_i_glide_lignum>  (81) 
33

>  <i_i_glide_rotatable_bonds>  (81) 
4

>  <r_i_docking_score>  (81) 
-2.27423

>  <r_i_glide_ligand_efficiency>  (81) 
-0.0758077

>  <r_i_glide_ligand_efficiency_sa>  (81) 
-0.235552

>  <r_i_glide_ligand_efficiency_ln>  (81) 
-0.51673

>  <r_i_glide_gscore>  (81) 
-2.27423

>  <r_i_glide_lipo>  (81) 
-0.203104

>  <r_i_glide_hbond>  (81) 
0

>  <r_i_glide_metal>  (81) 
-0

>  <r_i_glide_rewards>  (81) 
-0.685579

>  <r_i_glide_evdw>  (81) 
-32.1242

>  <r_i_glide_ecoul>  (81) 
-0.655265

>  <r_i_glide_erotb>  (81) 
0.491218

>  <r_i_glide_esite>  (81) 
-0.172267

>  <r_i_glide_emodel>  (81) 
-35.4894

>  <r_i_glide_energy>  (81) 
-32.7795

>  <r_i_glide_einternal>  (81) 
3.47449

>  <r_i_glide_intrahb_reward>  (81) 
-0

>  <i_i_glide_confnum>  (81) 
2

>  <i_i_glide_posenum>  (81) 
29

>  <r_i_glide_eff_state_penalty>  (81) 
0

>  <ligand_id>  (81) 
27

>  <original_smiles>  (81) 
O=C(c1ccccc1-n1nccn1)N1C2CCC1CC(c1cn3ncccc3n1)C2

>  <smiles>  (81) 
[H]c1nn(-c2c([H])c([H])c([H])c([H])c2C(=O)N2C3([H])C([H])([H])C([H])([H])C2([H])C([H])([H])C([H])(c2nc4c([H])c([H])c([H])nn4c2[H])C3([H])[H])nc1[H]

$$$$
27:0:1
     RDKit          3D

 51 56  0  0  1  0  0  0  0  0999 V2000
    5.7908   -1.1406    2.6751 O   0  0  0  0  0  0  0  0  0  0  0  0
    4.7308   -1.0762    2.0513 C   0  0  0  0  0  0  0  0  0  0  0  0
    4.6402   -1.7063    0.6803 C   0  0  0  0  0  0  0  0  0  0  0  0
    4.2749   -0.8896   -0.4041 C   0  0  0  0  0  0  0  0  0  0  0  0
    4.1638   -1.3778   -1.7135 C   0  0  0  0  0  0  0  0  0  0  0  0
    4.4827   -2.7174   -1.9738 C   0  0  0  0  0  0  0  0  0  0  0  0
    4.8880   -3.5527   -0.9149 C   0  0  0  0  0  0  0  0  0  0  0  0
    4.9675   -3.0692    0.4155 C   0  0  0  0  0  0  0  0  0  0  0  0
    5.3547   -3.9900    1.4295 N   0  0  0  0  0  0  0  0  0  0  0  0
    6.3702   -4.8815    1.2439 N   0  0  0  0  0  0  0  0  0  0  0  0
    6.3964   -5.5409    2.3724 C   0  0  0  0  0  0  0  0  0  0  0  0
    5.3903   -5.0432    3.2374 C   0  0  0  0  0  0  0  0  0  0  0  0
    4.7264   -4.0918    2.6352 N   0  0  0  0  0  0  0  0  0  0  0  0
    3.6386   -0.4296    2.5351 N   0  0  0  0  0  0  0  0  0  0  0  0
    3.5715    0.3404    3.7770 C   0  0  1  0  0  0  0  0  0  0  0  0
    2.7733    1.5974    3.3773 C   0  0  0  0  0  0  0  0  0  0  0  0
    1.9416    1.1578    2.1679 C   0  0  0  0  0  0  0  0  0  0  0  0
    2.2907   -0.3234    1.9792 C   0  0  2  0  0  0  0  0  0  0  0  0
    1.3915   -1.2633    2.7954 C   0  0  0  0  0  0  0  0  0  0  0  0
    1.3949   -0.9206    4.3020 C   0  0  1  0  0  0  0  0  0  0  0  0
    0.8044   -2.0294    5.1107 C   0  0  0  0  0  0  0  0  0  0  0  0
   -0.3274   -2.0411    5.8825 C   0  0  0  0  0  0  0  0  0  0  0  0
   -0.4130   -3.3103    6.4308 N   0  0  0  0  0  0  0  0  0  0  0  0
   -1.3829   -3.7478    7.2769 N   0  0  0  0  0  0  0  0  0  0  0  0
   -1.1933   -5.0144    7.6324 C   0  0  0  0  0  0  0  0  0  0  0  0
   -0.1373   -5.8628    7.2236 C   0  0  0  0  0  0  0  0  0  0  0  0
    0.8155   -5.3713    6.3671 C   0  0  0  0  0  0  0  0  0  0  0  0
    0.6955   -4.0292    5.9330 C   0  0  0  0  0  0  0  0  0  0  0  0
    1.4281   -3.2671    5.1312 N   0  0  0  0  0  0  0  0  0  0  0  0
    2.8029   -0.5160    4.8130 C   0  0  0  0  0  0  0  0  0  0  0  0
    4.0605    0.1480   -0.2100 H   0  0  0  0  0  0  0  0  0  0  0  0
    3.8187   -0.7281   -2.5050 H   0  0  0  0  0  0  0  0  0  0  0  0
    4.3939   -3.1160   -2.9757 H   0  0  0  0  0  0  0  0  0  0  0  0
    5.1239   -4.5845   -1.1278 H   0  0  0  0  0  0  0  0  0  0  0  0
    7.1194   -6.3282    2.5303 H   0  0  0  0  0  0  0  0  0  0  0  0
    5.1410   -5.3376    4.2468 H   0  0  0  0  0  0  0  0  0  0  0  0
    4.5593    0.6049    4.1659 H   0  0  0  0  0  0  0  0  0  0  0  0
    2.1632    1.9817    4.1951 H   0  0  0  0  0  0  0  0  0  0  0  0
    3.4285    2.4088    3.0735 H   0  0  0  0  0  0  0  0  0  0  0  0
    0.8735    1.3139    2.3117 H   0  0  0  0  0  0  0  0  0  0  0  0
    2.2416    1.7236    1.2846 H   0  0  0  0  0  0  0  0  0  0  0  0
    2.1845   -0.5980    0.9319 H   0  0  0  0  0  0  0  0  0  0  0  0
    0.3764   -1.2247    2.4048 H   0  0  0  0  0  0  0  0  0  0  0  0
    1.7461   -2.2841    2.6366 H   0  0  0  0  0  0  0  0  0  0  0  0
    0.7571   -0.0417    4.4098 H   0  0  0  0  0  0  0  0  0  0  0  0
   -1.0622   -1.2825    6.0995 H   0  0  0  0  0  0  0  0  0  0  0  0
   -1.9507   -5.4111    8.3037 H   0  0  0  0  0  0  0  0  0  0  0  0
   -0.0790   -6.8850    7.5732 H   0  0  0  0  0  0  0  0  0  0  0  0
    1.6435   -5.9825    6.0234 H   0  0  0  0  0  0  0  0  0  0  0  0
    3.3934   -1.4128    5.0114 H   0  0  0  0  0  0  0  0  0  0  0  0
    2.7146    0.0111    5.7659 H   0  0  0  0  0  0  0  0  0  0  0  0
  1  2  2  0
  2  3  1  0
  2 14  1  0
  3  8  1  0
  3  4  2  0
  4  5  1  0
  4 31  1  0
  5  6  2  0
  5 32  1  0
  6  7  1  0
  6 33  1  0
  7  8  2  0
  7 34  1  0
  8  9  1  0
  9 13  1  0
  9 10  1  0
 10 11  2  0
 11 12  1  0
 11 35  1  0
 12 13  2  0
 12 36  1  0
 14 18  1  0
 14 15  1  0
 15 30  1  0
 15 16  1  0
 15 37  1  1
 16 17  1  0
 16 38  1  0
 16 39  1  0
 17 18  1  0
 17 40  1  0
 17 41  1  0
 18 19  1  0
 18 42  1  6
 19 20  1  0
 19 43  1  0
 19 44  1  0
 20 21  1  0
 20 30  1  0
 20 45  1  6
 21 29  1  0
 21 22  2  0
 22 23  1  0
 22 46  1  0
 23 28  1  0
 23 24  1  0
 24 25  2  0
 25 26  1  0
 25 47  1  0
 26 27  2  0
 26 48  1  0
 27 28  1  0
 27 49  1  0
 28 29  2  0
 30 50  1  0
 30 51  1  0
M  END
>  <i_m_ct_stereo_status>  (82) 
1

>  <s_m_source_file>  (82) 
/var/tmp/pbs.5076255.sched01/tmp7me73ahx/0ll6f151o.sdf

>  <i_m_source_file_index>  (82) 
33

>  <i_lp_mmshare_version>  (82) 
48012

>  <i_f3d_flags>  (82) 
0

>  <s_epik_input>  (82) 
bjFbY0hdW2NIXVtjSF1jKG4xMiluYyhbY0hdMilbQ0BASF0oW0NIMl0zKVtDSDJdW0NAQEhdKFtDSDJdW0NIMl00KU4oW0NASF0zNClDKD1PKWM1W2NIXVtjSF1bY0hdW2NIXWM1LW42bltjSF1bY0hdbjY=

>  <s_epik_cmdline>  (82) 
J2VwaWtfcHl0aG9uJywgJy1waHQnLCAnMi4wJywgJy1waCcsICc3LjAnLCAnLXRuJywgJzgnLCAnLW1hJywgJzIwMCcsICctaW1hZScsICc8aW5maWxlLm1hZT4nLCAnLW9tYWUnLCAnPG91dGZpbGUubWFlPic=

>  <r_lp_tautomer_probability>  (82) 
1

>  <r_epik_Ionization_Penalty>  (82) 
0.0167254

>  <r_epik_Ionization_Penalty_Charging>  (82) 
0

>  <r_epik_Ionization_Penalty_Neutral>  (82) 
0.0167254

>  <r_epik_State_Penalty>  (82) 
0.0132176

>  <r_epik_Charging_Adjusted_Penalty>  (82) 
0.0132176

>  <i_epik_Tot_Q>  (82) 
0

>  <i_epik_Tot_abs_Q>  (82) 
0

>  <s_lp_Force_Field>  (82) 
OPLS3e

>  <r_lp_Energy>  (82) 
42.2107

>  <b_lp_Chiralities_Consistent>  (82) 
1

>  <s_lp_Variant>  (82) 
27:0-1

>  <s_i_glide_gridfile>  (82) 
pfpi4k_grid

>  <i_i_glide_lignum>  (82) 
33

>  <i_i_glide_rotatable_bonds>  (82) 
4

>  <r_i_docking_score>  (82) 
-2.23792

>  <r_i_glide_ligand_efficiency>  (82) 
-0.0745975

>  <r_i_glide_ligand_efficiency_sa>  (82) 
-0.231792

>  <r_i_glide_ligand_efficiency_ln>  (82) 
-0.508481

>  <r_i_glide_gscore>  (82) 
-2.23792

>  <r_i_glide_lipo>  (82) 
-0.160476

>  <r_i_glide_hbond>  (82) 
0

>  <r_i_glide_metal>  (82) 
-0

>  <r_i_glide_rewards>  (82) 
-0.878334

>  <r_i_glide_evdw>  (82) 
-29.1632

>  <r_i_glide_ecoul>  (82) 
-1.36425

>  <r_i_glide_erotb>  (82) 
0.491218

>  <r_i_glide_esite>  (82) 
-0.0275335

>  <r_i_glide_emodel>  (82) 
-34.5838

>  <r_i_glide_energy>  (82) 
-30.5275

>  <r_i_glide_einternal>  (82) 
0.512025

>  <r_i_glide_intrahb_reward>  (82) 
-0

>  <i_i_glide_confnum>  (82) 
4

>  <i_i_glide_posenum>  (82) 
14

>  <r_i_glide_eff_state_penalty>  (82) 
0

>  <ligand_id>  (82) 
27

>  <original_smiles>  (82) 
O=C(c1ccccc1-n1nccn1)N1C2CCC1CC(c1cn3ncccc3n1)C2

>  <smiles>  (82) 
[H]c1nn(-c2c([H])c([H])c([H])c([H])c2C(=O)N2C3([H])C([H])([H])C([H])([H])C2([H])C([H])([H])C([H])(c2nc4c([H])c([H])c([H])nn4c2[H])C3([H])[H])nc1[H]

$$$$
27:0:2
     RDKit          3D

 51 56  0  0  1  0  0  0  0  0999 V2000
    3.3465   -7.6730    5.4604 O   0  0  0  0  0  0  0  0  0  0  0  0
    3.2151   -8.1320    4.3249 C   0  0  0  0  0  0  0  0  0  0  0  0
    1.8437   -8.5610    3.8578 C   0  0  0  0  0  0  0  0  0  0  0  0
    1.6717   -9.8771    3.3741 C   0  0  0  0  0  0  0  0  0  0  0  0
    0.4314  -10.3084    2.8804 C   0  0  0  0  0  0  0  0  0  0  0  0
   -0.6872   -9.4570    2.9429 C   0  0  0  0  0  0  0  0  0  0  0  0
   -0.5529   -8.1697    3.4835 C   0  0  0  0  0  0  0  0  0  0  0  0
    0.7037   -7.6977    3.9326 C   0  0  0  0  0  0  0  0  0  0  0  0
    0.7587   -6.3630    4.4205 N   0  0  0  0  0  0  0  0  0  0  0  0
   -0.1669   -5.8720    5.2921 N   0  0  0  0  0  0  0  0  0  0  0  0
    0.2166   -4.6345    5.4729 C   0  0  0  0  0  0  0  0  0  0  0  0
    1.3647   -4.3759    4.6864 C   0  0  0  0  0  0  0  0  0  0  0  0
    1.6820   -5.4481    4.0071 N   0  0  0  0  0  0  0  0  0  0  0  0
    4.2454   -8.2191    3.4449 N   0  0  0  0  0  0  0  0  0  0  0  0
    5.5812   -7.6473    3.6429 C   0  0  1  0  0  0  0  0  0  0  0  0
    6.5174   -8.7680    3.1555 C   0  0  0  0  0  0  0  0  0  0  0  0
    5.6665   -9.5631    2.1508 C   0  0  0  0  0  0  0  0  0  0  0  0
    4.3069   -8.8523    2.1241 C   0  0  2  0  0  0  0  0  0  0  0  0
    4.2370   -7.7235    1.0860 C   0  0  0  0  0  0  0  0  0  0  0  0
    5.3656   -6.6777    1.2697 C   0  0  1  0  0  0  0  0  0  0  0  0
    5.0830   -5.4246    0.4944 C   0  0  0  0  0  0  0  0  0  0  0  0
    3.8767   -4.9157    0.0838 C   0  0  0  0  0  0  0  0  0  0  0  0
    4.1494   -3.7590   -0.6101 N   0  0  0  0  0  0  0  0  0  0  0  0
    3.2348   -2.9501   -1.1852 N   0  0  0  0  0  0  0  0  0  0  0  0
    3.7914   -1.8936   -1.7618 C   0  0  0  0  0  0  0  0  0  0  0  0
    5.1752   -1.5988   -1.8205 C   0  0  0  0  0  0  0  0  0  0  0  0
    6.0672   -2.4686   -1.2324 C   0  0  0  0  0  0  0  0  0  0  0  0
    5.5509   -3.6118   -0.5775 C   0  0  0  0  0  0  0  0  0  0  0  0
    6.1256   -4.6111    0.0860 N   0  0  0  0  0  0  0  0  0  0  0  0
    5.6697   -6.3747    2.7588 C   0  0  0  0  0  0  0  0  0  0  0  0
    2.5081  -10.5658    3.3598 H   0  0  0  0  0  0  0  0  0  0  0  0
    0.3290  -11.3061    2.4867 H   0  0  0  0  0  0  0  0  0  0  0  0
   -1.6524   -9.8118    2.6053 H   0  0  0  0  0  0  0  0  0  0  0  0
   -1.4279   -7.5376    3.5572 H   0  0  0  0  0  0  0  0  0  0  0  0
   -0.3219   -3.9792    6.1434 H   0  0  0  0  0  0  0  0  0  0  0  0
    1.9462   -3.4684    4.5974 H   0  0  0  0  0  0  0  0  0  0  0  0
    5.7947   -7.3904    4.6843 H   0  0  0  0  0  0  0  0  0  0  0  0
    7.4331   -8.3822    2.7015 H   0  0  0  0  0  0  0  0  0  0  0  0
    6.8075   -9.4111    3.9913 H   0  0  0  0  0  0  0  0  0  0  0  0
    6.1206   -9.6311    1.1620 H   0  0  0  0  0  0  0  0  0  0  0  0
    5.5201  -10.5765    2.5199 H   0  0  0  0  0  0  0  0  0  0  0  0
    3.5236   -9.5722    1.8900 H   0  0  0  0  0  0  0  0  0  0  0  0
    4.2666   -8.1336    0.0772 H   0  0  0  0  0  0  0  0  0  0  0  0
    3.2615   -7.2561    1.2074 H   0  0  0  0  0  0  0  0  0  0  0  0
    6.2693   -7.1291    0.8637 H   0  0  0  0  0  0  0  0  0  0  0  0
    2.8531   -5.2494    0.1927 H   0  0  0  0  0  0  0  0  0  0  0  0
    3.0893   -1.2038   -2.2235 H   0  0  0  0  0  0  0  0  0  0  0  0
    5.5121   -0.7033   -2.3186 H   0  0  0  0  0  0  0  0  0  0  0  0
    7.1403   -2.3099   -1.2470 H   0  0  0  0  0  0  0  0  0  0  0  0
    4.9536   -5.6374    3.1305 H   0  0  0  0  0  0  0  0  0  0  0  0
    6.6591   -5.9139    2.8400 H   0  0  0  0  0  0  0  0  0  0  0  0
  1  2  2  0
  2  3  1  0
  2 14  1  0
  3  8  1  0
  3  4  2  0
  4  5  1  0
  4 31  1  0
  5  6  2  0
  5 32  1  0
  6  7  1  0
  6 33  1  0
  7  8  2  0
  7 34  1  0
  8  9  1  0
  9 13  1  0
  9 10  1  0
 10 11  2  0
 11 12  1  0
 11 35  1  0
 12 13  2  0
 12 36  1  0
 14 18  1  0
 14 15  1  0
 15 30  1  0
 15 16  1  0
 15 37  1  1
 16 17  1  0
 16 38  1  0
 16 39  1  0
 17 18  1  0
 17 40  1  0
 17 41  1  0
 18 19  1  0
 18 42  1  6
 19 20  1  0
 19 43  1  0
 19 44  1  0
 20 21  1  0
 20 30  1  0
 20 45  1  6
 21 29  1  0
 21 22  2  0
 22 23  1  0
 22 46  1  0
 23 28  1  0
 23 24  1  0
 24 25  2  0
 25 26  1  0
 25 47  1  0
 26 27  2  0
 26 48  1  0
 27 28  1  0
 27 49  1  0
 28 29  2  0
 30 50  1  0
 30 51  1  0
M  END
>  <i_m_ct_stereo_status>  (83) 
1

>  <s_m_source_file>  (83) 
/var/tmp/pbs.5076255.sched01/tmp7me73ahx/0ll6f151o.sdf

>  <i_m_source_file_index>  (83) 
33

>  <i_lp_mmshare_version>  (83) 
48012

>  <i_f3d_flags>  (83) 
0

>  <s_epik_input>  (83) 
bjFbY0hdW2NIXVtjSF1jKG4xMiluYyhbY0hdMilbQ0BASF0oW0NIMl0zKVtDSDJdW0NAQEhdKFtDSDJdW0NIMl00KU4oW0NASF0zNClDKD1PKWM1W2NIXVtjSF1bY0hdW2NIXWM1LW42bltjSF1bY0hdbjY=

>  <s_epik_cmdline>  (83) 
J2VwaWtfcHl0aG9uJywgJy1waHQnLCAnMi4wJywgJy1waCcsICc3LjAnLCAnLXRuJywgJzgnLCAnLW1hJywgJzIwMCcsICctaW1hZScsICc8aW5maWxlLm1hZT4nLCAnLW9tYWUnLCAnPG91dGZpbGUubWFlPic=

>  <r_lp_tautomer_probability>  (83) 
1

>  <r_epik_Ionization_Penalty>  (83) 
0.0167254

>  <r_epik_Ionization_Penalty_Charging>  (83) 
0

>  <r_epik_Ionization_Penalty_Neutral>  (83) 
0.0167254

>  <r_epik_State_Penalty>  (83) 
0.0132176

>  <r_epik_Charging_Adjusted_Penalty>  (83) 
0.0132176

>  <i_epik_Tot_Q>  (83) 
0

>  <i_epik_Tot_abs_Q>  (83) 
0

>  <s_lp_Force_Field>  (83) 
OPLS3e

>  <r_lp_Energy>  (83) 
42.2107

>  <b_lp_Chiralities_Consistent>  (83) 
1

>  <s_lp_Variant>  (83) 
27:0-1

>  <s_i_glide_gridfile>  (83) 
pfpi4k_grid

>  <i_i_glide_lignum>  (83) 
33

>  <i_i_glide_rotatable_bonds>  (83) 
4

>  <r_i_docking_score>  (83) 
-2.14468

>  <r_i_glide_ligand_efficiency>  (83) 
-0.0714894

>  <r_i_glide_ligand_efficiency_sa>  (83) 
-0.222134

>  <r_i_glide_ligand_efficiency_ln>  (83) 
-0.487295

>  <r_i_glide_gscore>  (83) 
-2.14468

>  <r_i_glide_lipo>  (83) 
-0.390754

>  <r_i_glide_hbond>  (83) 
0

>  <r_i_glide_metal>  (83) 
-0

>  <r_i_glide_rewards>  (83) 
-0.76945

>  <r_i_glide_evdw>  (83) 
-34.0047

>  <r_i_glide_ecoul>  (83) 
1.60852

>  <r_i_glide_erotb>  (83) 
0.491218

>  <r_i_glide_esite>  (83) 
-0.0167361

>  <r_i_glide_emodel>  (83) 
-34.6237

>  <r_i_glide_energy>  (83) 
-32.3962

>  <r_i_glide_einternal>  (83) 
3.66021

>  <r_i_glide_intrahb_reward>  (83) 
-0

>  <i_i_glide_confnum>  (83) 
3

>  <i_i_glide_posenum>  (83) 
15

>  <r_i_glide_eff_state_penalty>  (83) 
0

>  <ligand_id>  (83) 
27

>  <original_smiles>  (83) 
O=C(c1ccccc1-n1nccn1)N1C2CCC1CC(c1cn3ncccc3n1)C2

>  <smiles>  (83) 
[H]c1nn(-c2c([H])c([H])c([H])c([H])c2C(=O)N2C3([H])C([H])([H])C([H])([H])C2([H])C([H])([H])C([H])(c2nc4c([H])c([H])c([H])nn4c2[H])C3([H])[H])nc1[H]

$$$$
27:1:0
     RDKit          3D

 51 56  0  0  1  0  0  0  0  0999 V2000
    1.8160    1.8662    6.3369 O   0  0  0  0  0  0  0  0  0  0  0  0
    1.2166    1.4469    5.3341 C   0  0  0  0  0  0  0  0  0  0  0  0
   -0.1314    2.0392    4.9556 C   0  0  0  0  0  0  0  0  0  0  0  0
   -0.3889    2.3680    3.6127 C   0  0  0  0  0  0  0  0  0  0  0  0
   -1.5859    2.8931    3.1533 C   0  0  0  0  0  0  0  0  0  0  0  0
   -2.5892    3.2125    4.0643 C   0  0  0  0  0  0  0  0  0  0  0  0
   -2.3938    2.9577    5.4425 C   0  0  0  0  0  0  0  0  0  0  0  0
   -1.1765    2.3474    5.8920 C   0  0  0  0  0  0  0  0  0  0  0  0
   -1.1080    2.0822    7.3039 N   0  0  0  0  0  0  0  0  0  0  0  0
   -1.6417    2.9243    8.2348 N   0  0  0  0  0  0  0  0  0  0  0  0
   -1.3367    2.3611    9.3749 C   0  0  0  0  0  0  0  0  0  0  0  0
   -0.5909    1.1810    9.1281 C   0  0  0  0  0  0  0  0  0  0  0  0
   -0.5336    0.9632    7.8358 N   0  0  0  0  0  0  0  0  0  0  0  0
    1.7258    0.4583    4.5472 N   0  0  0  0  0  0  0  0  0  0  0  0
    2.9984   -0.2292    4.7351 C   0  0  1  0  0  0  0  0  0  0  0  0
    2.6406   -1.7216    4.4783 C   0  0  0  0  0  0  0  0  0  0  0  0
    1.3660   -1.6794    3.6301 C   0  0  0  0  0  0  0  0  0  0  0  0
    1.1631   -0.1878    3.3476 C   0  0  2  0  0  0  0  0  0  0  0  0
    1.9459    0.4259    2.1306 C   0  0  0  0  0  0  0  0  0  0  0  0
    3.4579    0.1952    2.2018 C   0  0  2  0  0  0  0  0  0  0  0  0
    3.7961   -1.1554    1.6264 C   0  0  0  0  0  0  0  0  0  0  0  0
    2.9923   -2.0087    0.9316 C   0  0  0  0  0  0  0  0  0  0  0  0
    3.7236   -3.2000    0.7758 N   0  0  0  0  0  0  0  0  0  0  0  0
    3.2524   -4.3379    0.2584 N   0  0  0  0  0  0  0  0  0  0  0  0
    4.2094   -5.2535    0.1578 C   0  0  0  0  0  0  0  0  0  0  0  0
    5.5801   -5.0872    0.5522 C   0  0  0  0  0  0  0  0  0  0  0  0
    5.9675   -3.9065    1.1050 C   0  0  0  0  0  0  0  0  0  0  0  0
    5.0378   -2.8703    1.2346 C   0  0  0  0  0  0  0  0  0  0  0  0
    5.0901   -1.6418    1.6988 N   0  0  0  0  0  0  0  0  0  0  0  0
    3.9765    0.3538    3.6717 C   0  0  0  0  0  0  0  0  0  0  0  0
    0.3360    2.2281    2.8279 H   0  0  0  0  0  0  0  0  0  0  0  0
   -1.7128    3.0636    2.0850 H   0  0  0  0  0  0  0  0  0  0  0  0
   -3.5191    3.6488    3.6935 H   0  0  0  0  0  0  0  0  0  0  0  0
   -3.1804    3.2287    6.1429 H   0  0  0  0  0  0  0  0  0  0  0  0
   -1.6549    2.8152   10.3032 H   0  0  0  0  0  0  0  0  0  0  0  0
   -0.1676    0.4872    9.8335 H   0  0  0  0  0  0  0  0  0  0  0  0
    3.4271   -0.0947    5.7424 H   0  0  0  0  0  0  0  0  0  0  0  0
    3.4793   -2.2301    3.9993 H   0  0  0  0  0  0  0  0  0  0  0  0
    2.4709   -2.2437    5.4279 H   0  0  0  0  0  0  0  0  0  0  0  0
    1.4089   -2.2760    2.7194 H   0  0  0  0  0  0  0  0  0  0  0  0
    0.5457   -2.0581    4.2309 H   0  0  0  0  0  0  0  0  0  0  0  0
    0.0904   -0.0471    3.2497 H   0  0  0  0  0  0  0  0  0  0  0  0
    1.4918    0.1275    1.1906 H   0  0  0  0  0  0  0  0  0  0  0  0
    1.9216    1.5168    2.0809 H   0  0  0  0  0  0  0  0  0  0  0  0
    3.9463    0.9483    1.5699 H   0  0  0  0  0  0  0  0  0  0  0  0
    1.9664   -1.9967    0.6280 H   0  0  0  0  0  0  0  0  0  0  0  0
    3.9022   -6.1831   -0.2931 H   0  0  0  0  0  0  0  0  0  0  0  0
    6.2893   -5.8842    0.3835 H   0  0  0  0  0  0  0  0  0  0  0  0
    6.9890   -3.7182    1.4363 H   0  0  0  0  0  0  0  0  0  0  0  0
    4.0823    1.4184    3.8764 H   0  0  0  0  0  0  0  0  0  0  0  0
    4.9847   -0.0507    3.7968 H   0  0  0  0  0  0  0  0  0  0  0  0
  1  2  2  0
  2  3  1  0
  2 14  1  0
  3  8  1  0
  3  4  2  0
  4  5  1  0
  4 31  1  0
  5  6  2  0
  5 32  1  0
  6  7  1  0
  6 33  1  0
  7  8  2  0
  7 34  1  0
  8  9  1  0
  9 13  1  0
  9 10  1  0
 10 11  2  0
 11 12  1  0
 11 35  1  0
 12 13  2  0
 12 36  1  0
 14 18  1  0
 14 15  1  0
 15 30  1  0
 15 16  1  0
 15 37  1  1
 16 17  1  0
 16 38  1  0
 16 39  1  0
 17 18  1  0
 17 40  1  0
 17 41  1  0
 18 19  1  0
 18 42  1  6
 19 20  1  0
 19 43  1  0
 19 44  1  0
 20 21  1  0
 20 30  1  0
 20 45  1  6
 21 29  1  0
 21 22  2  0
 22 23  1  0
 22 46  1  0
 23 28  1  0
 23 24  1  0
 24 25  2  0
 25 26  1  0
 25 47  1  0
 26 27  2  0
 26 48  1  0
 27 28  1  0
 27 49  1  0
 28 29  2  0
 30 50  1  0
 30 51  1  0
M  END
>  <i_m_ct_stereo_status>  (84) 
1

>  <s_m_source_file>  (84) 
/var/tmp/pbs.5076255.sched01/tmp7me73ahx/0ll6f151o.sdf

>  <i_m_source_file_index>  (84) 
34

>  <i_lp_mmshare_version>  (84) 
48012

>  <i_f3d_flags>  (84) 
0

>  <s_epik_input>  (84) 
bjFbY0hdW2NIXVtjSF1jKG4xMiluYyhbY0hdMilbQ0BASF0oW0NIMl0zKVtDSDJdW0NAQEhdKFtDSDJdW0NIMl00KU4oW0NASF0zNClDKD1PKWM1W2NIXVtjSF1bY0hdW2NIXWM1LW42bltjSF1bY0hdbjY=

>  <s_epik_cmdline>  (84) 
J2VwaWtfcHl0aG9uJywgJy1waHQnLCAnMi4wJywgJy1waCcsICc3LjAnLCAnLXRuJywgJzgnLCAnLW1hJywgJzIwMCcsICctaW1hZScsICc8aW5maWxlLm1hZT4nLCAnLW9tYWUnLCAnPG91dGZpbGUubWFlPic=

>  <r_lp_tautomer_probability>  (84) 
1

>  <r_epik_Ionization_Penalty>  (84) 
0.0167254

>  <r_epik_Ionization_Penalty_Charging>  (84) 
0

>  <r_epik_Ionization_Penalty_Neutral>  (84) 
0.0167254

>  <r_epik_State_Penalty>  (84) 
0.0132176

>  <r_epik_Charging_Adjusted_Penalty>  (84) 
0.0132176

>  <i_epik_Tot_Q>  (84) 
0

>  <i_epik_Tot_abs_Q>  (84) 
0

>  <s_lp_Force_Field>  (84) 
OPLS3e

>  <r_lp_Energy>  (84) 
47.3552

>  <b_lp_Chiralities_Consistent>  (84) 
1

>  <s_lp_Variant>  (84) 
27:0-2

>  <s_i_glide_gridfile>  (84) 
pfpi4k_grid

>  <i_i_glide_lignum>  (84) 
34

>  <i_i_glide_rotatable_bonds>  (84) 
4

>  <r_i_docking_score>  (84) 
-2.34502

>  <r_i_glide_ligand_efficiency>  (84) 
-0.0781674

>  <r_i_glide_ligand_efficiency_sa>  (84) 
-0.242884

>  <r_i_glide_ligand_efficiency_ln>  (84) 
-0.532815

>  <r_i_glide_gscore>  (84) 
-2.34502

>  <r_i_glide_lipo>  (84) 
-0.213335

>  <r_i_glide_hbond>  (84) 
0

>  <r_i_glide_metal>  (84) 
-0

>  <r_i_glide_rewards>  (84) 
-0.732239

>  <r_i_glide_evdw>  (84) 
-28.3055

>  <r_i_glide_ecoul>  (84) 
-3.05491

>  <r_i_glide_erotb>  (84) 
0.491218

>  <r_i_glide_esite>  (84) 
-0.0171557

>  <r_i_glide_emodel>  (84) 
-33.9104

>  <r_i_glide_energy>  (84) 
-31.3604

>  <r_i_glide_einternal>  (84) 
0.244003

>  <r_i_glide_intrahb_reward>  (84) 
-0

>  <i_i_glide_confnum>  (84) 
4

>  <i_i_glide_posenum>  (84) 
27

>  <r_i_glide_eff_state_penalty>  (84) 
0

>  <ligand_id>  (84) 
27

>  <original_smiles>  (84) 
O=C(c1ccccc1-n1nccn1)N1C2CCC1CC(c1cn3ncccc3n1)C2

>  <smiles>  (84) 
[H]c1nn(-c2c([H])c([H])c([H])c([H])c2C(=O)N2C3([H])C([H])([H])C([H])([H])C2([H])C([H])([H])C([H])(c2nc4c([H])c([H])c([H])nn4c2[H])C3([H])[H])nc1[H]

$$$$
27:1:1
     RDKit          3D

 51 56  0  0  1  0  0  0  0  0999 V2000
    3.8332   -0.2941    0.7732 O   0  0  0  0  0  0  0  0  0  0  0  0
    3.4346   -0.9186    1.7551 C   0  0  0  0  0  0  0  0  0  0  0  0
    3.9026   -2.3406    2.0215 C   0  0  0  0  0  0  0  0  0  0  0  0
    4.4111   -2.6697    3.2908 C   0  0  0  0  0  0  0  0  0  0  0  0
    4.8151   -3.9503    3.6486 C   0  0  0  0  0  0  0  0  0  0  0  0
    4.8006   -4.9648    2.6863 C   0  0  0  0  0  0  0  0  0  0  0  0
    4.3351   -4.6804    1.3823 C   0  0  0  0  0  0  0  0  0  0  0  0
    3.8745   -3.3785    1.0508 C   0  0  0  0  0  0  0  0  0  0  0  0
    3.3867   -3.1898   -0.2699 N   0  0  0  0  0  0  0  0  0  0  0  0
    2.2835   -3.8488   -0.7314 N   0  0  0  0  0  0  0  0  0  0  0  0
    2.2021   -3.4269   -1.9687 C   0  0  0  0  0  0  0  0  0  0  0  0
    3.2379   -2.5043   -2.2423 C   0  0  0  0  0  0  0  0  0  0  0  0
    4.0116   -2.3947   -1.1914 N   0  0  0  0  0  0  0  0  0  0  0  0
    2.6037   -0.3348    2.6616 N   0  0  0  0  0  0  0  0  0  0  0  0
    2.0677    1.0308    2.6125 C   0  0  1  0  0  0  0  0  0  0  0  0
    0.5705    0.7977    2.8460 C   0  0  0  0  0  0  0  0  0  0  0  0
    0.5141   -0.4373    3.7376 C   0  0  0  0  0  0  0  0  0  0  0  0
    1.9860   -0.9120    3.8569 C   0  0  2  0  0  0  0  0  0  0  0  0
    2.7171   -0.3136    5.1009 C   0  0  0  0  0  0  0  0  0  0  0  0
    2.6936    1.2262    5.1403 C   0  0  2  0  0  0  0  0  0  0  0  0
    1.4402    1.7227    5.8088 C   0  0  0  0  0  0  0  0  0  0  0  0
    0.5512    2.6797    5.4076 C   0  0  0  0  0  0  0  0  0  0  0  0
   -0.5320    2.5810    6.2809 N   0  0  0  0  0  0  0  0  0  0  0  0
   -1.6785    3.2866    6.1631 N   0  0  0  0  0  0  0  0  0  0  0  0
   -2.4729    3.0747    7.2164 C   0  0  0  0  0  0  0  0  0  0  0  0
   -2.1903    2.2258    8.3188 C   0  0  0  0  0  0  0  0  0  0  0  0
   -1.0389    1.5041    8.3545 C   0  0  0  0  0  0  0  0  0  0  0  0
   -0.1250    1.6686    7.2933 C   0  0  0  0  0  0  0  0  0  0  0  0
    1.0432    1.1577    7.0291 N   0  0  0  0  0  0  0  0  0  0  0  0
    2.8493    1.8252    3.7167 C   0  0  0  0  0  0  0  0  0  0  0  0
    4.5103   -1.9280    4.0505 H   0  0  0  0  0  0  0  0  0  0  0  0
    5.1453   -4.1343    4.6522 H   0  0  0  0  0  0  0  0  0  0  0  0
    5.1645   -5.9604    2.9470 H   0  0  0  0  0  0  0  0  0  0  0  0
    4.3430   -5.4681    0.6284 H   0  0  0  0  0  0  0  0  0  0  0  0
    1.4110   -3.7789   -2.6122 H   0  0  0  0  0  0  0  0  0  0  0  0
    3.4358   -1.9348   -3.1323 H   0  0  0  0  0  0  0  0  0  0  0  0
    2.2342    1.5092    1.6414 H   0  0  0  0  0  0  0  0  0  0  0  0
    0.0582    1.6724    3.2960 H   0  0  0  0  0  0  0  0  0  0  0  0
    0.0463    0.6348    1.9321 H   0  0  0  0  0  0  0  0  0  0  0  0
    0.1078   -0.2906    4.7425 H   0  0  0  0  0  0  0  0  0  0  0  0
   -0.1091   -1.2078    3.2792 H   0  0  0  0  0  0  0  0  0  0  0  0
    1.9823   -2.0116    3.8654 H   0  0  0  0  0  0  0  0  0  0  0  0
    2.3638   -0.7943    6.0027 H   0  0  0  0  0  0  0  0  0  0  0  0
    3.7906   -0.5057    5.1201 H   0  0  0  0  0  0  0  0  0  0  0  0
    3.5414    1.5569    5.7505 H   0  0  0  0  0  0  0  0  0  0  0  0
    0.4835    3.3168    4.5534 H   0  0  0  0  0  0  0  0  0  0  0  0
   -3.3767    3.6549    7.2092 H   0  0  0  0  0  0  0  0  0  0  0  0
   -2.8919    2.1850    9.1665 H   0  0  0  0  0  0  0  0  0  0  0  0
   -0.7611    0.8610    9.1693 H   0  0  0  0  0  0  0  0  0  0  0  0
    3.9133    1.7957    3.4683 H   0  0  0  0  0  0  0  0  0  0  0  0
    2.6036    2.8853    3.6971 H   0  0  0  0  0  0  0  0  0  0  0  0
  1  2  2  0
  2  3  1  0
  2 14  1  0
  3  8  1  0
  3  4  2  0
  4  5  1  0
  4 31  1  0
  5  6  2  0
  5 32  1  0
  6  7  1  0
  6 33  1  0
  7  8  2  0
  7 34  1  0
  8  9  1  0
  9 13  1  0
  9 10  1  0
 10 11  2  0
 11 12  1  0
 11 35  1  0
 12 13  2  0
 12 36  1  0
 14 18  1  0
 14 15  1  0
 15 30  1  0
 15 16  1  0
 15 37  1  6
 16 17  1  0
 16 38  1  0
 16 39  1  0
 17 18  1  0
 17 40  1  0
 17 41  1  0
 18 19  1  0
 18 42  1  6
 19 20  1  0
 19 43  1  0
 19 44  1  0
 20 21  1  0
 20 30  1  0
 20 45  1  1
 21 29  1  0
 21 22  2  0
 22 23  1  0
 22 46  1  0
 23 28  1  0
 23 24  1  0
 24 25  2  0
 25 26  1  0
 25 47  1  0
 26 27  2  0
 26 48  1  0
 27 28  1  0
 27 49  1  0
 28 29  2  0
 30 50  1  0
 30 51  1  0
M  END
>  <i_m_ct_stereo_status>  (85) 
1

>  <s_m_source_file>  (85) 
/var/tmp/pbs.5076255.sched01/tmp7me73ahx/0ll6f151o.sdf

>  <i_m_source_file_index>  (85) 
34

>  <i_lp_mmshare_version>  (85) 
48012

>  <i_f3d_flags>  (85) 
0

>  <s_epik_input>  (85) 
bjFbY0hdW2NIXVtjSF1jKG4xMiluYyhbY0hdMilbQ0BASF0oW0NIMl0zKVtDSDJdW0NAQEhdKFtDSDJdW0NIMl00KU4oW0NASF0zNClDKD1PKWM1W2NIXVtjSF1bY0hdW2NIXWM1LW42bltjSF1bY0hdbjY=

>  <s_epik_cmdline>  (85) 
J2VwaWtfcHl0aG9uJywgJy1waHQnLCAnMi4wJywgJy1waCcsICc3LjAnLCAnLXRuJywgJzgnLCAnLW1hJywgJzIwMCcsICctaW1hZScsICc8aW5maWxlLm1hZT4nLCAnLW9tYWUnLCAnPG91dGZpbGUubWFlPic=

>  <r_lp_tautomer_probability>  (85) 
1

>  <r_epik_Ionization_Penalty>  (85) 
0.0167254

>  <r_epik_Ionization_Penalty_Charging>  (85) 
0

>  <r_epik_Ionization_Penalty_Neutral>  (85) 
0.0167254

>  <r_epik_State_Penalty>  (85) 
0.0132176

>  <r_epik_Charging_Adjusted_Penalty>  (85) 
0.0132176

>  <i_epik_Tot_Q>  (85) 
0

>  <i_epik_Tot_abs_Q>  (85) 
0

>  <s_lp_Force_Field>  (85) 
OPLS3e

>  <r_lp_Energy>  (85) 
47.3552

>  <b_lp_Chiralities_Consistent>  (85) 
1

>  <s_lp_Variant>  (85) 
27:0-2

>  <s_i_glide_gridfile>  (85) 
pfpi4k_grid

>  <i_i_glide_lignum>  (85) 
34

>  <i_i_glide_rotatable_bonds>  (85) 
4

>  <r_i_docking_score>  (85) 
-2.21506

>  <r_i_glide_ligand_efficiency>  (85) 
-0.0738355

>  <r_i_glide_ligand_efficiency_sa>  (85) 
-0.229424

>  <r_i_glide_ligand_efficiency_ln>  (85) 
-0.503287

>  <r_i_glide_gscore>  (85) 
-2.21506

>  <r_i_glide_lipo>  (85) 
-0.379463

>  <r_i_glide_hbond>  (85) 
0

>  <r_i_glide_metal>  (85) 
-0

>  <r_i_glide_rewards>  (85) 
-0.689477

>  <r_i_glide_evdw>  (85) 
-28.0865

>  <r_i_glide_ecoul>  (85) 
-1.34708

>  <r_i_glide_erotb>  (85) 
0.491218

>  <r_i_glide_esite>  (85) 
-0.0309561

>  <r_i_glide_emodel>  (85) 
-31.4596

>  <r_i_glide_energy>  (85) 
-29.4336

>  <r_i_glide_einternal>  (85) 
1.74112

>  <r_i_glide_intrahb_reward>  (85) 
-0

>  <i_i_glide_confnum>  (85) 
2

>  <i_i_glide_posenum>  (85) 
36

>  <r_i_glide_eff_state_penalty>  (85) 
0

>  <ligand_id>  (85) 
27

>  <original_smiles>  (85) 
O=C(c1ccccc1-n1nccn1)N1C2CCC1CC(c1cn3ncccc3n1)C2

>  <smiles>  (85) 
[H]c1nn(-c2c([H])c([H])c([H])c([H])c2C(=O)N2C3([H])C([H])([H])C([H])([H])C2([H])C([H])([H])C([H])(c2nc4c([H])c([H])c([H])nn4c2[H])C3([H])[H])nc1[H]

$$$$
27:1:2
     RDKit          3D

 51 56  0  0  1  0  0  0  0  0999 V2000
    4.4662   -0.0875    0.9568 O   0  0  0  0  0  0  0  0  0  0  0  0
    3.8002   -0.7060    1.7884 C   0  0  0  0  0  0  0  0  0  0  0  0
    4.0264   -2.1932    1.9761 C   0  0  0  0  0  0  0  0  0  0  0  0
    4.3085   -2.6641    3.2796 C   0  0  0  0  0  0  0  0  0  0  0  0
    4.4936   -4.0242    3.5451 C   0  0  0  0  0  0  0  0  0  0  0  0
    4.4321   -4.9562    2.4976 C   0  0  0  0  0  0  0  0  0  0  0  0
    4.1636   -4.5127    1.1877 C   0  0  0  0  0  0  0  0  0  0  0  0
    3.9477   -3.1423    0.9080 C   0  0  0  0  0  0  0  0  0  0  0  0
    3.6486   -2.7932   -0.4369 N   0  0  0  0  0  0  0  0  0  0  0  0
    2.6947   -3.4461   -1.1601 N   0  0  0  0  0  0  0  0  0  0  0  0
    2.7439   -2.8482   -2.3265 C   0  0  0  0  0  0  0  0  0  0  0  0
    3.7299   -1.8313   -2.2904 C   0  0  0  0  0  0  0  0  0  0  0  0
    4.3299   -1.8443   -1.1303 N   0  0  0  0  0  0  0  0  0  0  0  0
    2.8850   -0.0909    2.5845 N   0  0  0  0  0  0  0  0  0  0  0  0
    2.0750   -0.6206    3.6874 C   0  0  1  0  0  0  0  0  0  0  0  0
    2.3153    0.4305    4.8004 C   0  0  0  0  0  0  0  0  0  0  0  0
    2.6836    1.7638    4.0795 C   0  0  0  0  0  0  0  0  0  0  0  0
    2.6009    1.3500    2.5795 C   0  0  2  0  0  0  0  0  0  0  0  0
    1.1897    1.4940    1.9331 C   0  0  0  0  0  0  0  0  0  0  0  0
    0.0838    0.7131    2.6950 C   0  0  2  0  0  0  0  0  0  0  0  0
   -0.4105    1.5036    3.8774 C   0  0  0  0  0  0  0  0  0  0  0  0
   -0.1483    2.7953    4.2523 C   0  0  0  0  0  0  0  0  0  0  0  0
   -0.7458    3.0044    5.4650 N   0  0  0  0  0  0  0  0  0  0  0  0
   -0.6596    4.1275    6.2180 N   0  0  0  0  0  0  0  0  0  0  0  0
   -1.3832    4.0380    7.3349 C   0  0  0  0  0  0  0  0  0  0  0  0
   -2.1866    2.9377    7.7279 C   0  0  0  0  0  0  0  0  0  0  0  0
   -2.2138    1.8230    6.9407 C   0  0  0  0  0  0  0  0  0  0  0  0
   -1.4568    1.8264    5.7290 C   0  0  0  0  0  0  0  0  0  0  0  0
   -1.2897    0.9279    4.7838 N   0  0  0  0  0  0  0  0  0  0  0  0
    0.6261   -0.6702    3.1616 C   0  0  0  0  0  0  0  0  0  0  0  0
    4.3839   -1.9606    4.1056 H   0  0  0  0  0  0  0  0  0  0  0  0
    4.6660   -4.3559    4.5598 H   0  0  0  0  0  0  0  0  0  0  0  0
    4.5915   -6.0067    2.6977 H   0  0  0  0  0  0  0  0  0  0  0  0
    4.1345   -5.2352    0.3876 H   0  0  0  0  0  0  0  0  0  0  0  0
    2.0860   -3.1519   -3.1351 H   0  0  0  0  0  0  0  0  0  0  0  0
    3.9978   -1.1172   -3.0585 H   0  0  0  0  0  0  0  0  0  0  0  0
    2.3448   -1.6211    4.0474 H   0  0  0  0  0  0  0  0  0  0  0  0
    1.4274    0.5244    5.4262 H   0  0  0  0  0  0  0  0  0  0  0  0
    3.1285    0.1066    5.4589 H   0  0  0  0  0  0  0  0  0  0  0  0
    2.0561    2.5931    4.3322 H   0  0  0  0  0  0  0  0  0  0  0  0
    3.7392    1.9899    4.3189 H   0  0  0  0  0  0  0  0  0  0  0  0
    3.3332    1.9192    1.9984 H   0  0  0  0  0  0  0  0  0  0  0  0
    0.9245    2.5433    1.8223 H   0  0  0  0  0  0  0  0  0  0  0  0
    1.2235    1.1097    0.9101 H   0  0  0  0  0  0  0  0  0  0  0  0
   -0.7597    0.5430    2.0186 H   0  0  0  0  0  0  0  0  0  0  0  0
    0.4776    3.5780    3.7937 H   0  0  0  0  0  0  0  0  0  0  0  0
   -1.3682    4.9268    7.9661 H   0  0  0  0  0  0  0  0  0  0  0  0
   -2.7870    2.9868    8.6341 H   0  0  0  0  0  0  0  0  0  0  0  0
   -2.8196    0.9526    7.1735 H   0  0  0  0  0  0  0  0  0  0  0  0
    0.6205   -1.3588    2.3213 H   0  0  0  0  0  0  0  0  0  0  0  0
   -0.0041   -1.1376    3.9127 H   0  0  0  0  0  0  0  0  0  0  0  0
  1  2  2  0
  2  3  1  0
  2 14  1  0
  3  8  1  0
  3  4  2  0
  4  5  1  0
  4 31  1  0
  5  6  2  0
  5 32  1  0
  6  7  1  0
  6 33  1  0
  7  8  2  0
  7 34  1  0
  8  9  1  0
  9 13  1  0
  9 10  1  0
 10 11  2  0
 11 12  1  0
 11 35  1  0
 12 13  2  0
 12 36  1  0
 14 18  1  0
 14 15  1  0
 15 30  1  0
 15 16  1  0
 15 37  1  1
 16 17  1  0
 16 38  1  0
 16 39  1  0
 17 18  1  0
 17 40  1  0
 17 41  1  0
 18 19  1  0
 18 42  1  6
 19 20  1  0
 19 43  1  0
 19 44  1  0
 20 21  1  0
 20 30  1  0
 20 45  1  6
 21 29  1  0
 21 22  2  0
 22 23  1  0
 22 46  1  0
 23 28  1  0
 23 24  1  0
 24 25  2  0
 25 26  1  0
 25 47  1  0
 26 27  2  0
 26 48  1  0
 27 28  1  0
 27 49  1  0
 28 29  2  0
 30 50  1  0
 30 51  1  0
M  END
>  <i_m_ct_stereo_status>  (86) 
1

>  <s_m_source_file>  (86) 
/var/tmp/pbs.5076255.sched01/tmp7me73ahx/0ll6f151o.sdf

>  <i_m_source_file_index>  (86) 
34

>  <i_lp_mmshare_version>  (86) 
48012

>  <i_f3d_flags>  (86) 
0

>  <s_epik_input>  (86) 
bjFbY0hdW2NIXVtjSF1jKG4xMiluYyhbY0hdMilbQ0BASF0oW0NIMl0zKVtDSDJdW0NAQEhdKFtDSDJdW0NIMl00KU4oW0NASF0zNClDKD1PKWM1W2NIXVtjSF1bY0hdW2NIXWM1LW42bltjSF1bY0hdbjY=

>  <s_epik_cmdline>  (86) 
J2VwaWtfcHl0aG9uJywgJy1waHQnLCAnMi4wJywgJy1waCcsICc3LjAnLCAnLXRuJywgJzgnLCAnLW1hJywgJzIwMCcsICctaW1hZScsICc8aW5maWxlLm1hZT4nLCAnLW9tYWUnLCAnPG91dGZpbGUubWFlPic=

>  <r_lp_tautomer_probability>  (86) 
1

>  <r_epik_Ionization_Penalty>  (86) 
0.0167254

>  <r_epik_Ionization_Penalty_Charging>  (86) 
0

>  <r_epik_Ionization_Penalty_Neutral>  (86) 
0.0167254

>  <r_epik_State_Penalty>  (86) 
0.0132176

>  <r_epik_Charging_Adjusted_Penalty>  (86) 
0.0132176

>  <i_epik_Tot_Q>  (86) 
0

>  <i_epik_Tot_abs_Q>  (86) 
0

>  <s_lp_Force_Field>  (86) 
OPLS3e

>  <r_lp_Energy>  (86) 
47.3552

>  <b_lp_Chiralities_Consistent>  (86) 
1

>  <s_lp_Variant>  (86) 
27:0-2

>  <s_i_glide_gridfile>  (86) 
pfpi4k_grid

>  <i_i_glide_lignum>  (86) 
34

>  <i_i_glide_rotatable_bonds>  (86) 
4

>  <r_i_docking_score>  (86) 
-1.8759

>  <r_i_glide_ligand_efficiency>  (86) 
-0.0625299

>  <r_i_glide_ligand_efficiency_sa>  (86) 
-0.194295

>  <r_i_glide_ligand_efficiency_ln>  (86) 
-0.426225

>  <r_i_glide_gscore>  (86) 
-1.8759

>  <r_i_glide_lipo>  (86) 
-0.120672

>  <r_i_glide_hbond>  (86) 
0

>  <r_i_glide_metal>  (86) 
-0

>  <r_i_glide_rewards>  (86) 
-0.700941

>  <r_i_glide_evdw>  (86) 
-33.5375

>  <r_i_glide_ecoul>  (86) 
1.15041

>  <r_i_glide_erotb>  (86) 
0.491218

>  <r_i_glide_esite>  (86) 
-0.0411891

>  <r_i_glide_emodel>  (86) 
-34.0254

>  <r_i_glide_energy>  (86) 
-32.3871

>  <r_i_glide_einternal>  (86) 
0.931781

>  <r_i_glide_intrahb_reward>  (86) 
-0

>  <i_i_glide_confnum>  (86) 
5

>  <i_i_glide_posenum>  (86) 
37

>  <r_i_glide_eff_state_penalty>  (86) 
0

>  <ligand_id>  (86) 
27

>  <original_smiles>  (86) 
O=C(c1ccccc1-n1nccn1)N1C2CCC1CC(c1cn3ncccc3n1)C2

>  <smiles>  (86) 
[H]c1nn(-c2c([H])c([H])c([H])c([H])c2C(=O)N2C3([H])C([H])([H])C([H])([H])C2([H])C([H])([H])C([H])(c2nc4c([H])c([H])c([H])nn4c2[H])C3([H])[H])nc1[H]

$$$$
27:2:0
     RDKit          3D

 52 57  0  0  1  0  0  0  0  0999 V2000
    3.7002   -7.4794    5.2805 O   0  0  0  0  0  0  0  0  0  0  0  0
    3.5682   -7.9665    4.1558 C   0  0  0  0  0  0  0  0  0  0  0  0
    2.2357   -8.5582    3.7621 C   0  0  0  0  0  0  0  0  0  0  0  0
    2.1994   -9.8905    3.2916 C   0  0  0  0  0  0  0  0  0  0  0  0
    0.9957  -10.4908    2.8968 C   0  0  0  0  0  0  0  0  0  0  0  0
   -0.2086   -9.7838    3.0124 C   0  0  0  0  0  0  0  0  0  0  0  0
   -0.2054   -8.4740    3.5159 C   0  0  0  0  0  0  0  0  0  0  0  0
    1.0045   -7.8410    3.8873 C   0  0  0  0  0  0  0  0  0  0  0  0
    0.9183   -6.4961    4.3449 N   0  0  0  0  0  0  0  0  0  0  0  0
   -0.0461   -6.0900    5.2174 N   0  0  0  0  0  0  0  0  0  0  0  0
    0.2156   -4.8177    5.3782 C   0  0  0  0  0  0  0  0  0  0  0  0
    1.3223   -4.4559    4.5774 C   0  0  0  0  0  0  0  0  0  0  0  0
    1.7380   -5.5001    3.9068 N   0  0  0  0  0  0  0  0  0  0  0  0
    4.5708   -7.9762    3.2384 N   0  0  0  0  0  0  0  0  0  0  0  0
    5.9137   -7.4266    3.4270 C   0  0  1  0  0  0  0  0  0  0  0  0
    6.8214   -8.5186    2.8315 C   0  0  0  0  0  0  0  0  0  0  0  0
    5.9342   -9.2381    1.8056 C   0  0  0  0  0  0  0  0  0  0  0  0
    4.5880   -8.5066    1.8743 C   0  0  2  0  0  0  0  0  0  0  0  0
    4.4935   -7.3007    0.9262 C   0  0  0  0  0  0  0  0  0  0  0  0
    5.6345   -6.2712    1.1378 C   0  0  1  0  0  0  0  0  0  0  0  0
    5.3156   -4.9786    0.4313 C   0  0  0  0  0  0  0  0  0  0  0  0
    5.6508   -3.6892    0.8085 C   0  0  0  0  0  0  0  0  0  0  0  0
    5.1106   -2.8946   -0.1821 N   0  0  0  0  0  0  0  0  0  0  0  0
    5.2188   -1.5155   -0.1697 N   0  0  0  0  0  0  0  0  0  0  0  0
    4.5889   -0.9904   -1.2266 C   0  0  0  0  0  0  0  0  0  0  0  0
    3.9004   -1.6834   -2.2594 C   0  0  0  0  0  0  0  0  0  0  0  0
    3.8499   -3.0553   -2.2022 C   0  0  0  0  0  0  0  0  0  0  0  0
    4.4926   -3.6105   -1.1054 C   0  0  0  0  0  0  0  0  0  0  0  0
    4.6095   -4.8890   -0.7697 N   0  0  0  0  0  0  0  0  0  0  0  0
    5.9842   -6.0918    2.6407 C   0  0  0  0  0  0  0  0  0  0  0  0
    3.1106  -10.4732    3.2262 H   0  0  0  0  0  0  0  0  0  0  0  0
    0.9986  -11.4978    2.5070 H   0  0  0  0  0  0  0  0  0  0  0  0
   -1.1420  -10.2421    2.7226 H   0  0  0  0  0  0  0  0  0  0  0  0
   -1.1459   -7.9536    3.6153 H   0  0  0  0  0  0  0  0  0  0  0  0
   -0.3813   -4.2080    6.0422 H   0  0  0  0  0  0  0  0  0  0  0  0
    1.8052   -3.4962    4.4723 H   0  0  0  0  0  0  0  0  0  0  0  0
    6.1575   -7.2582    4.4779 H   0  0  0  0  0  0  0  0  0  0  0  0
    7.7228   -8.1085    2.3752 H   0  0  0  0  0  0  0  0  0  0  0  0
    7.1347   -9.2210    3.6076 H   0  0  0  0  0  0  0  0  0  0  0  0
    6.3513   -9.2359    0.7994 H   0  0  0  0  0  0  0  0  0  0  0  0
    5.7965  -10.2790    2.1005 H   0  0  0  0  0  0  0  0  0  0  0  0
    3.7891   -9.1896    1.6063 H   0  0  0  0  0  0  0  0  0  0  0  0
    4.4864   -7.6577   -0.1054 H   0  0  0  0  0  0  0  0  0  0  0  0
    3.5269   -6.8174    1.0933 H   0  0  0  0  0  0  0  0  0  0  0  0
    6.5202   -6.6855    0.6582 H   0  0  0  0  0  0  0  0  0  0  0  0
    6.1908   -3.2933    1.6580 H   0  0  0  0  0  0  0  0  0  0  0  0
    4.6210    0.0950   -1.2710 H   0  0  0  0  0  0  0  0  0  0  0  0
    3.4222   -1.1332   -3.0607 H   0  0  0  0  0  0  0  0  0  0  0  0
    3.3371   -3.6769   -2.9338 H   0  0  0  0  0  0  0  0  0  0  0  0
    5.2794   -5.3942    3.0928 H   0  0  0  0  0  0  0  0  0  0  0  0
    6.9752   -5.6469    2.7365 H   0  0  0  0  0  0  0  0  0  0  0  0
    4.2129   -5.6556   -1.3127 H   0  0  0  0  0  0  0  0  0  0  0  0
  1  2  2  0
  2  3  1  0
  2 14  1  0
  3  8  1  0
  3  4  2  0
  4  5  1  0
  4 31  1  0
  5  6  2  0
  5 32  1  0
  6  7  1  0
  6 33  1  0
  7  8  2  0
  7 34  1  0
  8  9  1  0
  9 13  1  0
  9 10  1  0
 10 11  2  0
 11 12  1  0
 11 35  1  0
 12 13  2  0
 12 36  1  0
 14 18  1  0
 14 15  1  0
 15 30  1  0
 15 16  1  0
 15 37  1  1
 16 17  1  0
 16 38  1  0
 16 39  1  0
 17 18  1  0
 17 40  1  0
 17 41  1  0
 18 19  1  0
 18 42  1  1
 19 20  1  0
 19 43  1  0
 19 44  1  0
 20 21  1  0
 20 30  1  0
 20 45  1  6
 21 29  1  0
 21 22  2  0
 22 23  1  0
 22 46  1  0
 23 28  1  0
 23 24  1  0
 24 25  2  0
 25 26  1  0
 25 47  1  0
 26 27  2  0
 26 48  1  0
 27 28  1  0
 27 49  1  0
 28 29  2  0
 29 52  1  0
 30 50  1  0
 30 51  1  0
M  CHG  1  29   1
M  END
>  <i_m_ct_stereo_status>  (87) 
1

>  <s_m_source_file>  (87) 
/var/tmp/pbs.5076255.sched01/tmp7me73ahx/0ll6f151o.sdf

>  <i_m_source_file_index>  (87) 
35

>  <i_lp_mmshare_version>  (87) 
48012

>  <i_f3d_flags>  (87) 
0

>  <s_epik_input>  (87) 
bjFbY0hdW2NIXVtjSF1jKG4xMiluYyhbY0hdMilbQ0BASF0oW0NIMl0zKVtDSDJdW0NAQEhdKFtDSDJdW0NIMl00KU4oW0NASF0zNClDKD1PKWM1W2NIXVtjSF1bY0hdW2NIXWM1LW42bltjSF1bY0hdbjY=

>  <s_epik_cmdline>  (87) 
J2VwaWtfcHl0aG9uJywgJy1waHQnLCAnMi4wJywgJy1waCcsICc3LjAnLCAnLXRuJywgJzgnLCAnLW1hJywgJzIwMCcsICctaW1hZScsICc8aW5maWxlLm1hZT4nLCAnLW9tYWUnLCAnPG91dGZpbGUubWFlPic=

>  <r_lp_tautomer_probability>  (87) 
1

>  <r_epik_Ionization_Penalty>  (87) 
2.12198

>  <r_epik_Ionization_Penalty_Charging>  (87) 
2.12198

>  <r_epik_Ionization_Penalty_Neutral>  (87) 
8.32636e-09

>  <r_epik_State_Penalty>  (87) 
2.25969

>  <r_epik_Charging_Adjusted_Penalty>  (87) 
4.38167

>  <i_epik_Tot_Q>  (87) 
1

>  <i_epik_Tot_abs_Q>  (87) 
1

>  <s_lp_Force_Field>  (87) 
OPLS3e

>  <r_lp_Energy>  (87) 
45.7849

>  <b_lp_Chiralities_Consistent>  (87) 
1

>  <s_lp_Variant>  (87) 
27:0-3

>  <s_i_glide_gridfile>  (87) 
pfpi4k_grid

>  <i_i_glide_lignum>  (87) 
35

>  <i_i_glide_rotatable_bonds>  (87) 
4

>  <r_i_docking_score>  (87) 
-3.37493

>  <r_i_glide_ligand_efficiency>  (87) 
-0.112498

>  <r_i_glide_ligand_efficiency_sa>  (87) 
-0.349557

>  <r_i_glide_ligand_efficiency_ln>  (87) 
-0.766822

>  <r_i_glide_gscore>  (87) 
-3.37493

>  <r_i_glide_lipo>  (87) 
-0.601664

>  <r_i_glide_hbond>  (87) 
0

>  <r_i_glide_metal>  (87) 
-0

>  <r_i_glide_rewards>  (87) 
-0.703431

>  <r_i_glide_evdw>  (87) 
-31.7055

>  <r_i_glide_ecoul>  (87) 
-6.19687

>  <r_i_glide_erotb>  (87) 
0.488995

>  <r_i_glide_esite>  (87) 
-0.0440306

>  <r_i_glide_emodel>  (87) 
-45.1174

>  <r_i_glide_energy>  (87) 
-37.9024

>  <r_i_glide_einternal>  (87) 
1.71936

>  <r_i_glide_intrahb_reward>  (87) 
-0

>  <i_i_glide_confnum>  (87) 
4

>  <i_i_glide_posenum>  (87) 
2

>  <r_i_glide_eff_state_penalty>  (87) 
0

>  <ligand_id>  (87) 
27

>  <original_smiles>  (87) 
O=C(c1ccccc1-n1nccn1)N1C2CCC1CC(c1cn3ncccc3n1)C2

>  <smiles>  (87) 
[H]c1nn(-c2c([H])c([H])c([H])c([H])c2C(=O)N2C3([H])C([H])([H])C([H])([H])C2([H])C([H])([H])C([H])(c2c([H])n4nc([H])c([H])c([H])c4[n+]2[H])C3([H])[H])nc1[H]

$$$$
27:2:1
     RDKit          3D

 52 57  0  0  1  0  0  0  0  0999 V2000
   -0.1795    5.9869    5.8482 O   0  0  0  0  0  0  0  0  0  0  0  0
    0.0913    5.0348    6.5812 C   0  0  0  0  0  0  0  0  0  0  0  0
   -1.0068    4.4095    7.3987 C   0  0  0  0  0  0  0  0  0  0  0  0
   -1.1612    4.8138    8.7435 C   0  0  0  0  0  0  0  0  0  0  0  0
   -2.1907    4.2799    9.5440 C   0  0  0  0  0  0  0  0  0  0  0  0
   -3.0841    3.3365    9.0078 C   0  0  0  0  0  0  0  0  0  0  0  0
   -2.9348    2.9144    7.6751 C   0  0  0  0  0  0  0  0  0  0  0  0
   -1.9038    3.4396    6.8606 C   0  0  0  0  0  0  0  0  0  0  0  0
   -1.8082    2.9587    5.5281 N   0  0  0  0  0  0  0  0  0  0  0  0
   -1.8003    3.7759    4.4375 N   0  0  0  0  0  0  0  0  0  0  0  0
   -1.7073    2.9355    3.4386 C   0  0  0  0  0  0  0  0  0  0  0  0
   -1.6908    1.6121    3.9375 C   0  0  0  0  0  0  0  0  0  0  0  0
   -1.7671    1.6270    5.2440 N   0  0  0  0  0  0  0  0  0  0  0  0
    1.3334    4.5120    6.6942 N   0  0  0  0  0  0  0  0  0  0  0  0
    2.5116    4.9101    5.9370 C   0  0  1  0  0  0  0  0  0  0  0  0
    3.6192    4.9860    6.9987 C   0  0  0  0  0  0  0  0  0  0  0  0
    3.1507    4.0293    8.1021 C   0  0  0  0  0  0  0  0  0  0  0  0
    1.8115    3.4691    7.5921 C   0  0  2  0  0  0  0  0  0  0  0  0
    1.9737    2.1836    6.7481 C   0  0  0  0  0  0  0  0  0  0  0  0
    2.9266    2.3865    5.5373 C   0  0  1  0  0  0  0  0  0  0  0  0
    2.8217    1.3032    4.4888 C   0  0  0  0  0  0  0  0  0  0  0  0
    2.1527    0.0957    4.5874 C   0  0  0  0  0  0  0  0  0  0  0  0
    2.3718   -0.5131    3.3719 N   0  0  0  0  0  0  0  0  0  0  0  0
    1.8592   -1.7573    3.0646 N   0  0  0  0  0  0  0  0  0  0  0  0
    2.2348   -2.1140    1.8285 C   0  0  0  0  0  0  0  0  0  0  0  0
    3.0347   -1.3775    0.9154 C   0  0  0  0  0  0  0  0  0  0  0  0
    3.5014   -0.1454    1.3038 C   0  0  0  0  0  0  0  0  0  0  0  0
    3.1203    0.2292    2.5732 C   0  0  0  0  0  0  0  0  0  0  0  0
    3.4115    1.3487    3.2265 N   0  0  0  0  0  0  0  0  0  0  0  0
    2.7647    3.7947    4.8942 C   0  0  0  0  0  0  0  0  0  0  0  0
   -0.4834    5.5425    9.1659 H   0  0  0  0  0  0  0  0  0  0  0  0
   -2.2950    4.5952   10.5728 H   0  0  0  0  0  0  0  0  0  0  0  0
   -3.8786    2.9364    9.6195 H   0  0  0  0  0  0  0  0  0  0  0  0
   -3.6283    2.1937    7.2664 H   0  0  0  0  0  0  0  0  0  0  0  0
   -1.6575    3.2848    2.4167 H   0  0  0  0  0  0  0  0  0  0  0  0
   -1.6452    0.6773    3.3985 H   0  0  0  0  0  0  0  0  0  0  0  0
    2.3917    5.8727    5.4386 H   0  0  0  0  0  0  0  0  0  0  0  0
    4.5956    4.7139    6.5979 H   0  0  0  0  0  0  0  0  0  0  0  0
    3.7032    5.9995    7.3932 H   0  0  0  0  0  0  0  0  0  0  0  0
    3.8743    3.2404    8.3058 H   0  0  0  0  0  0  0  0  0  0  0  0
    3.0055    4.5836    9.0314 H   0  0  0  0  0  0  0  0  0  0  0  0
    1.1450    3.2860    8.4335 H   0  0  0  0  0  0  0  0  0  0  0  0
    2.3284    1.3662    7.3752 H   0  0  0  0  0  0  0  0  0  0  0  0
    0.9870    1.9004    6.3862 H   0  0  0  0  0  0  0  0  0  0  0  0
    3.9393    2.3508    5.9416 H   0  0  0  0  0  0  0  0  0  0  0  0
    1.5666   -0.3655    5.3704 H   0  0  0  0  0  0  0  0  0  0  0  0
    1.8644   -3.0811    1.5061 H   0  0  0  0  0  0  0  0  0  0  0  0
    3.2371   -1.7671   -0.0782 H   0  0  0  0  0  0  0  0  0  0  0  0
    4.1059    0.4991    0.6733 H   0  0  0  0  0  0  0  0  0  0  0  0
    1.9185    3.7764    4.2038 H   0  0  0  0  0  0  0  0  0  0  0  0
    3.6441    4.0381    4.2922 H   0  0  0  0  0  0  0  0  0  0  0  0
    4.0012    2.0990    2.8548 H   0  0  0  0  0  0  0  0  0  0  0  0
  1  2  2  0
  2  3  1  0
  2 14  1  0
  3  8  1  0
  3  4  2  0
  4  5  1  0
  4 31  1  0
  5  6  2  0
  5 32  1  0
  6  7  1  0
  6 33  1  0
  7  8  2  0
  7 34  1  0
  8  9  1  0
  9 13  1  0
  9 10  1  0
 10 11  2  0
 11 12  1  0
 11 35  1  0
 12 13  2  0
 12 36  1  0
 14 18  1  0
 14 15  1  0
 15 30  1  0
 15 16  1  0
 15 37  1  6
 16 17  1  0
 16 38  1  0
 16 39  1  0
 17 18  1  0
 17 40  1  0
 17 41  1  0
 18 19  1  0
 18 42  1  1
 19 20  1  0
 19 43  1  0
 19 44  1  0
 20 21  1  0
 20 30  1  0
 20 45  1  1
 21 29  1  0
 21 22  2  0
 22 23  1  0
 22 46  1  0
 23 28  1  0
 23 24  1  0
 24 25  2  0
 25 26  1  0
 25 47  1  0
 26 27  2  0
 26 48  1  0
 27 28  1  0
 27 49  1  0
 28 29  2  0
 29 52  1  0
 30 50  1  0
 30 51  1  0
M  CHG  1  29   1
M  END
>  <i_m_ct_stereo_status>  (88) 
1

>  <s_m_source_file>  (88) 
/var/tmp/pbs.5076255.sched01/tmp7me73ahx/0ll6f151o.sdf

>  <i_m_source_file_index>  (88) 
35

>  <i_lp_mmshare_version>  (88) 
48012

>  <i_f3d_flags>  (88) 
0

>  <s_epik_input>  (88) 
bjFbY0hdW2NIXVtjSF1jKG4xMiluYyhbY0hdMilbQ0BASF0oW0NIMl0zKVtDSDJdW0NAQEhdKFtDSDJdW0NIMl00KU4oW0NASF0zNClDKD1PKWM1W2NIXVtjSF1bY0hdW2NIXWM1LW42bltjSF1bY0hdbjY=

>  <s_epik_cmdline>  (88) 
J2VwaWtfcHl0aG9uJywgJy1waHQnLCAnMi4wJywgJy1waCcsICc3LjAnLCAnLXRuJywgJzgnLCAnLW1hJywgJzIwMCcsICctaW1hZScsICc8aW5maWxlLm1hZT4nLCAnLW9tYWUnLCAnPG91dGZpbGUubWFlPic=

>  <r_lp_tautomer_probability>  (88) 
1

>  <r_epik_Ionization_Penalty>  (88) 
2.12198

>  <r_epik_Ionization_Penalty_Charging>  (88) 
2.12198

>  <r_epik_Ionization_Penalty_Neutral>  (88) 
8.32636e-09

>  <r_epik_State_Penalty>  (88) 
2.25969

>  <r_epik_Charging_Adjusted_Penalty>  (88) 
4.38167

>  <i_epik_Tot_Q>  (88) 
1

>  <i_epik_Tot_abs_Q>  (88) 
1

>  <s_lp_Force_Field>  (88) 
OPLS3e

>  <r_lp_Energy>  (88) 
45.7849

>  <b_lp_Chiralities_Consistent>  (88) 
1

>  <s_lp_Variant>  (88) 
27:0-3

>  <s_i_glide_gridfile>  (88) 
pfpi4k_grid

>  <i_i_glide_lignum>  (88) 
35

>  <i_i_glide_rotatable_bonds>  (88) 
4

>  <r_i_docking_score>  (88) 
-3.31936

>  <r_i_glide_ligand_efficiency>  (88) 
-0.110645

>  <r_i_glide_ligand_efficiency_sa>  (88) 
-0.3438

>  <r_i_glide_ligand_efficiency_ln>  (88) 
-0.754194

>  <r_i_glide_gscore>  (88) 
-3.31936

>  <r_i_glide_lipo>  (88) 
-0.221511

>  <r_i_glide_hbond>  (88) 
0

>  <r_i_glide_metal>  (88) 
-0

>  <r_i_glide_rewards>  (88) 
-0.760476

>  <r_i_glide_evdw>  (88) 
-25.9735

>  <r_i_glide_ecoul>  (88) 
-10.0928

>  <r_i_glide_erotb>  (88) 
0.488995

>  <r_i_glide_esite>  (88) 
-0.0137754

>  <r_i_glide_emodel>  (88) 
-42.1014

>  <r_i_glide_energy>  (88) 
-36.0662

>  <r_i_glide_einternal>  (88) 
4.1541

>  <r_i_glide_intrahb_reward>  (88) 
-0

>  <i_i_glide_confnum>  (88) 
4

>  <i_i_glide_posenum>  (88) 
22

>  <r_i_glide_eff_state_penalty>  (88) 
0

>  <ligand_id>  (88) 
27

>  <original_smiles>  (88) 
O=C(c1ccccc1-n1nccn1)N1C2CCC1CC(c1cn3ncccc3n1)C2

>  <smiles>  (88) 
[H]c1nn(-c2c([H])c([H])c([H])c([H])c2C(=O)N2C3([H])C([H])([H])C([H])([H])C2([H])C([H])([H])C([H])(c2c([H])n4nc([H])c([H])c([H])c4[n+]2[H])C3([H])[H])nc1[H]

$$$$
27:2:2
     RDKit          3D

 52 57  0  0  1  0  0  0  0  0999 V2000
    1.6124   -1.9080    4.1602 O   0  0  0  0  0  0  0  0  0  0  0  0
    2.0004   -0.7410    4.0845 C   0  0  0  0  0  0  0  0  0  0  0  0
    3.4496   -0.4126    4.3356 C   0  0  0  0  0  0  0  0  0  0  0  0
    3.8051    0.0635    5.6179 C   0  0  0  0  0  0  0  0  0  0  0  0
    5.1375    0.3909    5.9312 C   0  0  0  0  0  0  0  0  0  0  0  0
    6.1386    0.2427    4.9591 C   0  0  0  0  0  0  0  0  0  0  0  0
    5.8024   -0.2148    3.6721 C   0  0  0  0  0  0  0  0  0  0  0  0
    4.4645   -0.5419    3.3358 C   0  0  0  0  0  0  0  0  0  0  0  0
    4.2108   -0.9653    1.9977 N   0  0  0  0  0  0  0  0  0  0  0  0
    4.8493   -0.4077    0.9265 N   0  0  0  0  0  0  0  0  0  0  0  0
    4.3462   -1.0584   -0.0938 C   0  0  0  0  0  0  0  0  0  0  0  0
    3.4165   -2.0185    0.3700 C   0  0  0  0  0  0  0  0  0  0  0  0
    3.3612   -1.9784    1.6761 N   0  0  0  0  0  0  0  0  0  0  0  0
    1.1656    0.2894    3.8289 N   0  0  0  0  0  0  0  0  0  0  0  0
    1.4763    1.7033    3.7123 C   0  0  1  0  0  0  0  0  0  0  0  0
    0.6683    2.1352    2.4850 C   0  0  0  0  0  0  0  0  0  0  0  0
   -0.4965    1.1449    2.4033 C   0  0  0  0  0  0  0  0  0  0  0  0
   -0.2684    0.2034    3.5945 C   0  0  2  0  0  0  0  0  0  0  0  0
   -0.9714    0.6919    4.8822 C   0  0  0  0  0  0  0  0  0  0  0  0
   -0.5212    2.1224    5.2937 C   0  0  1  0  0  0  0  0  0  0  0  0
   -0.9584    2.4471    6.7015 C   0  0  0  0  0  0  0  0  0  0  0  0
   -0.1480    2.6084    7.8138 C   0  0  0  0  0  0  0  0  0  0  0  0
   -1.0258    2.8756    8.8366 N   0  0  0  0  0  0  0  0  0  0  0  0
   -0.5947    3.0964   10.1281 N   0  0  0  0  0  0  0  0  0  0  0  0
   -1.6434    3.3229   10.9298 C   0  0  0  0  0  0  0  0  0  0  0  0
   -3.0149    3.3506   10.5654 C   0  0  0  0  0  0  0  0  0  0  0  0
   -3.3563    3.1335    9.2547 C   0  0  0  0  0  0  0  0  0  0  0  0
   -2.2832    2.8889    8.4212 C   0  0  0  0  0  0  0  0  0  0  0  0
   -2.2819    2.6259    7.1190 N   0  0  0  0  0  0  0  0  0  0  0  0
    0.9931    2.3674    5.0216 C   0  0  0  0  0  0  0  0  0  0  0  0
    3.0443    0.1797    6.3756 H   0  0  0  0  0  0  0  0  0  0  0  0
    5.3936    0.7449    6.9188 H   0  0  0  0  0  0  0  0  0  0  0  0
    7.1674    0.4748    5.1941 H   0  0  0  0  0  0  0  0  0  0  0  0
    6.5864   -0.3224    2.9370 H   0  0  0  0  0  0  0  0  0  0  0  0
    4.6458   -0.8198   -1.1037 H   0  0  0  0  0  0  0  0  0  0  0  0
    2.8001   -2.7074   -0.1902 H   0  0  0  0  0  0  0  0  0  0  0  0
    2.5335    1.9040    3.5443 H   0  0  0  0  0  0  0  0  0  0  0  0
    0.3286    3.1642    2.5771 H   0  0  0  0  0  0  0  0  0  0  0  0
    1.2737    2.0687    1.5801 H   0  0  0  0  0  0  0  0  0  0  0  0
   -1.4698    1.6370    2.4346 H   0  0  0  0  0  0  0  0  0  0  0  0
   -0.4449    0.5998    1.4595 H   0  0  0  0  0  0  0  0  0  0  0  0
   -0.5803   -0.8091    3.3477 H   0  0  0  0  0  0  0  0  0  0  0  0
   -2.0564    0.6604    4.7537 H   0  0  0  0  0  0  0  0  0  0  0  0
   -0.7346   -0.0079    5.6859 H   0  0  0  0  0  0  0  0  0  0  0  0
   -1.0515    2.8073    4.6317 H   0  0  0  0  0  0  0  0  0  0  0  0
    0.9192    2.5582    7.9709 H   0  0  0  0  0  0  0  0  0  0  0  0
   -1.3998    3.4772   11.9796 H   0  0  0  0  0  0  0  0  0  0  0  0
   -3.7653    3.5117   11.3336 H   0  0  0  0  0  0  0  0  0  0  0  0
   -4.3806    3.1312    8.8928 H   0  0  0  0  0  0  0  0  0  0  0  0
    1.5849    1.9488    5.8329 H   0  0  0  0  0  0  0  0  0  0  0  0
    1.1995    3.4374    4.9996 H   0  0  0  0  0  0  0  0  0  0  0  0
   -3.0990    2.5738    6.5253 H   0  0  0  0  0  0  0  0  0  0  0  0
  1  2  2  0
  2  3  1  0
  2 14  1  0
  3  8  1  0
  3  4  2  0
  4  5  1  0
  4 31  1  0
  5  6  2  0
  5 32  1  0
  6  7  1  0
  6 33  1  0
  7  8  2  0
  7 34  1  0
  8  9  1  0
  9 13  1  0
  9 10  1  0
 10 11  2  0
 11 12  1  0
 11 35  1  0
 12 13  2  0
 12 36  1  0
 14 18  1  0
 14 15  1  0
 15 30  1  0
 15 16  1  0
 15 37  1  6
 16 17  1  0
 16 38  1  0
 16 39  1  0
 17 18  1  0
 17 40  1  0
 17 41  1  0
 18 19  1  0
 18 42  1  6
 19 20  1  0
 19 43  1  0
 19 44  1  0
 20 21  1  0
 20 30  1  0
 20 45  1  6
 21 29  1  0
 21 22  2  0
 22 23  1  0
 22 46  1  0
 23 28  1  0
 23 24  1  0
 24 25  2  0
 25 26  1  0
 25 47  1  0
 26 27  2  0
 26 48  1  0
 27 28  1  0
 27 49  1  0
 28 29  2  0
 29 52  1  0
 30 50  1  0
 30 51  1  0
M  CHG  1  29   1
M  END
>  <i_m_ct_stereo_status>  (89) 
1

>  <s_m_source_file>  (89) 
/var/tmp/pbs.5076255.sched01/tmp7me73ahx/0ll6f151o.sdf

>  <i_m_source_file_index>  (89) 
35

>  <i_lp_mmshare_version>  (89) 
48012

>  <i_f3d_flags>  (89) 
0

>  <s_epik_input>  (89) 
bjFbY0hdW2NIXVtjSF1jKG4xMiluYyhbY0hdMilbQ0BASF0oW0NIMl0zKVtDSDJdW0NAQEhdKFtDSDJdW0NIMl00KU4oW0NASF0zNClDKD1PKWM1W2NIXVtjSF1bY0hdW2NIXWM1LW42bltjSF1bY0hdbjY=

>  <s_epik_cmdline>  (89) 
J2VwaWtfcHl0aG9uJywgJy1waHQnLCAnMi4wJywgJy1waCcsICc3LjAnLCAnLXRuJywgJzgnLCAnLW1hJywgJzIwMCcsICctaW1hZScsICc8aW5maWxlLm1hZT4nLCAnLW9tYWUnLCAnPG91dGZpbGUubWFlPic=

>  <r_lp_tautomer_probability>  (89) 
1

>  <r_epik_Ionization_Penalty>  (89) 
2.12198

>  <r_epik_Ionization_Penalty_Charging>  (89) 
2.12198

>  <r_epik_Ionization_Penalty_Neutral>  (89) 
8.32636e-09

>  <r_epik_State_Penalty>  (89) 
2.25969

>  <r_epik_Charging_Adjusted_Penalty>  (89) 
4.38167

>  <i_epik_Tot_Q>  (89) 
1

>  <i_epik_Tot_abs_Q>  (89) 
1

>  <s_lp_Force_Field>  (89) 
OPLS3e

>  <r_lp_Energy>  (89) 
45.7849

>  <b_lp_Chiralities_Consistent>  (89) 
1

>  <s_lp_Variant>  (89) 
27:0-3

>  <s_i_glide_gridfile>  (89) 
pfpi4k_grid

>  <i_i_glide_lignum>  (89) 
35

>  <i_i_glide_rotatable_bonds>  (89) 
4

>  <r_i_docking_score>  (89) 
-2.6819

>  <r_i_glide_ligand_efficiency>  (89) 
-0.0893967

>  <r_i_glide_ligand_efficiency_sa>  (89) 
-0.277776

>  <r_i_glide_ligand_efficiency_ln>  (89) 
-0.609357

>  <r_i_glide_gscore>  (89) 
-2.6819

>  <r_i_glide_lipo>  (89) 
-0.319675

>  <r_i_glide_hbond>  (89) 
0

>  <r_i_glide_metal>  (89) 
-0

>  <r_i_glide_rewards>  (89) 
-0.741658

>  <r_i_glide_evdw>  (89) 
-28.3977

>  <r_i_glide_ecoul>  (89) 
-4.48787

>  <r_i_glide_erotb>  (89) 
0.488995

>  <r_i_glide_esite>  (89) 
-0.0164991

>  <r_i_glide_emodel>  (89) 
-38.1968

>  <r_i_glide_energy>  (89) 
-32.8855

>  <r_i_glide_einternal>  (89) 
2.5541

>  <r_i_glide_intrahb_reward>  (89) 
-0

>  <i_i_glide_confnum>  (89) 
3

>  <i_i_glide_posenum>  (89) 
16

>  <r_i_glide_eff_state_penalty>  (89) 
0

>  <ligand_id>  (89) 
27

>  <original_smiles>  (89) 
O=C(c1ccccc1-n1nccn1)N1C2CCC1CC(c1cn3ncccc3n1)C2

>  <smiles>  (89) 
[H]c1nn(-c2c([H])c([H])c([H])c([H])c2C(=O)N2C3([H])C([H])([H])C([H])([H])C2([H])C([H])([H])C([H])(c2c([H])n4nc([H])c([H])c([H])c4[n+]2[H])C3([H])[H])nc1[H]

$$$$
27:3:0
     RDKit          3D

 52 57  0  0  1  0  0  0  0  0999 V2000
    5.2151   -3.2750    2.8290 O   0  0  0  0  0  0  0  0  0  0  0  0
    4.5394   -2.5763    2.0765 C   0  0  0  0  0  0  0  0  0  0  0  0
    4.7774   -2.6443    0.5858 C   0  0  0  0  0  0  0  0  0  0  0  0
    5.0508   -1.4558   -0.1203 C   0  0  0  0  0  0  0  0  0  0  0  0
    5.2247   -1.4615   -1.5081 C   0  0  0  0  0  0  0  0  0  0  0  0
    5.2222   -2.6713   -2.2259 C   0  0  0  0  0  0  0  0  0  0  0  0
    5.0013   -3.8808   -1.5355 C   0  0  0  0  0  0  0  0  0  0  0  0
    4.7499   -3.8761   -0.1440 C   0  0  0  0  0  0  0  0  0  0  0  0
    4.4873   -5.1336    0.4767 N   0  0  0  0  0  0  0  0  0  0  0  0
    3.3049   -5.4335    1.0879 N   0  0  0  0  0  0  0  0  0  0  0  0
    3.4821   -6.6709    1.4857 C   0  0  0  0  0  0  0  0  0  0  0  0
    4.7746   -7.1048    1.1198 C   0  0  0  0  0  0  0  0  0  0  0  0
    5.4012   -6.1431    0.4859 N   0  0  0  0  0  0  0  0  0  0  0  0
    3.5800   -1.7196    2.5384 N   0  0  0  0  0  0  0  0  0  0  0  0
    2.6140   -0.9456    1.7692 C   0  0  1  0  0  0  0  0  0  0  0  0
    1.2856   -1.2251    2.5081 C   0  0  0  0  0  0  0  0  0  0  0  0
    1.6847   -1.5900    3.9493 C   0  0  0  0  0  0  0  0  0  0  0  0
    3.2226   -1.4587    3.9393 C   0  0  2  0  0  0  0  0  0  0  0  0
    3.7290   -0.0238    4.2562 C   0  0  0  0  0  0  0  0  0  0  0  0
    3.1341    1.0493    3.2929 C   0  0  2  0  0  0  0  0  0  0  0  0
    1.7843    1.5576    3.7279 C   0  0  0  0  0  0  0  0  0  0  0  0
    1.1831    1.4578    4.9715 C   0  0  0  0  0  0  0  0  0  0  0  0
   -0.0792    1.9703    4.7925 N   0  0  0  0  0  0  0  0  0  0  0  0
   -1.0425    1.9483    5.7799 N   0  0  0  0  0  0  0  0  0  0  0  0
   -2.1656    2.5327    5.3495 C   0  0  0  0  0  0  0  0  0  0  0  0
   -2.4090    3.0688    4.0499 C   0  0  0  0  0  0  0  0  0  0  0  0
   -1.4008    3.0146    3.1123 C   0  0  0  0  0  0  0  0  0  0  0  0
   -0.2286    2.4623    3.5640 C   0  0  0  0  0  0  0  0  0  0  0  0
    0.9024    2.2723    2.8998 N   0  0  0  0  0  0  0  0  0  0  0  0
    3.0452    0.5403    1.8367 C   0  0  0  0  0  0  0  0  0  0  0  0
    5.1482   -0.5264    0.4005 H   0  0  0  0  0  0  0  0  0  0  0  0
    5.3753   -0.5318   -2.0240 H   0  0  0  0  0  0  0  0  0  0  0  0
    5.3913   -2.6828   -3.2960 H   0  0  0  0  0  0  0  0  0  0  0  0
    5.0146   -4.8264   -2.0796 H   0  0  0  0  0  0  0  0  0  0  0  0
    2.6989   -7.2005    2.0088 H   0  0  0  0  0  0  0  0  0  0  0  0
    5.2551   -8.0557    1.2801 H   0  0  0  0  0  0  0  0  0  0  0  0
    2.5191   -1.2736    0.7332 H   0  0  0  0  0  0  0  0  0  0  0  0
    0.6111   -0.3711    2.4250 H   0  0  0  0  0  0  0  0  0  0  0  0
    0.7553   -2.0698    2.0647 H   0  0  0  0  0  0  0  0  0  0  0  0
    1.2180   -0.9548    4.7009 H   0  0  0  0  0  0  0  0  0  0  0  0
    1.3888   -2.6248    4.1444 H   0  0  0  0  0  0  0  0  0  0  0  0
    3.6762   -2.1847    4.6216 H   0  0  0  0  0  0  0  0  0  0  0  0
    3.6082    0.2265    5.3114 H   0  0  0  0  0  0  0  0  0  0  0  0
    4.8037   -0.0198    4.1051 H   0  0  0  0  0  0  0  0  0  0  0  0
    3.7805    1.9321    3.3170 H   0  0  0  0  0  0  0  0  0  0  0  0
    1.5033    1.0157    5.9140 H   0  0  0  0  0  0  0  0  0  0  0  0
   -2.9461    2.5827    6.1058 H   0  0  0  0  0  0  0  0  0  0  0  0
   -3.3667    3.5207    3.8153 H   0  0  0  0  0  0  0  0  0  0  0  0
   -1.4744    3.3883    2.0895 H   0  0  0  0  0  0  0  0  0  0  0  0
    4.0426    0.6832    1.4527 H   0  0  0  0  0  0  0  0  0  0  0  0
    2.3928    1.1524    1.2092 H   0  0  0  0  0  0  0  0  0  0  0  0
    0.9908    2.5088    1.9142 H   0  0  0  0  0  0  0  0  0  0  0  0
  1  2  2  0
  2  3  1  0
  2 14  1  0
  3  8  1  0
  3  4  2  0
  4  5  1  0
  4 31  1  0
  5  6  2  0
  5 32  1  0
  6  7  1  0
  6 33  1  0
  7  8  2  0
  7 34  1  0
  8  9  1  0
  9 13  1  0
  9 10  1  0
 10 11  2  0
 11 12  1  0
 11 35  1  0
 12 13  2  0
 12 36  1  0
 14 18  1  0
 14 15  1  0
 15 30  1  0
 15 16  1  0
 15 37  1  6
 16 17  1  0
 16 38  1  0
 16 39  1  0
 17 18  1  0
 17 40  1  0
 17 41  1  0
 18 19  1  0
 18 42  1  1
 19 20  1  0
 19 43  1  0
 19 44  1  0
 20 21  1  0
 20 30  1  0
 20 45  1  6
 21 29  1  0
 21 22  2  0
 22 23  1  0
 22 46  1  0
 23 28  1  0
 23 24  1  0
 24 25  2  0
 25 26  1  0
 25 47  1  0
 26 27  2  0
 26 48  1  0
 27 28  1  0
 27 49  1  0
 28 29  2  0
 29 52  1  0
 30 50  1  0
 30 51  1  0
M  CHG  1  29   1
M  END
>  <i_m_ct_stereo_status>  (90) 
1

>  <s_m_source_file>  (90) 
/var/tmp/pbs.5076255.sched01/tmp7me73ahx/0ll6f151o.sdf

>  <i_m_source_file_index>  (90) 
36

>  <i_lp_mmshare_version>  (90) 
48012

>  <i_f3d_flags>  (90) 
0

>  <s_epik_input>  (90) 
bjFbY0hdW2NIXVtjSF1jKG4xMiluYyhbY0hdMilbQ0BASF0oW0NIMl0zKVtDSDJdW0NAQEhdKFtDSDJdW0NIMl00KU4oW0NASF0zNClDKD1PKWM1W2NIXVtjSF1bY0hdW2NIXWM1LW42bltjSF1bY0hdbjY=

>  <s_epik_cmdline>  (90) 
J2VwaWtfcHl0aG9uJywgJy1waHQnLCAnMi4wJywgJy1waCcsICc3LjAnLCAnLXRuJywgJzgnLCAnLW1hJywgJzIwMCcsICctaW1hZScsICc8aW5maWxlLm1hZT4nLCAnLW9tYWUnLCAnPG91dGZpbGUubWFlPic=

>  <r_lp_tautomer_probability>  (90) 
1

>  <r_epik_Ionization_Penalty>  (90) 
2.12198

>  <r_epik_Ionization_Penalty_Charging>  (90) 
2.12198

>  <r_epik_Ionization_Penalty_Neutral>  (90) 
8.32636e-09

>  <r_epik_State_Penalty>  (90) 
2.25969

>  <r_epik_Charging_Adjusted_Penalty>  (90) 
4.38167

>  <i_epik_Tot_Q>  (90) 
1

>  <i_epik_Tot_abs_Q>  (90) 
1

>  <s_lp_Force_Field>  (90) 
OPLS3e

>  <r_lp_Energy>  (90) 
48.8573

>  <b_lp_Chiralities_Consistent>  (90) 
1

>  <s_lp_Variant>  (90) 
27:0-4

>  <s_i_glide_gridfile>  (90) 
pfpi4k_grid

>  <i_i_glide_lignum>  (90) 
36

>  <i_i_glide_rotatable_bonds>  (90) 
4

>  <r_i_docking_score>  (90) 
-2.86868

>  <r_i_glide_ligand_efficiency>  (90) 
-0.0956226

>  <r_i_glide_ligand_efficiency_sa>  (90) 
-0.297122

>  <r_i_glide_ligand_efficiency_ln>  (90) 
-0.651795

>  <r_i_glide_gscore>  (90) 
-2.86868

>  <r_i_glide_lipo>  (90) 
-0.434394

>  <r_i_glide_hbond>  (90) 
-0.0298721

>  <r_i_glide_metal>  (90) 
-0

>  <r_i_glide_rewards>  (90) 
-0.788271

>  <r_i_glide_evdw>  (90) 
-30.9302

>  <r_i_glide_ecoul>  (90) 
-2.82548

>  <r_i_glide_erotb>  (90) 
0.488995

>  <r_i_glide_esite>  (90) 
-0.134802

>  <r_i_glide_emodel>  (90) 
-40.2036

>  <r_i_glide_energy>  (90) 
-33.7557

>  <r_i_glide_einternal>  (90) 
1.24664

>  <r_i_glide_intrahb_reward>  (90) 
-0

>  <i_i_glide_confnum>  (90) 
5

>  <i_i_glide_posenum>  (90) 
16

>  <r_i_glide_eff_state_penalty>  (90) 
0

>  <ligand_id>  (90) 
27

>  <original_smiles>  (90) 
O=C(c1ccccc1-n1nccn1)N1C2CCC1CC(c1cn3ncccc3n1)C2

>  <smiles>  (90) 
[H]c1nn(-c2c([H])c([H])c([H])c([H])c2C(=O)N2C3([H])C([H])([H])C([H])([H])C2([H])C([H])([H])C([H])(c2c([H])n4nc([H])c([H])c([H])c4[n+]2[H])C3([H])[H])nc1[H]

$$$$
27:3:1
     RDKit          3D

 52 57  0  0  1  0  0  0  0  0999 V2000
   -1.8235    2.0712    5.3376 O   0  0  0  0  0  0  0  0  0  0  0  0
   -0.7650    2.5257    4.9032 C   0  0  0  0  0  0  0  0  0  0  0  0
   -0.3770    3.9575    5.2115 C   0  0  0  0  0  0  0  0  0  0  0  0
    0.0968    4.7803    4.1561 C   0  0  0  0  0  0  0  0  0  0  0  0
    0.5441    6.0917    4.3867 C   0  0  0  0  0  0  0  0  0  0  0  0
    0.4106    6.6599    5.6591 C   0  0  0  0  0  0  0  0  0  0  0  0
   -0.1334    5.8971    6.7136 C   0  0  0  0  0  0  0  0  0  0  0  0
   -0.5077    4.5408    6.5140 C   0  0  0  0  0  0  0  0  0  0  0  0
   -1.0110    3.8321    7.6529 N   0  0  0  0  0  0  0  0  0  0  0  0
   -0.5979    2.5846    8.0108 N   0  0  0  0  0  0  0  0  0  0  0  0
   -1.3224    2.3247    9.0772 C   0  0  0  0  0  0  0  0  0  0  0  0
   -2.1336    3.4401    9.3840 C   0  0  0  0  0  0  0  0  0  0  0  0
   -1.9405    4.3802    8.4877 N   0  0  0  0  0  0  0  0  0  0  0  0
    0.0827    1.7792    4.1334 N   0  0  0  0  0  0  0  0  0  0  0  0
   -0.2549    0.4752    3.5585 C   0  0  1  0  0  0  0  0  0  0  0  0
    0.1253    0.6286    2.0795 C   0  0  0  0  0  0  0  0  0  0  0  0
    1.1974    1.7416    2.0663 C   0  0  0  0  0  0  0  0  0  0  0  0
    1.4020    2.1023    3.5635 C   0  0  2  0  0  0  0  0  0  0  0  0
    2.4278    1.2327    4.3171 C   0  0  0  0  0  0  0  0  0  0  0  0
    2.1614   -0.2839    4.1905 C   0  0  2  0  0  0  0  0  0  0  0  0
    2.7527   -0.8611    2.9178 C   0  0  0  0  0  0  0  0  0  0  0  0
    3.5830   -0.2699    1.9987 C   0  0  0  0  0  0  0  0  0  0  0  0
    3.6829   -1.1649    0.9609 N   0  0  0  0  0  0  0  0  0  0  0  0
    4.3389   -0.8751   -0.2023 N   0  0  0  0  0  0  0  0  0  0  0  0
    4.3175   -1.9624   -1.0246 C   0  0  0  0  0  0  0  0  0  0  0  0
    3.7300   -3.2160   -0.7655 C   0  0  0  0  0  0  0  0  0  0  0  0
    3.0541   -3.3921    0.4284 C   0  0  0  0  0  0  0  0  0  0  0  0
    3.0708   -2.3125    1.2635 C   0  0  0  0  0  0  0  0  0  0  0  0
    2.5162   -2.1705    2.4639 N   0  0  0  0  0  0  0  0  0  0  0  0
    0.6224   -0.5766    4.2950 C   0  0  0  0  0  0  0  0  0  0  0  0
    0.1394    4.4101    3.1354 H   0  0  0  0  0  0  0  0  0  0  0  0
    0.9829    6.6497    3.5731 H   0  0  0  0  0  0  0  0  0  0  0  0
    0.7247    7.6866    5.8285 H   0  0  0  0  0  0  0  0  0  0  0  0
   -0.2639    6.3519    7.6793 H   0  0  0  0  0  0  0  0  0  0  0  0
   -1.2405    1.3736    9.5814 H   0  0  0  0  0  0  0  0  0  0  0  0
   -2.8254    3.5931   10.2040 H   0  0  0  0  0  0  0  0  0  0  0  0
   -1.3194    0.2112    3.6471 H   0  0  0  0  0  0  0  0  0  0  0  0
    0.5083   -0.2962    1.6487 H   0  0  0  0  0  0  0  0  0  0  0  0
   -0.7333    0.9263    1.4621 H   0  0  0  0  0  0  0  0  0  0  0  0
    2.1038    1.5523    1.5143 H   0  0  0  0  0  0  0  0  0  0  0  0
    0.7045    2.5463    1.5431 H   0  0  0  0  0  0  0  0  0  0  0  0
    1.7803    3.1117    3.6725 H   0  0  0  0  0  0  0  0  0  0  0  0
    3.4394    1.5135    4.0283 H   0  0  0  0  0  0  0  0  0  0  0  0
    2.3601    1.5025    5.3694 H   0  0  0  0  0  0  0  0  0  0  0  0
    2.6593   -0.7684    5.0434 H   0  0  0  0  0  0  0  0  0  0  0  0
    4.0488    0.7227    1.9180 H   0  0  0  0  0  0  0  0  0  0  0  0
    4.8492   -1.8025   -1.9546 H   0  0  0  0  0  0  0  0  0  0  0  0
    3.8271   -4.0338   -1.4726 H   0  0  0  0  0  0  0  0  0  0  0  0
    2.5804   -4.3286    0.7301 H   0  0  0  0  0  0  0  0  0  0  0  0
    0.3468   -0.5412    5.3463 H   0  0  0  0  0  0  0  0  0  0  0  0
    0.3744   -1.5879    3.9669 H   0  0  0  0  0  0  0  0  0  0  0  0
    1.9257   -2.8615    2.9104 H   0  0  0  0  0  0  0  0  0  0  0  0
  1  2  2  0
  2  3  1  0
  2 14  1  0
  3  8  1  0
  3  4  2  0
  4  5  1  0
  4 31  1  0
  5  6  2  0
  5 32  1  0
  6  7  1  0
  6 33  1  0
  7  8  2  0
  7 34  1  0
  8  9  1  0
  9 13  1  0
  9 10  1  0
 10 11  2  0
 11 12  1  0
 11 35  1  0
 12 13  2  0
 12 36  1  0
 14 18  1  0
 14 15  1  0
 15 30  1  0
 15 16  1  0
 15 37  1  6
 16 17  1  0
 16 38  1  0
 16 39  1  0
 17 18  1  0
 17 40  1  0
 17 41  1  0
 18 19  1  0
 18 42  1  6
 19 20  1  0
 19 43  1  0
 19 44  1  0
 20 21  1  0
 20 30  1  0
 20 45  1  1
 21 29  1  0
 21 22  2  0
 22 23  1  0
 22 46  1  0
 23 28  1  0
 23 24  1  0
 24 25  2  0
 25 26  1  0
 25 47  1  0
 26 27  2  0
 26 48  1  0
 27 28  1  0
 27 49  1  0
 28 29  2  0
 29 52  1  0
 30 50  1  0
 30 51  1  0
M  CHG  1  29   1
M  END
>  <i_m_ct_stereo_status>  (91) 
1

>  <s_m_source_file>  (91) 
/var/tmp/pbs.5076255.sched01/tmp7me73ahx/0ll6f151o.sdf

>  <i_m_source_file_index>  (91) 
36

>  <i_lp_mmshare_version>  (91) 
48012

>  <i_f3d_flags>  (91) 
0

>  <s_epik_input>  (91) 
bjFbY0hdW2NIXVtjSF1jKG4xMiluYyhbY0hdMilbQ0BASF0oW0NIMl0zKVtDSDJdW0NAQEhdKFtDSDJdW0NIMl00KU4oW0NASF0zNClDKD1PKWM1W2NIXVtjSF1bY0hdW2NIXWM1LW42bltjSF1bY0hdbjY=

>  <s_epik_cmdline>  (91) 
J2VwaWtfcHl0aG9uJywgJy1waHQnLCAnMi4wJywgJy1waCcsICc3LjAnLCAnLXRuJywgJzgnLCAnLW1hJywgJzIwMCcsICctaW1hZScsICc8aW5maWxlLm1hZT4nLCAnLW9tYWUnLCAnPG91dGZpbGUubWFlPic=

>  <r_lp_tautomer_probability>  (91) 
1

>  <r_epik_Ionization_Penalty>  (91) 
2.12198

>  <r_epik_Ionization_Penalty_Charging>  (91) 
2.12198

>  <r_epik_Ionization_Penalty_Neutral>  (91) 
8.32636e-09

>  <r_epik_State_Penalty>  (91) 
2.25969

>  <r_epik_Charging_Adjusted_Penalty>  (91) 
4.38167

>  <i_epik_Tot_Q>  (91) 
1

>  <i_epik_Tot_abs_Q>  (91) 
1

>  <s_lp_Force_Field>  (91) 
OPLS3e

>  <r_lp_Energy>  (91) 
48.8573

>  <b_lp_Chiralities_Consistent>  (91) 
1

>  <s_lp_Variant>  (91) 
27:0-4

>  <s_i_glide_gridfile>  (91) 
pfpi4k_grid

>  <i_i_glide_lignum>  (91) 
36

>  <i_i_glide_rotatable_bonds>  (91) 
4

>  <r_i_docking_score>  (91) 
-2.73523

>  <r_i_glide_ligand_efficiency>  (91) 
-0.0911742

>  <r_i_glide_ligand_efficiency_sa>  (91) 
-0.283299

>  <r_i_glide_ligand_efficiency_ln>  (91) 
-0.621473

>  <r_i_glide_gscore>  (91) 
-2.73523

>  <r_i_glide_lipo>  (91) 
-0.0345107

>  <r_i_glide_hbond>  (91) 
0

>  <r_i_glide_metal>  (91) 
-0

>  <r_i_glide_rewards>  (91) 
-0.682246

>  <r_i_glide_evdw>  (91) 
-30.0655

>  <r_i_glide_ecoul>  (91) 
-6.08202

>  <r_i_glide_erotb>  (91) 
0.488995

>  <r_i_glide_esite>  (91) 
-0.0918839

>  <r_i_glide_emodel>  (91) 
-42.3029

>  <r_i_glide_energy>  (91) 
-36.1476

>  <r_i_glide_einternal>  (91) 
0.742426

>  <r_i_glide_intrahb_reward>  (91) 
-0

>  <i_i_glide_confnum>  (91) 
4

>  <i_i_glide_posenum>  (91) 
11

>  <r_i_glide_eff_state_penalty>  (91) 
0

>  <ligand_id>  (91) 
27

>  <original_smiles>  (91) 
O=C(c1ccccc1-n1nccn1)N1C2CCC1CC(c1cn3ncccc3n1)C2

>  <smiles>  (91) 
[H]c1nn(-c2c([H])c([H])c([H])c([H])c2C(=O)N2C3([H])C([H])([H])C([H])([H])C2([H])C([H])([H])C([H])(c2c([H])n4nc([H])c([H])c([H])c4[n+]2[H])C3([H])[H])nc1[H]

$$$$
27:3:2
     RDKit          3D

 52 57  0  0  1  0  0  0  0  0999 V2000
   -1.9611    2.7320    4.4174 O   0  0  0  0  0  0  0  0  0  0  0  0
   -0.7706    3.0435    4.3759 C   0  0  0  0  0  0  0  0  0  0  0  0
   -0.3310    4.3631    4.9533 C   0  0  0  0  0  0  0  0  0  0  0  0
    0.3011    5.2933    4.0936 C   0  0  0  0  0  0  0  0  0  0  0  0
    0.7048    6.5545    4.5653 C   0  0  0  0  0  0  0  0  0  0  0  0
    0.4584    6.9157    5.9003 C   0  0  0  0  0  0  0  0  0  0  0  0
   -0.1685    6.0018    6.7676 C   0  0  0  0  0  0  0  0  0  0  0  0
   -0.5676    4.7220    6.3146 C   0  0  0  0  0  0  0  0  0  0  0  0
   -1.1860    3.8443    7.2498 N   0  0  0  0  0  0  0  0  0  0  0  0
   -0.8124    2.5441    7.4209 N   0  0  0  0  0  0  0  0  0  0  0  0
   -1.6012    2.1304    8.3779 C   0  0  0  0  0  0  0  0  0  0  0  0
   -2.4495    3.1873    8.7908 C   0  0  0  0  0  0  0  0  0  0  0  0
   -2.1842    4.2548    8.0823 N   0  0  0  0  0  0  0  0  0  0  0  0
    0.1826    2.2678    3.8046 N   0  0  0  0  0  0  0  0  0  0  0  0
   -0.0510    1.1386    2.9040 C   0  0  1  0  0  0  0  0  0  0  0  0
    0.9217    1.4169    1.7332 C   0  0  0  0  0  0  0  0  0  0  0  0
    2.0527    2.2441    2.3937 C   0  0  0  0  0  0  0  0  0  0  0  0
    1.6408    2.3857    3.8712 C   0  0  2  0  0  0  0  0  0  0  0  0
    2.1519    1.2337    4.7754 C   0  0  0  0  0  0  0  0  0  0  0  0
    1.7392   -0.1740    4.2660 C   0  0  2  0  0  0  0  0  0  0  0  0
    2.6775   -0.7125    3.2039 C   0  0  0  0  0  0  0  0  0  0  0  0
    4.0535   -0.5319    3.0859 C   0  0  0  0  0  0  0  0  0  0  0  0
    4.3842   -1.1325    1.8912 N   0  0  0  0  0  0  0  0  0  0  0  0
    5.6476   -1.0531    1.3215 N   0  0  0  0  0  0  0  0  0  0  0  0
    5.6800   -1.7087    0.1661 C   0  0  0  0  0  0  0  0  0  0  0  0
    4.5837   -2.3208   -0.5220 C   0  0  0  0  0  0  0  0  0  0  0  0
    3.3482   -2.2783    0.0756 C   0  0  0  0  0  0  0  0  0  0  0  0
    3.3281   -1.6662    1.3010 C   0  0  0  0  0  0  0  0  0  0  0  0
    2.2819   -1.4612    2.0815 N   0  0  0  0  0  0  0  0  0  0  0  0
    0.2649   -0.1405    3.7290 C   0  0  0  0  0  0  0  0  0  0  0  0
    0.4745    5.0419    3.0546 H   0  0  0  0  0  0  0  0  0  0  0  0
    1.1912    7.2468    3.8946 H   0  0  0  0  0  0  0  0  0  0  0  0
    0.7637    7.8838    6.2635 H   0  0  0  0  0  0  0  0  0  0  0  0
   -0.3618    6.2877    7.7891 H   0  0  0  0  0  0  0  0  0  0  0  0
   -1.5324    1.1156    8.7379 H   0  0  0  0  0  0  0  0  0  0  0  0
   -3.2091    3.2095    9.5612 H   0  0  0  0  0  0  0  0  0  0  0  0
   -1.0835    1.1037    2.5410 H   0  0  0  0  0  0  0  0  0  0  0  0
    1.2702    0.5108    1.2311 H   0  0  0  0  0  0  0  0  0  0  0  0
    0.4110    2.0522    1.0002 H   0  0  0  0  0  0  0  0  0  0  0  0
    3.0370    1.7900    2.3106 H   0  0  0  0  0  0  0  0  0  0  0  0
    2.1326    3.2301    1.9230 H   0  0  0  0  0  0  0  0  0  0  0  0
    2.0051    3.3352    4.2738 H   0  0  0  0  0  0  0  0  0  0  0  0
    3.2208    1.3309    4.9564 H   0  0  0  0  0  0  0  0  0  0  0  0
    1.7002    1.3772    5.7494 H   0  0  0  0  0  0  0  0  0  0  0  0
    1.7765   -0.8604    5.1216 H   0  0  0  0  0  0  0  0  0  0  0  0
    4.7645    0.0457    3.6574 H   0  0  0  0  0  0  0  0  0  0  0  0
    6.6696   -1.7934   -0.2724 H   0  0  0  0  0  0  0  0  0  0  0  0
    4.7255   -2.8206   -1.4735 H   0  0  0  0  0  0  0  0  0  0  0  0
    2.4334   -2.6568   -0.3846 H   0  0  0  0  0  0  0  0  0  0  0  0
   -0.4000   -0.1675    4.5909 H   0  0  0  0  0  0  0  0  0  0  0  0
    0.0103   -1.0393    3.1676 H   0  0  0  0  0  0  0  0  0  0  0  0
    1.3337   -1.7438    1.8274 H   0  0  0  0  0  0  0  0  0  0  0  0
  1  2  2  0
  2  3  1  0
  2 14  1  0
  3  8  1  0
  3  4  2  0
  4  5  1  0
  4 31  1  0
  5  6  2  0
  5 32  1  0
  6  7  1  0
  6 33  1  0
  7  8  2  0
  7 34  1  0
  8  9  1  0
  9 13  1  0
  9 10  1  0
 10 11  2  0
 11 12  1  0
 11 35  1  0
 12 13  2  0
 12 36  1  0
 14 18  1  0
 14 15  1  0
 15 30  1  0
 15 16  1  0
 15 37  1  6
 16 17  1  0
 16 38  1  0
 16 39  1  0
 17 18  1  0
 17 40  1  0
 17 41  1  0
 18 19  1  0
 18 42  1  1
 19 20  1  0
 19 43  1  0
 19 44  1  0
 20 21  1  0
 20 30  1  0
 20 45  1  1
 21 29  1  0
 21 22  2  0
 22 23  1  0
 22 46  1  0
 23 28  1  0
 23 24  1  0
 24 25  2  0
 25 26  1  0
 25 47  1  0
 26 27  2  0
 26 48  1  0
 27 28  1  0
 27 49  1  0
 28 29  2  0
 29 52  1  0
 30 50  1  0
 30 51  1  0
M  CHG  1  29   1
M  END
>  <i_m_ct_stereo_status>  (92) 
1

>  <s_m_source_file>  (92) 
/var/tmp/pbs.5076255.sched01/tmp7me73ahx/0ll6f151o.sdf

>  <i_m_source_file_index>  (92) 
36

>  <i_lp_mmshare_version>  (92) 
48012

>  <i_f3d_flags>  (92) 
0

>  <s_epik_input>  (92) 
bjFbY0hdW2NIXVtjSF1jKG4xMiluYyhbY0hdMilbQ0BASF0oW0NIMl0zKVtDSDJdW0NAQEhdKFtDSDJdW0NIMl00KU4oW0NASF0zNClDKD1PKWM1W2NIXVtjSF1bY0hdW2NIXWM1LW42bltjSF1bY0hdbjY=

>  <s_epik_cmdline>  (92) 
J2VwaWtfcHl0aG9uJywgJy1waHQnLCAnMi4wJywgJy1waCcsICc3LjAnLCAnLXRuJywgJzgnLCAnLW1hJywgJzIwMCcsICctaW1hZScsICc8aW5maWxlLm1hZT4nLCAnLW9tYWUnLCAnPG91dGZpbGUubWFlPic=

>  <r_lp_tautomer_probability>  (92) 
1

>  <r_epik_Ionization_Penalty>  (92) 
2.12198

>  <r_epik_Ionization_Penalty_Charging>  (92) 
2.12198

>  <r_epik_Ionization_Penalty_Neutral>  (92) 
8.32636e-09

>  <r_epik_State_Penalty>  (92) 
2.25969

>  <r_epik_Charging_Adjusted_Penalty>  (92) 
4.38167

>  <i_epik_Tot_Q>  (92) 
1

>  <i_epik_Tot_abs_Q>  (92) 
1

>  <s_lp_Force_Field>  (92) 
OPLS3e

>  <r_lp_Energy>  (92) 
48.8573

>  <b_lp_Chiralities_Consistent>  (92) 
1

>  <s_lp_Variant>  (92) 
27:0-4

>  <s_i_glide_gridfile>  (92) 
pfpi4k_grid

>  <i_i_glide_lignum>  (92) 
36

>  <i_i_glide_rotatable_bonds>  (92) 
4

>  <r_i_docking_score>  (92) 
-2.68552

>  <r_i_glide_ligand_efficiency>  (92) 
-0.0895173

>  <r_i_glide_ligand_efficiency_sa>  (92) 
-0.278151

>  <r_i_glide_ligand_efficiency_ln>  (92) 
-0.610179

>  <r_i_glide_gscore>  (92) 
-2.68552

>  <r_i_glide_lipo>  (92) 
-0.056588

>  <r_i_glide_hbond>  (92) 
0

>  <r_i_glide_metal>  (92) 
-0

>  <r_i_glide_rewards>  (92) 
-0.746498

>  <r_i_glide_evdw>  (92) 
-30.8962

>  <r_i_glide_ecoul>  (92) 
-4.61371

>  <r_i_glide_erotb>  (92) 
0.488995

>  <r_i_glide_esite>  (92) 
-0.134559

>  <r_i_glide_emodel>  (92) 
-40.7615

>  <r_i_glide_energy>  (92) 
-35.5099

>  <r_i_glide_einternal>  (92) 
3.14238

>  <r_i_glide_intrahb_reward>  (92) 
-0

>  <i_i_glide_confnum>  (92) 
4

>  <i_i_glide_posenum>  (92) 
17

>  <r_i_glide_eff_state_penalty>  (92) 
0

>  <ligand_id>  (92) 
27

>  <original_smiles>  (92) 
O=C(c1ccccc1-n1nccn1)N1C2CCC1CC(c1cn3ncccc3n1)C2

>  <smiles>  (92) 
[H]c1nn(-c2c([H])c([H])c([H])c([H])c2C(=O)N2C3([H])C([H])([H])C([H])([H])C2([H])C([H])([H])C([H])(c2c([H])n4nc([H])c([H])c([H])c4[n+]2[H])C3([H])[H])nc1[H]

$$$$
30:0:0
     RDKit          3D

 26 27  0  0  1  0  0  0  0  0999 V2000
   -6.5854   -4.4847   -3.6032 C   0  0  0  0  0  0  0  0  0  0  0  0
   -7.0893   -5.2712   -4.6590 O   0  0  0  0  0  0  0  0  0  0  0  0
   -6.2776   -6.1077   -5.3136 C   0  0  0  0  0  0  0  0  0  0  0  0
   -5.0731   -6.2665   -5.0965 O   0  0  0  0  0  0  0  0  0  0  0  0
   -7.0170   -6.9029   -6.3913 C   0  0  0  0  0  0  0  0  0  0  0  0
   -7.9609   -6.0350   -7.2587 C   0  0  0  0  0  0  0  0  0  0  0  0
   -8.9875   -6.8499   -8.0181 C   0  0  0  0  0  0  0  0  0  0  0  0
  -10.3474   -6.4315   -8.0228 C   0  0  0  0  0  0  0  0  0  0  0  0
  -11.3027   -7.1646   -8.6891 C   0  0  0  0  0  0  0  0  0  0  0  0
  -10.9153   -8.2895   -9.3497 N   0  0  0  0  0  0  0  0  0  0  0  0
  -11.7111   -9.1240  -10.0655 N   0  0  0  0  0  0  0  0  0  0  0  0
  -10.8472  -10.0373  -10.4905 C   0  0  0  0  0  0  0  0  0  0  0  0
   -9.5468   -9.8644  -10.1144 N   0  0  0  0  0  0  0  0  0  0  0  0
   -9.5893   -8.7519   -9.3880 C   0  0  0  0  0  0  0  0  0  0  0  0
   -8.6124   -7.9920   -8.6954 C   0  0  0  0  0  0  0  0  0  0  0  0
   -7.3837   -3.8638   -3.2050 H   0  0  0  0  0  0  0  0  0  0  0  0
   -5.7747   -3.8346   -3.9354 H   0  0  0  0  0  0  0  0  0  0  0  0
   -6.2343   -5.1388   -2.8088 H   0  0  0  0  0  0  0  0  0  0  0  0
   -6.2985   -7.4243   -7.0251 H   0  0  0  0  0  0  0  0  0  0  0  0
   -7.5967   -7.6734   -5.8873 H   0  0  0  0  0  0  0  0  0  0  0  0
   -8.5058   -5.3043   -6.6571 H   0  0  0  0  0  0  0  0  0  0  0  0
   -7.3878   -5.4670   -7.9828 H   0  0  0  0  0  0  0  0  0  0  0  0
  -10.6611   -5.5440   -7.4804 H   0  0  0  0  0  0  0  0  0  0  0  0
  -12.3559   -6.8984   -8.7147 H   0  0  0  0  0  0  0  0  0  0  0  0
  -11.1639  -10.8653  -11.1049 H   0  0  0  0  0  0  0  0  0  0  0  0
   -7.5832   -8.3336   -8.7085 H   0  0  0  0  0  0  0  0  0  0  0  0
  1  2  1  0
  1 16  1  0
  1 17  1  0
  1 18  1  0
  2  3  1  0
  3  4  2  0
  3  5  1  0
  5  6  1  0
  5 19  1  0
  5 20  1  0
  6  7  1  0
  6 21  1  0
  6 22  1  0
  7 15  2  0
  7  8  1  0
  8  9  2  0
  8 23  1  0
  9 10  1  0
  9 24  1  0
 10 14  1  0
 10 11  1  0
 11 12  2  0
 12 13  1  0
 12 25  1  0
 13 14  2  0
 14 15  1  0
 15 26  1  0
M  END
>  <i_m_ct_stereo_status>  (93) 
1

>  <s_m_source_file>  (93) 
/var/tmp/pbs.5076255.sched01/tmp7me73ahx/0ll6f151o.sdf

>  <i_m_source_file_index>  (93) 
39

>  <i_lp_mmshare_version>  (93) 
48012

>  <i_f3d_flags>  (93) 
0

>  <s_epik_input>  (93) 
W0NIM11PQyg9TylbQ0gyXVtDSDJdYyhbY0hdW2NIXTEpW2NIXWMobjEyKW5bY0hdbjI=

>  <s_epik_cmdline>  (93) 
J2VwaWtfcHl0aG9uJywgJy1waHQnLCAnMi4wJywgJy1waCcsICc3LjAnLCAnLXRuJywgJzgnLCAnLW1hJywgJzIwMCcsICctaW1hZScsICc8aW5maWxlLm1hZT4nLCAnLW9tYWUnLCAnPG91dGZpbGUubWFlPic=

>  <r_epik_Ionization_Penalty>  (93) 
0.00428409

>  <r_epik_Ionization_Penalty_Charging>  (93) 
0

>  <r_epik_Ionization_Penalty_Neutral>  (93) 
0.00428409

>  <r_epik_State_Penalty>  (93) 
0.00308176

>  <r_epik_Charging_Adjusted_Penalty>  (93) 
0.00308176

>  <i_epik_Tot_Q>  (93) 
0

>  <i_epik_Tot_abs_Q>  (93) 
0

>  <s_epik_Chemistry_Notes>  (93) 
This compound has an ester and may undergo hydrolysis at high or low pH.

>  <s_lp_Force_Field>  (93) 
OPLS3e

>  <r_lp_Energy>  (93) 
13.403

>  <b_lp_Chiralities_Consistent>  (93) 
1

>  <s_lp_Variant>  (93) 
30:0-1

>  <s_i_glide_gridfile>  (93) 
pfpi4k_grid

>  <i_i_glide_lignum>  (93) 
39

>  <i_i_glide_rotatable_bonds>  (93) 
4

>  <r_i_docking_score>  (93) 
-4.63581

>  <r_i_glide_ligand_efficiency>  (93) 
-0.309054

>  <r_i_glide_ligand_efficiency_sa>  (93) 
-0.762193

>  <r_i_glide_ligand_efficiency_ln>  (93) 
-1.2502

>  <r_i_glide_gscore>  (93) 
-4.63581

>  <r_i_glide_lipo>  (93) 
-0.883569

>  <r_i_glide_hbond>  (93) 
-0.221952

>  <r_i_glide_metal>  (93) 
-0

>  <r_i_glide_rewards>  (93) 
-2.88727

>  <r_i_glide_evdw>  (93) 
-18.9144

>  <r_i_glide_ecoul>  (93) 
-3.14966

>  <r_i_glide_erotb>  (93) 
0.782325

>  <r_i_glide_esite>  (93) 
-0.00717472

>  <r_i_glide_emodel>  (93) 
-28.7293

>  <r_i_glide_energy>  (93) 
-22.0641

>  <r_i_glide_einternal>  (93) 
1.64865

>  <r_i_glide_intrahb_reward>  (93) 
-0

>  <i_i_glide_confnum>  (93) 
1

>  <i_i_glide_posenum>  (93) 
10

>  <r_i_glide_eff_state_penalty>  (93) 
0

>  <ligand_id>  (93) 
30

>  <original_smiles>  (93) 
COC(=O)CCc1ccn2ncnc2c1

>  <smiles>  (93) 
[H]c1nc2c([H])c(C([H])([H])C([H])([H])C(=O)OC([H])([H])[H])c([H])c([H])n2n1

$$$$
30:0:1
     RDKit          3D

 26 27  0  0  1  0  0  0  0  0999 V2000
   -0.9664    1.2982    2.8322 C   0  0  0  0  0  0  0  0  0  0  0  0
    0.1238    0.5469    2.3287 O   0  0  0  0  0  0  0  0  0  0  0  0
    0.8819   -0.1892    3.1571 C   0  0  0  0  0  0  0  0  0  0  0  0
    0.6976   -0.3327    4.3662 O   0  0  0  0  0  0  0  0  0  0  0  0
    2.0247   -0.9016    2.4343 C   0  0  0  0  0  0  0  0  0  0  0  0
    2.8762    0.0663    1.5969 C   0  0  0  0  0  0  0  0  0  0  0  0
    4.0164   -0.6349    0.8868 C   0  0  0  0  0  0  0  0  0  0  0  0
    5.3007   -0.6764    1.4849 C   0  0  0  0  0  0  0  0  0  0  0  0
    6.3430   -1.3123    0.8552 C   0  0  0  0  0  0  0  0  0  0  0  0
    6.1173   -1.8979   -0.3513 N   0  0  0  0  0  0  0  0  0  0  0  0
    7.0280   -2.5432   -1.1254 N   0  0  0  0  0  0  0  0  0  0  0  0
    6.2917   -2.9336   -2.1605 C   0  0  0  0  0  0  0  0  0  0  0  0
    4.9924   -2.5317   -2.1553 N   0  0  0  0  0  0  0  0  0  0  0  0
    4.8732   -1.8912   -0.9966 C   0  0  0  0  0  0  0  0  0  0  0  0
    3.8110   -1.2331   -0.3367 C   0  0  0  0  0  0  0  0  0  0  0  0
   -1.4589    1.8224    2.0135 H   0  0  0  0  0  0  0  0  0  0  0  0
   -0.6311    2.0430    3.5549 H   0  0  0  0  0  0  0  0  0  0  0  0
   -1.7021    0.6507    3.3093 H   0  0  0  0  0  0  0  0  0  0  0  0
    2.6489   -1.4079    3.1708 H   0  0  0  0  0  0  0  0  0  0  0  0
    1.5981   -1.6753    1.7956 H   0  0  0  0  0  0  0  0  0  0  0  0
    2.2521    0.5666    0.8585 H   0  0  0  0  0  0  0  0  0  0  0  0
    3.2863    0.8550    2.2273 H   0  0  0  0  0  0  0  0  0  0  0  0
    5.4615   -0.2065    2.4487 H   0  0  0  0  0  0  0  0  0  0  0  0
    7.3466   -1.3684    1.2643 H   0  0  0  0  0  0  0  0  0  0  0  0
    6.7195   -3.4837   -2.9857 H   0  0  0  0  0  0  0  0  0  0  0  0
    2.8374   -1.2169   -0.8202 H   0  0  0  0  0  0  0  0  0  0  0  0
  1  2  1  0
  1 16  1  0
  1 17  1  0
  1 18  1  0
  2  3  1  0
  3  4  2  0
  3  5  1  0
  5  6  1  0
  5 19  1  0
  5 20  1  0
  6  7  1  0
  6 21  1  0
  6 22  1  0
  7 15  2  0
  7  8  1  0
  8  9  2  0
  8 23  1  0
  9 10  1  0
  9 24  1  0
 10 14  1  0
 10 11  1  0
 11 12  2  0
 12 13  1  0
 12 25  1  0
 13 14  2  0
 14 15  1  0
 15 26  1  0
M  END
>  <i_m_ct_stereo_status>  (94) 
1

>  <s_m_source_file>  (94) 
/var/tmp/pbs.5076255.sched01/tmp7me73ahx/0ll6f151o.sdf

>  <i_m_source_file_index>  (94) 
39

>  <i_lp_mmshare_version>  (94) 
48012

>  <i_f3d_flags>  (94) 
0

>  <s_epik_input>  (94) 
W0NIM11PQyg9TylbQ0gyXVtDSDJdYyhbY0hdW2NIXTEpW2NIXWMobjEyKW5bY0hdbjI=

>  <s_epik_cmdline>  (94) 
J2VwaWtfcHl0aG9uJywgJy1waHQnLCAnMi4wJywgJy1waCcsICc3LjAnLCAnLXRuJywgJzgnLCAnLW1hJywgJzIwMCcsICctaW1hZScsICc8aW5maWxlLm1hZT4nLCAnLW9tYWUnLCAnPG91dGZpbGUubWFlPic=

>  <r_epik_Ionization_Penalty>  (94) 
0.00428409

>  <r_epik_Ionization_Penalty_Charging>  (94) 
0

>  <r_epik_Ionization_Penalty_Neutral>  (94) 
0.00428409

>  <r_epik_State_Penalty>  (94) 
0.00308176

>  <r_epik_Charging_Adjusted_Penalty>  (94) 
0.00308176

>  <i_epik_Tot_Q>  (94) 
0

>  <i_epik_Tot_abs_Q>  (94) 
0

>  <s_epik_Chemistry_Notes>  (94) 
This compound has an ester and may undergo hydrolysis at high or low pH.

>  <s_lp_Force_Field>  (94) 
OPLS3e

>  <r_lp_Energy>  (94) 
13.403

>  <b_lp_Chiralities_Consistent>  (94) 
1

>  <s_lp_Variant>  (94) 
30:0-1

>  <s_i_glide_gridfile>  (94) 
pfpi4k_grid

>  <i_i_glide_lignum>  (94) 
39

>  <i_i_glide_rotatable_bonds>  (94) 
4

>  <r_i_docking_score>  (94) 
-3.37338

>  <r_i_glide_ligand_efficiency>  (94) 
-0.224892

>  <r_i_glide_ligand_efficiency_sa>  (94) 
-0.554631

>  <r_i_glide_ligand_efficiency_ln>  (94) 
-0.909744

>  <r_i_glide_gscore>  (94) 
-3.37338

>  <r_i_glide_lipo>  (94) 
-0.276303

>  <r_i_glide_hbond>  (94) 
-0.117694

>  <r_i_glide_metal>  (94) 
-0

>  <r_i_glide_rewards>  (94) 
-2.09361

>  <r_i_glide_evdw>  (94) 
-20.7508

>  <r_i_glide_ecoul>  (94) 
-3.69482

>  <r_i_glide_erotb>  (94) 
0.782325

>  <r_i_glide_esite>  (94) 
-0.0763292

>  <r_i_glide_emodel>  (94) 
-29.9607

>  <r_i_glide_energy>  (94) 
-24.4457

>  <r_i_glide_einternal>  (94) 
0.121775

>  <r_i_glide_intrahb_reward>  (94) 
-0

>  <i_i_glide_confnum>  (94) 
1

>  <i_i_glide_posenum>  (94) 
3

>  <r_i_glide_eff_state_penalty>  (94) 
0

>  <ligand_id>  (94) 
30

>  <original_smiles>  (94) 
COC(=O)CCc1ccn2ncnc2c1

>  <smiles>  (94) 
[H]c1nc2c([H])c(C([H])([H])C([H])([H])C(=O)OC([H])([H])[H])c([H])c([H])n2n1

$$$$
30:0:2
     RDKit          3D

 26 27  0  0  1  0  0  0  0  0999 V2000
    1.4317    3.5849    3.2014 C   0  0  0  0  0  0  0  0  0  0  0  0
    1.8198    2.4309    2.4794 O   0  0  0  0  0  0  0  0  0  0  0  0
    1.0755    1.3172    2.5514 C   0  0  0  0  0  0  0  0  0  0  0  0
    0.0603    1.1649    3.2316 O   0  0  0  0  0  0  0  0  0  0  0  0
    1.6287    0.1926    1.6802 C   0  0  0  0  0  0  0  0  0  0  0  0
    3.0343   -0.2547    2.1188 C   0  0  0  0  0  0  0  0  0  0  0  0
    3.6526   -1.2499    1.1533 C   0  0  0  0  0  0  0  0  0  0  0  0
    3.0343   -2.5091    0.9311 C   0  0  0  0  0  0  0  0  0  0  0  0
    3.5798   -3.4147    0.0475 C   0  0  0  0  0  0  0  0  0  0  0  0
    4.7322   -3.0785   -0.5938 N   0  0  0  0  0  0  0  0  0  0  0  0
    5.4083   -3.8397   -1.4918 N   0  0  0  0  0  0  0  0  0  0  0  0
    6.4348   -3.0569   -1.8015 C   0  0  0  0  0  0  0  0  0  0  0  0
    6.4959   -1.8566   -1.1609 N   0  0  0  0  0  0  0  0  0  0  0  0
    5.3991   -1.8593   -0.4044 C   0  0  0  0  0  0  0  0  0  0  0  0
    4.8222   -0.9297    0.4941 C   0  0  0  0  0  0  0  0  0  0  0  0
    2.1350    4.3925    2.9994 H   0  0  0  0  0  0  0  0  0  0  0  0
    1.4323    3.3925    4.2748 H   0  0  0  0  0  0  0  0  0  0  0  0
    0.4381    3.9205    2.9028 H   0  0  0  0  0  0  0  0  0  0  0  0
    0.9377   -0.6503    1.6958 H   0  0  0  0  0  0  0  0  0  0  0  0
    1.6568    0.5453    0.6502 H   0  0  0  0  0  0  0  0  0  0  0  0
    3.6954    0.6087    2.2173 H   0  0  0  0  0  0  0  0  0  0  0  0
    2.9845   -0.7210    3.1040 H   0  0  0  0  0  0  0  0  0  0  0  0
    2.1110   -2.7585    1.4475 H   0  0  0  0  0  0  0  0  0  0  0  0
    3.1502   -4.3856   -0.1785 H   0  0  0  0  0  0  0  0  0  0  0  0
    7.1865   -3.3838   -2.5081 H   0  0  0  0  0  0  0  0  0  0  0  0
    5.3121    0.0260    0.6400 H   0  0  0  0  0  0  0  0  0  0  0  0
  1  2  1  0
  1 16  1  0
  1 17  1  0
  1 18  1  0
  2  3  1  0
  3  4  2  0
  3  5  1  0
  5  6  1  0
  5 19  1  0
  5 20  1  0
  6  7  1  0
  6 21  1  0
  6 22  1  0
  7 15  2  0
  7  8  1  0
  8  9  2  0
  8 23  1  0
  9 10  1  0
  9 24  1  0
 10 14  1  0
 10 11  1  0
 11 12  2  0
 12 13  1  0
 12 25  1  0
 13 14  2  0
 14 15  1  0
 15 26  1  0
M  END
>  <i_m_ct_stereo_status>  (95) 
1

>  <s_m_source_file>  (95) 
/var/tmp/pbs.5076255.sched01/tmp7me73ahx/0ll6f151o.sdf

>  <i_m_source_file_index>  (95) 
39

>  <i_lp_mmshare_version>  (95) 
48012

>  <i_f3d_flags>  (95) 
0

>  <s_epik_input>  (95) 
W0NIM11PQyg9TylbQ0gyXVtDSDJdYyhbY0hdW2NIXTEpW2NIXWMobjEyKW5bY0hdbjI=

>  <s_epik_cmdline>  (95) 
J2VwaWtfcHl0aG9uJywgJy1waHQnLCAnMi4wJywgJy1waCcsICc3LjAnLCAnLXRuJywgJzgnLCAnLW1hJywgJzIwMCcsICctaW1hZScsICc8aW5maWxlLm1hZT4nLCAnLW9tYWUnLCAnPG91dGZpbGUubWFlPic=

>  <r_epik_Ionization_Penalty>  (95) 
0.00428409

>  <r_epik_Ionization_Penalty_Charging>  (95) 
0

>  <r_epik_Ionization_Penalty_Neutral>  (95) 
0.00428409

>  <r_epik_State_Penalty>  (95) 
0.00308176

>  <r_epik_Charging_Adjusted_Penalty>  (95) 
0.00308176

>  <i_epik_Tot_Q>  (95) 
0

>  <i_epik_Tot_abs_Q>  (95) 
0

>  <s_epik_Chemistry_Notes>  (95) 
This compound has an ester and may undergo hydrolysis at high or low pH.

>  <s_lp_Force_Field>  (95) 
OPLS3e

>  <r_lp_Energy>  (95) 
13.403

>  <b_lp_Chiralities_Consistent>  (95) 
1

>  <s_lp_Variant>  (95) 
30:0-1

>  <s_i_glide_gridfile>  (95) 
pfpi4k_grid

>  <i_i_glide_lignum>  (95) 
39

>  <i_i_glide_rotatable_bonds>  (95) 
4

>  <r_i_docking_score>  (95) 
-3.29651

>  <r_i_glide_ligand_efficiency>  (95) 
-0.219767

>  <r_i_glide_ligand_efficiency_sa>  (95) 
-0.541993

>  <r_i_glide_ligand_efficiency_ln>  (95) 
-0.889015

>  <r_i_glide_gscore>  (95) 
-3.29651

>  <r_i_glide_lipo>  (95) 
-0.100084

>  <r_i_glide_hbond>  (95) 
-0.16

>  <r_i_glide_metal>  (95) 
-0

>  <r_i_glide_rewards>  (95) 
-2.1205

>  <r_i_glide_evdw>  (95) 
-18.5985

>  <r_i_glide_ecoul>  (95) 
-4.72596

>  <r_i_glide_erotb>  (95) 
0.782325

>  <r_i_glide_esite>  (95) 
-0.0594321

>  <r_i_glide_emodel>  (95) 
-28.6284

>  <r_i_glide_energy>  (95) 
-23.3245

>  <r_i_glide_einternal>  (95) 
0.312305

>  <r_i_glide_intrahb_reward>  (95) 
-0

>  <i_i_glide_confnum>  (95) 
1

>  <i_i_glide_posenum>  (95) 
36

>  <r_i_glide_eff_state_penalty>  (95) 
0

>  <ligand_id>  (95) 
30

>  <original_smiles>  (95) 
COC(=O)CCc1ccn2ncnc2c1

>  <smiles>  (95) 
[H]c1nc2c([H])c(C([H])([H])C([H])([H])C(=O)OC([H])([H])[H])c([H])c([H])n2n1

$$$$
31:0:0
     RDKit          3D

 58 61  0  0  1  0  0  0  0  0999 V2000
    2.7549   -5.6554    5.6335 C   0  0  0  0  0  0  0  0  0  0  0  0
    3.8621   -4.9640    5.9449 C   0  0  0  0  0  0  0  0  0  0  0  0
    4.3421   -3.6960    5.2412 C   0  0  2  0  0  0  0  0  0  0  0  0
    4.0104   -2.4303    6.0545 C   0  0  0  0  0  0  0  0  0  0  0  0
    3.7610   -1.2942    5.0410 C   0  0  1  0  0  0  0  0  0  0  0  0
    4.4868    0.0103    5.4220 C   0  0  0  0  0  0  0  0  0  0  0  0
    4.0504   -1.8885    3.6325 C   0  0  2  0  0  0  0  0  0  0  0  0
    5.4174   -1.6745    3.2914 O   0  0  0  0  0  0  0  0  0  0  0  0
    3.1427   -1.3699    2.4898 C   0  0  1  0  0  0  0  0  0  0  0  0
    3.3275    0.0191    2.2922 O   0  0  0  0  0  0  0  0  0  0  0  0
    3.2067   -2.2400    1.1917 C   0  0  2  0  0  0  0  0  0  0  0  0
    4.1275   -3.5037    1.2586 C   0  0  2  0  0  0  0  0  0  0  0  0
    4.0143   -4.3342   -0.0701 C   0  0  1  0  0  0  0  0  0  0  0  0
    2.6726   -4.7191   -0.3324 O   0  0  0  0  0  0  0  0  0  0  0  0
    4.5264   -3.4764   -1.2480 C   0  0  1  0  0  0  0  0  0  0  0  0
    4.6400   -4.1193   -2.4885 O   0  0  0  0  0  0  0  0  0  0  0  0
    3.7898   -2.1523   -1.4141 C   0  0  2  0  0  0  0  0  0  0  0  0
    2.6670   -2.3346   -2.2582 O   0  0  0  0  0  0  0  0  0  0  0  0
    4.7031   -0.9874   -1.8047 C   0  0  1  0  0  0  0  0  0  0  0  0
    4.1698   -0.0682   -2.7377 O   0  0  0  0  0  0  0  0  0  0  0  0
    4.7929   -0.6543   -0.2980 C   0  0  0  0  0  0  0  0  0  0  0  0
    3.4882   -1.4197   -0.0931 C   0  0  2  0  0  0  0  0  0  0  0  0
    4.0837   -4.3434    2.5930 C   0  0  0  0  0  0  0  0  0  0  0  0
    3.0300   -5.4794    2.4646 C   0  0  0  0  0  0  0  0  0  0  0  0
    5.4664   -5.0179    2.7720 C   0  0  0  0  0  0  0  0  0  0  0  0
    3.7647   -3.3958    3.8276 C   0  0  1  0  0  0  0  0  0  0  0  0
    2.0800   -5.3181    4.8616 H   0  0  0  0  0  0  0  0  0  0  0  0
    2.5150   -6.5914    6.1275 H   0  0  0  0  0  0  0  0  0  0  0  0
    4.4913   -5.3153    6.7499 H   0  0  0  0  0  0  0  0  0  0  0  0
    5.4243   -3.7528    5.1646 H   0  0  0  0  0  0  0  0  0  0  0  0
    3.1065   -2.5960    6.6392 H   0  0  0  0  0  0  0  0  0  0  0  0
    4.8027   -2.2018    6.7679 H   0  0  0  0  0  0  0  0  0  0  0  0
    2.6907   -1.0809    5.0919 H   0  0  0  0  0  0  0  0  0  0  0  0
    5.5678   -0.1257    5.4652 H   0  0  0  0  0  0  0  0  0  0  0  0
    4.1645    0.3601    6.4035 H   0  0  0  0  0  0  0  0  0  0  0  0
    4.2753    0.8030    4.7070 H   0  0  0  0  0  0  0  0  0  0  0  0
    5.9478   -2.0775    3.9542 H   0  0  0  0  0  0  0  0  0  0  0  0
    2.1125   -1.4467    2.8533 H   0  0  0  0  0  0  0  0  0  0  0  0
    2.6792    0.3219    1.6719 H   0  0  0  0  0  0  0  0  0  0  0  0
    2.1952   -2.6278    1.0873 H   0  0  0  0  0  0  0  0  0  0  0  0
    5.1408   -3.0983    1.2287 H   0  0  0  0  0  0  0  0  0  0  0  0
    4.6325   -5.2371    0.0071 H   0  0  0  0  0  0  0  0  0  0  0  0
    2.6563   -5.1989   -1.1534 H   0  0  0  0  0  0  0  0  0  0  0  0
    5.5626   -3.2826   -1.0056 H   0  0  0  0  0  0  0  0  0  0  0  0
    3.9716   -4.7896   -2.5196 H   0  0  0  0  0  0  0  0  0  0  0  0
    1.9658   -1.8007   -1.8998 H   0  0  0  0  0  0  0  0  0  0  0  0
    5.6717   -1.3187   -2.1705 H   0  0  0  0  0  0  0  0  0  0  0  0
    3.3170    0.1779   -2.4389 H   0  0  0  0  0  0  0  0  0  0  0  0
    5.6483   -1.1271    0.1897 H   0  0  0  0  0  0  0  0  0  0  0  0
    4.6949    0.3791    0.0293 H   0  0  0  0  0  0  0  0  0  0  0  0
    2.6831   -0.7111   -0.2521 H   0  0  0  0  0  0  0  0  0  0  0  0
    3.0042   -6.1323    3.3239 H   0  0  0  0  0  0  0  0  0  0  0  0
    3.2502   -6.1416    1.6258 H   0  0  0  0  0  0  0  0  0  0  0  0
    2.0386   -5.0493    2.3062 H   0  0  0  0  0  0  0  0  0  0  0  0
    5.4971   -5.6800    3.6358 H   0  0  0  0  0  0  0  0  0  0  0  0
    6.2601   -4.2801    2.8970 H   0  0  0  0  0  0  0  0  0  0  0  0
    5.7455   -5.6227    1.9101 H   0  0  0  0  0  0  0  0  0  0  0  0
    2.6855   -3.4265    3.9448 H   0  0  0  0  0  0  0  0  0  0  0  0
  1  2  2  0
  1 27  1  0
  1 28  1  0
  2  3  1  0
  2 29  1  0
  3 26  1  0
  3  4  1  0
  3 30  1  6
  4  5  1  0
  4 31  1  0
  4 32  1  0
  5  6  1  0
  5  7  1  0
  5 33  1  6
  6 34  1  0
  6 35  1  0
  6 36  1  0
  7 26  1  0
  7  8  1  6
  7  9  1  0
  8 37  1  0
  9 10  1  0
  9 11  1  0
  9 38  1  1
 10 39  1  0
 11 22  1  0
 11 12  1  0
 11 40  1  6
 12 13  1  0
 12 23  1  0
 12 41  1  6
 13 14  1  0
 13 15  1  0
 13 42  1  1
 14 43  1  0
 15 16  1  0
 15 17  1  0
 15 44  1  1
 16 45  1  0
 17 22  1  0
 17 18  1  6
 17 19  1  0
 18 46  1  0
 19 20  1  0
 19 21  1  0
 19 47  1  6
 20 48  1  0
 21 22  1  0
 21 49  1  0
 21 50  1  0
 22 51  1  6
 23 24  1  0
 23 25  1  0
 23 26  1  0
 24 52  1  0
 24 53  1  0
 24 54  1  0
 25 55  1  0
 25 56  1  0
 25 57  1  0
 26 58  1  1
M  END
>  <i_m_ct_stereo_status>  (96) 
1

>  <s_m_source_file>  (96) 
/var/tmp/pbs.5076255.sched01/tmp7me73ahx/0ll6f151o.sdf

>  <i_m_source_file_index>  (96) 
40

>  <i_lp_mmshare_version>  (96) 
48012

>  <i_f3d_flags>  (96) 
0

>  <s_epik_input>  (96) 
W0NIM11bQ0BASF0xW0NIMl1bQ0BASF0oW0NIXT1bQ0gyXSlbQ0BASF0oW0NAXTEyW09IXSlDKFtDSDNdKShbQ0gzXSlbQ0BASF0zW0NAQEhdKFtDQEBIXTJbT0hdKVtDQEBIXTRbQ0BAXShbT0hdKShbQ0BASF0oW09IXSlbQ0gyXTQpW0NASF0oW09IXSlbQ0BASF0zW09IXQ==

>  <s_epik_cmdline>  (96) 
J2VwaWtfcHl0aG9uJywgJy1waHQnLCAnMi4wJywgJy1waCcsICc3LjAnLCAnLXRuJywgJzgnLCAnLW1hJywgJzIwMCcsICctaW1hZScsICc8aW5maWxlLm1hZT4nLCAnLW9tYWUnLCAnPG91dGZpbGUubWFlPic=

>  <r_lp_tautomer_probability>  (96) 
1

>  <r_epik_Ionization_Penalty>  (96) 
1.82011e-06

>  <r_epik_Ionization_Penalty_Charging>  (96) 
0

>  <r_epik_Ionization_Penalty_Neutral>  (96) 
1.82011e-06

>  <r_epik_State_Penalty>  (96) 
-0

>  <r_epik_Charging_Adjusted_Penalty>  (96) 
0

>  <i_epik_Tot_Q>  (96) 
0

>  <i_epik_Tot_abs_Q>  (96) 
0

>  <s_lp_Force_Field>  (96) 
OPLS3e

>  <r_lp_Energy>  (96) 
52.3401

>  <b_lp_Chiralities_Consistent>  (96) 
1

>  <s_lp_Variant>  (96) 
31:0-1

>  <s_i_glide_gridfile>  (96) 
pfpi4k_grid

>  <i_i_glide_lignum>  (96) 
40

>  <i_i_glide_rotatable_bonds>  (96) 
7

>  <r_i_docking_score>  (96) 
-3.41026

>  <r_i_glide_ligand_efficiency>  (96) 
-0.131164

>  <r_i_glide_ligand_efficiency_sa>  (96) 
-0.388573

>  <r_i_glide_ligand_efficiency_ln>  (96) 
-0.800889

>  <r_i_glide_gscore>  (96) 
-3.41026

>  <r_i_glide_lipo>  (96) 
-0.0408293

>  <r_i_glide_hbond>  (96) 
0

>  <r_i_glide_metal>  (96) 
-0

>  <r_i_glide_rewards>  (96) 
-0.896833

>  <r_i_glide_evdw>  (96) 
-15.5514

>  <r_i_glide_ecoul>  (96) 
-12.2464

>  <r_i_glide_erotb>  (96) 
0.141936

>  <r_i_glide_esite>  (96) 
0

>  <r_i_glide_emodel>  (96) 
-29.6579

>  <r_i_glide_energy>  (96) 
-27.7978

>  <r_i_glide_einternal>  (96) 
4.75127

>  <r_i_glide_intrahb_reward>  (96) 
-0

>  <i_i_glide_confnum>  (96) 
6

>  <i_i_glide_posenum>  (96) 
13

>  <r_i_glide_eff_state_penalty>  (96) 
0

>  <ligand_id>  (96) 
31

>  <original_smiles>  (96) 
C=CC1CC(C)C2(O)C(O)C3C(C(O)C(O)C4(O)C(O)CC34)C(C)(C)C12

>  <smiles>  (96) 
[H]OC1([H])C([H])(O[H])C2(O[H])C([H])(O[H])C([H])([H])C2([H])C2([H])C([H])(O[H])C3(O[H])C([H])(C([H])([H])[H])C([H])([H])C([H])(C([H])=C([H])[H])C3([H])C(C([H])([H])[H])(C([H])([H])[H])C12[H]

$$$$
31:0:1
     RDKit          3D

 58 61  0  0  1  0  0  0  0  0999 V2000
    2.9468   -5.6663    5.6261 C   0  0  0  0  0  0  0  0  0  0  0  0
    4.0168   -4.9186    5.9592 C   0  0  0  0  0  0  0  0  0  0  0  0
    4.4608   -3.6426    5.2315 C   0  0  2  0  0  0  0  0  0  0  0  0
    4.0988   -2.3785    6.0314 C   0  0  0  0  0  0  0  0  0  0  0  0
    3.8158   -1.2629    5.0095 C   0  0  1  0  0  0  0  0  0  0  0  0
    4.5139    0.0623    5.3738 C   0  0  0  0  0  0  0  0  0  0  0  0
    4.1050   -1.8631    3.6060 C   0  0  2  0  0  0  0  0  0  0  0  0
    5.4466   -1.5991    3.2657 O   0  0  0  0  0  0  0  0  0  0  0  0
    3.1891   -1.3741    2.4562 C   0  0  1  0  0  0  0  0  0  0  0  0
    3.3304    0.0169    2.2420 O   0  0  0  0  0  0  0  0  0  0  0  0
    3.2724   -2.2566    1.1671 C   0  0  2  0  0  0  0  0  0  0  0  0
    4.2300   -3.4960    1.2390 C   0  0  2  0  0  0  0  0  0  0  0  0
    4.1332   -4.3429   -0.0710 C   0  0  1  0  0  0  0  0  0  0  0  0
    2.8016   -4.7707   -0.2507 O   0  0  0  0  0  0  0  0  0  0  0  0
    4.6148   -3.5194   -1.2751 C   0  0  1  0  0  0  0  0  0  0  0  0
    4.7685   -4.2594   -2.4518 O   0  0  0  0  0  0  0  0  0  0  0  0
    3.8463   -2.1907   -1.4485 C   0  0  2  0  0  0  0  0  0  0  0  0
    2.7256   -2.4067   -2.2761 O   0  0  0  0  0  0  0  0  0  0  0  0
    4.7314   -1.0047   -1.8261 C   0  0  1  0  0  0  0  0  0  0  0  0
    4.2267   -0.0560   -2.7420 O   0  0  0  0  0  0  0  0  0  0  0  0
    4.8168   -0.6319   -0.3349 C   0  0  0  0  0  0  0  0  0  0  0  0
    3.5346   -1.4519   -0.1277 C   0  0  2  0  0  0  0  0  0  0  0  0
    4.2115   -4.3224    2.5803 C   0  0  0  0  0  0  0  0  0  0  0  0
    3.1871   -5.4994    2.4571 C   0  0  0  0  0  0  0  0  0  0  0  0
    5.6078   -4.9725    2.7606 C   0  0  0  0  0  0  0  0  0  0  0  0
    3.8699   -3.3777    3.8125 C   0  0  1  0  0  0  0  0  0  0  0  0
    2.2647   -5.3535    4.8553 H   0  0  0  0  0  0  0  0  0  0  0  0
    2.7542   -6.6186    6.1191 H   0  0  0  0  0  0  0  0  0  0  0  0
    4.6503   -5.2291    6.7842 H   0  0  0  0  0  0  0  0  0  0  0  0
    5.5475   -3.6697    5.1441 H   0  0  0  0  0  0  0  0  0  0  0  0
    3.2055   -2.5666    6.6188 H   0  0  0  0  0  0  0  0  0  0  0  0
    4.8883   -2.1291    6.7370 H   0  0  0  0  0  0  0  0  0  0  0  0
    2.7441   -1.0745    5.0627 H   0  0  0  0  0  0  0  0  0  0  0  0
    5.5991   -0.0485    5.4132 H   0  0  0  0  0  0  0  0  0  0  0  0
    4.1887    0.4133    6.3539 H   0  0  0  0  0  0  0  0  0  0  0  0
    4.2811    0.8450    4.6536 H   0  0  0  0  0  0  0  0  0  0  0  0
    5.6411   -2.0473    2.4567 H   0  0  0  0  0  0  0  0  0  0  0  0
    2.1655   -1.4724    2.8280 H   0  0  0  0  0  0  0  0  0  0  0  0
    4.1644    0.1755    1.8133 H   0  0  0  0  0  0  0  0  0  0  0  0
    2.2682   -2.6708    1.0733 H   0  0  0  0  0  0  0  0  0  0  0  0
    5.2350   -3.0741    1.1970 H   0  0  0  0  0  0  0  0  0  0  0  0
    4.7692   -5.2304    0.0077 H   0  0  0  0  0  0  0  0  0  0  0  0
    2.7785   -5.2122   -1.1297 H   0  0  0  0  0  0  0  0  0  0  0  0
    5.6408   -3.2653   -1.0342 H   0  0  0  0  0  0  0  0  0  0  0  0
    4.0069   -4.8629   -2.5358 H   0  0  0  0  0  0  0  0  0  0  0  0
    2.0140   -1.8766   -1.9251 H   0  0  0  0  0  0  0  0  0  0  0  0
    5.6980   -1.3027   -2.2130 H   0  0  0  0  0  0  0  0  0  0  0  0
    3.3298    0.1701   -2.4380 H   0  0  0  0  0  0  0  0  0  0  0  0
    5.6939   -1.1005    0.1466 H   0  0  0  0  0  0  0  0  0  0  0  0
    4.6847    0.3680   -0.0302 H   0  0  0  0  0  0  0  0  0  0  0  0
    2.7117   -0.7579   -0.2813 H   0  0  0  0  0  0  0  0  0  0  0  0
    3.2079   -6.1742    3.2945 H   0  0  0  0  0  0  0  0  0  0  0  0
    3.4204   -6.1490    1.6110 H   0  0  0  0  0  0  0  0  0  0  0  0
    2.1753   -5.0844    2.3153 H   0  0  0  0  0  0  0  0  0  0  0  0
    5.6617   -5.6184    3.6349 H   0  0  0  0  0  0  0  0  0  0  0  0
    6.3938   -4.2252    2.8649 H   0  0  0  0  0  0  0  0  0  0  0  0
    5.8971   -5.5778    1.9045 H   0  0  0  0  0  0  0  0  0  0  0  0
    2.7959   -3.4364    3.9394 H   0  0  0  0  0  0  0  0  0  0  0  0
  1  2  2  0
  1 27  1  0
  1 28  1  0
  2  3  1  0
  2 29  1  0
  3 26  1  0
  3  4  1  0
  3 30  1  6
  4  5  1  0
  4 31  1  0
  4 32  1  0
  5  6  1  0
  5  7  1  0
  5 33  1  6
  6 34  1  0
  6 35  1  0
  6 36  1  0
  7 26  1  0
  7  8  1  6
  7  9  1  0
  8 37  1  0
  9 10  1  0
  9 11  1  0
  9 38  1  1
 10 39  1  0
 11 22  1  0
 11 12  1  0
 11 40  1  6
 12 13  1  0
 12 23  1  0
 12 41  1  6
 13 14  1  0
 13 15  1  0
 13 42  1  1
 14 43  1  0
 15 16  1  0
 15 17  1  0
 15 44  1  1
 16 45  1  0
 17 22  1  0
 17 18  1  6
 17 19  1  0
 18 46  1  0
 19 20  1  0
 19 21  1  0
 19 47  1  6
 20 48  1  0
 21 22  1  0
 21 49  1  0
 21 50  1  0
 22 51  1  6
 23 24  1  0
 23 25  1  0
 23 26  1  0
 24 52  1  0
 24 53  1  0
 24 54  1  0
 25 55  1  0
 25 56  1  0
 25 57  1  0
 26 58  1  1
M  END
>  <i_m_ct_stereo_status>  (97) 
1

>  <s_m_source_file>  (97) 
/var/tmp/pbs.5076255.sched01/tmp7me73ahx/0ll6f151o.sdf

>  <i_m_source_file_index>  (97) 
40

>  <i_lp_mmshare_version>  (97) 
48012

>  <i_f3d_flags>  (97) 
0

>  <s_epik_input>  (97) 
W0NIM11bQ0BASF0xW0NIMl1bQ0BASF0oW0NIXT1bQ0gyXSlbQ0BASF0oW0NAXTEyW09IXSlDKFtDSDNdKShbQ0gzXSlbQ0BASF0zW0NAQEhdKFtDQEBIXTJbT0hdKVtDQEBIXTRbQ0BAXShbT0hdKShbQ0BASF0oW09IXSlbQ0gyXTQpW0NASF0oW09IXSlbQ0BASF0zW09IXQ==

>  <s_epik_cmdline>  (97) 
J2VwaWtfcHl0aG9uJywgJy1waHQnLCAnMi4wJywgJy1waCcsICc3LjAnLCAnLXRuJywgJzgnLCAnLW1hJywgJzIwMCcsICctaW1hZScsICc8aW5maWxlLm1hZT4nLCAnLW9tYWUnLCAnPG91dGZpbGUubWFlPic=

>  <r_lp_tautomer_probability>  (97) 
1

>  <r_epik_Ionization_Penalty>  (97) 
1.82011e-06

>  <r_epik_Ionization_Penalty_Charging>  (97) 
0

>  <r_epik_Ionization_Penalty_Neutral>  (97) 
1.82011e-06

>  <r_epik_State_Penalty>  (97) 
-0

>  <r_epik_Charging_Adjusted_Penalty>  (97) 
0

>  <i_epik_Tot_Q>  (97) 
0

>  <i_epik_Tot_abs_Q>  (97) 
0

>  <s_lp_Force_Field>  (97) 
OPLS3e

>  <r_lp_Energy>  (97) 
52.3401

>  <b_lp_Chiralities_Consistent>  (97) 
1

>  <s_lp_Variant>  (97) 
31:0-1

>  <s_i_glide_gridfile>  (97) 
pfpi4k_grid

>  <i_i_glide_lignum>  (97) 
40

>  <i_i_glide_rotatable_bonds>  (97) 
7

>  <r_i_docking_score>  (97) 
-3.37234

>  <r_i_glide_ligand_efficiency>  (97) 
-0.129705

>  <r_i_glide_ligand_efficiency_sa>  (97) 
-0.384252

>  <r_i_glide_ligand_efficiency_ln>  (97) 
-0.791984

>  <r_i_glide_gscore>  (97) 
-3.37234

>  <r_i_glide_lipo>  (97) 
-0.0536762

>  <r_i_glide_hbond>  (97) 
0

>  <r_i_glide_metal>  (97) 
-0

>  <r_i_glide_rewards>  (97) 
-0.896833

>  <r_i_glide_evdw>  (97) 
-14.6831

>  <r_i_glide_ecoul>  (97) 
-12.1974

>  <r_i_glide_erotb>  (97) 
0.141936

>  <r_i_glide_esite>  (97) 
0

>  <r_i_glide_emodel>  (97) 
-29.4997

>  <r_i_glide_energy>  (97) 
-26.8805

>  <r_i_glide_einternal>  (97) 
4.44573

>  <r_i_glide_intrahb_reward>  (97) 
-0

>  <i_i_glide_confnum>  (97) 
6

>  <i_i_glide_posenum>  (97) 
7

>  <r_i_glide_eff_state_penalty>  (97) 
0

>  <ligand_id>  (97) 
31

>  <original_smiles>  (97) 
C=CC1CC(C)C2(O)C(O)C3C(C(O)C(O)C4(O)C(O)CC34)C(C)(C)C12

>  <smiles>  (97) 
[H]OC1([H])C([H])(O[H])C2(O[H])C([H])(O[H])C([H])([H])C2([H])C2([H])C([H])(O[H])C3(O[H])C([H])(C([H])([H])[H])C([H])([H])C([H])(C([H])=C([H])[H])C3([H])C(C([H])([H])[H])(C([H])([H])[H])C12[H]

$$$$
31:0:2
     RDKit          3D

 58 61  0  0  1  0  0  0  0  0999 V2000
    1.8013   -5.3750    6.0562 C   0  0  0  0  0  0  0  0  0  0  0  0
    2.8585   -4.6329    6.4540 C   0  0  0  0  0  0  0  0  0  0  0  0
    3.4244   -3.4242    5.7385 C   0  0  2  0  0  0  0  0  0  0  0  0
    2.9670   -2.0951    6.3661 C   0  0  0  0  0  0  0  0  0  0  0  0
    2.8812   -1.0540    5.2338 C   0  0  1  0  0  0  0  0  0  0  0  0
    3.5316    0.2908    5.6102 C   0  0  0  0  0  0  0  0  0  0  0  0
    3.4093   -1.7675    3.9551 C   0  0  2  0  0  0  0  0  0  0  0  0
    4.8200   -1.5804    3.8741 O   0  0  0  0  0  0  0  0  0  0  0  0
    2.7052   -1.3634    2.6362 C   0  0  1  0  0  0  0  0  0  0  0  0
    2.9274    0.0048    2.3249 O   0  0  0  0  0  0  0  0  0  0  0  0
    2.9929   -2.3331    1.4350 C   0  0  2  0  0  0  0  0  0  0  0  0
    3.8896   -3.5745    1.7729 C   0  0  2  0  0  0  0  0  0  0  0  0
    3.9980   -4.5149    0.5242 C   0  0  1  0  0  0  0  0  0  0  0  0
    2.7249   -4.9511    0.0337 O   0  0  0  0  0  0  0  0  0  0  0  0
    4.6859   -3.7754   -0.6205 C   0  0  1  0  0  0  0  0  0  0  0  0
    4.9404   -4.6290   -1.6922 O   0  0  0  0  0  0  0  0  0  0  0  0
    4.0061   -2.4625   -1.0224 C   0  0  2  0  0  0  0  0  0  0  0  0
    3.0182   -2.7430   -2.0085 O   0  0  0  0  0  0  0  0  0  0  0  0
    4.9526   -1.2963   -1.3425 C   0  0  1  0  0  0  0  0  0  0  0  0
    4.5782   -0.3996   -2.3659 O   0  0  0  0  0  0  0  0  0  0  0  0
    4.8022   -0.8385    0.1104 C   0  0  0  0  0  0  0  0  0  0  0  0
    3.4758   -1.6151    0.1531 C   0  0  2  0  0  0  0  0  0  0  0  0
    3.6328   -4.2942    3.1411 C   0  0  0  0  0  0  0  0  0  0  0  0
    2.6282   -5.4881    2.9486 C   0  0  0  0  0  0  0  0  0  0  0  0
    4.9716   -4.9167    3.6113 C   0  0  0  0  0  0  0  0  0  0  0  0
    3.0990   -3.2608    4.2249 C   0  0  1  0  0  0  0  0  0  0  0  0
    1.2341   -5.0895    5.1667 H   0  0  0  0  0  0  0  0  0  0  0  0
    1.5011   -6.2470    6.5964 H   0  0  0  0  0  0  0  0  0  0  0  0
    3.3783   -4.9131    7.3752 H   0  0  0  0  0  0  0  0  0  0  0  0
    4.5084   -3.4613    5.8432 H   0  0  0  0  0  0  0  0  0  0  0  0
    1.9816   -2.2259    6.8094 H   0  0  0  0  0  0  0  0  0  0  0  0
    3.6325   -1.7913    7.1735 H   0  0  0  0  0  0  0  0  0  0  0  0
    1.8200   -0.8603    5.0801 H   0  0  0  0  0  0  0  0  0  0  0  0
    4.5912    0.1772    5.8421 H   0  0  0  0  0  0  0  0  0  0  0  0
    3.0500    0.7138    6.4917 H   0  0  0  0  0  0  0  0  0  0  0  0
    3.4375    1.0166    4.8036 H   0  0  0  0  0  0  0  0  0  0  0  0
    5.1141   -2.0107    3.0987 H   0  0  0  0  0  0  0  0  0  0  0  0
    1.6257   -1.4298    2.8225 H   0  0  0  0  0  0  0  0  0  0  0  0
    2.3877    0.2371    1.5937 H   0  0  0  0  0  0  0  0  0  0  0  0
    2.0093   -2.7499    1.2074 H   0  0  0  0  0  0  0  0  0  0  0  0
    4.8960   -3.1548    1.8554 H   0  0  0  0  0  0  0  0  0  0  0  0
    4.6093   -5.3860    0.7676 H   0  0  0  0  0  0  0  0  0  0  0  0
    2.8484   -5.4036   -0.7755 H   0  0  0  0  0  0  0  0  0  0  0  0
    5.6814   -3.5239   -0.2397 H   0  0  0  0  0  0  0  0  0  0  0  0
    4.1347   -4.9859   -2.0693 H   0  0  0  0  0  0  0  0  0  0  0  0
    2.3269   -2.1227   -1.8746 H   0  0  0  0  0  0  0  0  0  0  0  0
    5.9664   -1.6438   -1.5414 H   0  0  0  0  0  0  0  0  0  0  0  0
    3.6830   -0.1477   -2.2127 H   0  0  0  0  0  0  0  0  0  0  0  0
    5.5689   -1.2532    0.7627 H   0  0  0  0  0  0  0  0  0  0  0  0
    4.6821    0.2347    0.2513 H   0  0  0  0  0  0  0  0  0  0  0  0
    2.7150   -0.9325   -0.2068 H   0  0  0  0  0  0  0  0  0  0  0  0
    2.4825   -6.0565    3.8246 H   0  0  0  0  0  0  0  0  0  0  0  0
    2.9939   -6.1592    2.1600 H   0  0  0  0  0  0  0  0  0  0  0  0
    1.6685   -5.0767    2.5898 H   0  0  0  0  0  0  0  0  0  0  0  0
    4.8433   -5.5025    4.5164 H   0  0  0  0  0  0  0  0  0  0  0  0
    5.7389   -4.1661    3.8211 H   0  0  0  0  0  0  0  0  0  0  0  0
    5.3892   -5.5911    2.8651 H   0  0  0  0  0  0  0  0  0  0  0  0
    2.0168   -3.2914    4.1487 H   0  0  0  0  0  0  0  0  0  0  0  0
  1  2  2  0
  1 27  1  0
  1 28  1  0
  2  3  1  0
  2 29  1  0
  3 26  1  0
  3  4  1  0
  3 30  1  6
  4  5  1  0
  4 31  1  0
  4 32  1  0
  5  6  1  0
  5  7  1  0
  5 33  1  6
  6 34  1  0
  6 35  1  0
  6 36  1  0
  7 26  1  0
  7  8  1  6
  7  9  1  0
  8 37  1  0
  9 10  1  0
  9 11  1  0
  9 38  1  1
 10 39  1  0
 11 22  1  0
 11 12  1  0
 11 40  1  6
 12 13  1  0
 12 23  1  0
 12 41  1  1
 13 14  1  0
 13 15  1  0
 13 42  1  1
 14 43  1  0
 15 16  1  0
 15 17  1  0
 15 44  1  1
 16 45  1  0
 17 22  1  0
 17 18  1  6
 17 19  1  0
 18 46  1  0
 19 20  1  0
 19 21  1  0
 19 47  1  6
 20 48  1  0
 21 22  1  0
 21 49  1  0
 21 50  1  0
 22 51  1  6
 23 24  1  0
 23 25  1  0
 23 26  1  0
 24 52  1  0
 24 53  1  0
 24 54  1  0
 25 55  1  0
 25 56  1  0
 25 57  1  0
 26 58  1  1
M  END
>  <i_m_ct_stereo_status>  (98) 
1

>  <s_m_source_file>  (98) 
/var/tmp/pbs.5076255.sched01/tmp7me73ahx/0ll6f151o.sdf

>  <i_m_source_file_index>  (98) 
40

>  <i_lp_mmshare_version>  (98) 
48012

>  <i_f3d_flags>  (98) 
0

>  <s_epik_input>  (98) 
W0NIM11bQ0BASF0xW0NIMl1bQ0BASF0oW0NIXT1bQ0gyXSlbQ0BASF0oW0NAXTEyW09IXSlDKFtDSDNdKShbQ0gzXSlbQ0BASF0zW0NAQEhdKFtDQEBIXTJbT0hdKVtDQEBIXTRbQ0BAXShbT0hdKShbQ0BASF0oW09IXSlbQ0gyXTQpW0NASF0oW09IXSlbQ0BASF0zW09IXQ==

>  <s_epik_cmdline>  (98) 
J2VwaWtfcHl0aG9uJywgJy1waHQnLCAnMi4wJywgJy1waCcsICc3LjAnLCAnLXRuJywgJzgnLCAnLW1hJywgJzIwMCcsICctaW1hZScsICc8aW5maWxlLm1hZT4nLCAnLW9tYWUnLCAnPG91dGZpbGUubWFlPic=

>  <r_lp_tautomer_probability>  (98) 
1

>  <r_epik_Ionization_Penalty>  (98) 
1.82011e-06

>  <r_epik_Ionization_Penalty_Charging>  (98) 
0

>  <r_epik_Ionization_Penalty_Neutral>  (98) 
1.82011e-06

>  <r_epik_State_Penalty>  (98) 
-0

>  <r_epik_Charging_Adjusted_Penalty>  (98) 
0

>  <i_epik_Tot_Q>  (98) 
0

>  <i_epik_Tot_abs_Q>  (98) 
0

>  <s_lp_Force_Field>  (98) 
OPLS3e

>  <r_lp_Energy>  (98) 
52.3401

>  <b_lp_Chiralities_Consistent>  (98) 
1

>  <s_lp_Variant>  (98) 
31:0-1

>  <s_i_glide_gridfile>  (98) 
pfpi4k_grid

>  <i_i_glide_lignum>  (98) 
40

>  <i_i_glide_rotatable_bonds>  (98) 
7

>  <r_i_docking_score>  (98) 
-3.14721

>  <r_i_glide_ligand_efficiency>  (98) 
-0.121047

>  <r_i_glide_ligand_efficiency_sa>  (98) 
-0.3586

>  <r_i_glide_ligand_efficiency_ln>  (98) 
-0.739113

>  <r_i_glide_gscore>  (98) 
-3.14721

>  <r_i_glide_lipo>  (98) 
-0.096737

>  <r_i_glide_hbond>  (98) 
0

>  <r_i_glide_metal>  (98) 
-0

>  <r_i_glide_rewards>  (98) 
-0.896833

>  <r_i_glide_evdw>  (98) 
-17.6643

>  <r_i_glide_ecoul>  (98) 
-9.41576

>  <r_i_glide_erotb>  (98) 
0.141936

>  <r_i_glide_esite>  (98) 
0

>  <r_i_glide_emodel>  (98) 
-30.1273

>  <r_i_glide_energy>  (98) 
-27.0801

>  <r_i_glide_einternal>  (98) 
3.99557

>  <r_i_glide_intrahb_reward>  (98) 
-0

>  <i_i_glide_confnum>  (98) 
3

>  <i_i_glide_posenum>  (98) 
24

>  <r_i_glide_eff_state_penalty>  (98) 
0

>  <ligand_id>  (98) 
31

>  <original_smiles>  (98) 
C=CC1CC(C)C2(O)C(O)C3C(C(O)C(O)C4(O)C(O)CC34)C(C)(C)C12

>  <smiles>  (98) 
[H]OC1([H])C([H])(O[H])C2(O[H])C([H])(O[H])C([H])([H])C2([H])C2([H])C([H])(O[H])C3(O[H])C([H])(C([H])([H])[H])C([H])([H])C([H])(C([H])=C([H])[H])C3([H])C(C([H])([H])[H])(C([H])([H])[H])C12[H]

$$$$
32:0:0
     RDKit          3D

102109  0  0  1  0  0  0  0  0999 V2000
    0.8475  -11.4981    4.6696 C   0  0  0  0  0  0  0  0  0  0  0  0
    1.7561  -10.2865    4.8851 C   0  0  2  0  0  0  0  0  0  0  0  0
    1.0176   -9.1935    5.6870 C   0  0  0  0  0  0  0  0  0  0  0  0
    1.9031   -7.9758    6.0138 C   0  0  0  0  0  0  0  0  0  0  0  0
    3.2580   -8.0117    5.2735 C   0  0  2  0  0  0  0  0  0  0  0  0
    4.3109   -6.9450    5.6536 C   0  0  1  0  0  0  0  0  0  0  0  0
    4.2194   -6.4585    7.1107 C   0  0  0  0  0  0  0  0  0  0  0  0
    5.7488   -7.4100    5.2289 C   0  0  1  0  0  0  0  0  0  0  0  0
    6.7209   -7.7194    6.3872 C   0  0  0  0  0  0  0  0  0  0  0  0
    5.7686   -8.5370    4.1454 C   0  0  1  0  0  0  0  0  0  0  0  0
    5.8815   -9.9995    4.6403 C   0  0  0  0  0  0  0  0  0  0  0  0
    4.6244   -8.3305    3.1185 C   0  0  2  0  0  0  0  0  0  0  0  0
    4.9760   -7.1185    2.1765 C   0  0  1  0  0  0  0  0  0  0  0  0
    4.9723   -7.5663    0.7069 C   0  0  0  0  0  0  0  0  0  0  0  0
    4.1579   -5.8012    2.4270 C   0  0  1  0  0  0  0  0  0  0  0  0
    4.0516   -5.0743    1.2314 O   0  0  0  0  0  0  0  0  0  0  0  0
    4.8895   -3.9136    1.0999 C   0  0  2  0  0  0  0  0  0  0  0  0
    4.0631   -2.6332    1.3882 C   0  0  1  0  0  0  0  0  0  0  0  0
    3.9384   -2.0943    2.6870 O   0  0  0  0  0  0  0  0  0  0  0  0
    3.5566   -0.7486    2.4507 C   0  0  0  0  0  0  0  0  0  0  0  0
    2.0391   -0.5909    2.6232 C   0  0  0  0  0  0  0  0  0  0  0  0
    4.3498    0.1483    3.4053 C   0  0  0  0  0  0  0  0  0  0  0  0
    3.8758   -0.3957    1.1294 O   0  0  0  0  0  0  0  0  0  0  0  0
    4.7234   -1.4318    0.7197 C   0  0  2  0  0  0  0  0  0  0  0  0
    5.0204   -1.6351   -0.7932 C   0  0  1  0  0  0  0  0  0  0  0  0
    6.4299   -1.8021   -0.8467 O   0  0  0  0  0  0  0  0  0  0  0  0
    6.7788   -3.1615   -0.5621 C   0  0  1  0  0  0  0  0  0  0  0  0
    7.7976   -3.2153    0.5790 C   0  0  0  0  0  0  0  0  0  0  0  0
    5.4199   -3.8843   -0.3939 C   0  0  2  0  0  0  0  0  0  0  0  0
    4.5860   -2.9938   -1.3558 C   0  0  0  0  0  0  0  0  0  0  0  0
    3.0418   -3.1803   -1.4179 C   0  0  0  0  0  0  0  0  0  0  0  0
    2.6128   -2.7070   -2.8211 C   0  0  0  0  0  0  0  0  0  0  0  0
    3.8805   -2.5375   -3.6436 C   0  0  0  0  0  0  0  0  0  0  0  0
    4.9756   -3.2022   -2.8346 C   0  0  0  0  0  0  0  0  0  0  0  0
    2.8953   -6.0083    2.9906 O   0  0  0  0  0  0  0  0  0  0  0  0
    2.3777   -7.3099    2.8401 C   0  0  2  0  0  0  0  0  0  0  0  0
    0.8537   -7.3722    2.9137 C   0  0  1  0  0  0  0  0  0  0  0  0
    0.1989   -6.2821    2.0930 C   0  0  0  0  0  0  0  0  0  0  0  0
    0.3614   -8.7529    2.4325 C   0  0  0  0  0  0  0  0  0  0  0  0
    1.4907   -9.8065    2.3620 C   0  0  0  0  0  0  0  0  0  0  0  0
    2.4424   -9.7591    3.5807 C   0  0  1  0  0  0  0  0  0  0  0  0
    3.1654   -8.3458    3.7279 C   0  0  2  0  0  0  0  0  0  0  0  0
   -0.0473  -11.2586    4.0912 H   0  0  0  0  0  0  0  0  0  0  0  0
    0.5116  -11.8538    5.6342 H   0  0  0  0  0  0  0  0  0  0  0  0
    1.3921  -12.2946    4.1620 H   0  0  0  0  0  0  0  0  0  0  0  0
    2.5496  -10.6649    5.5385 H   0  0  0  0  0  0  0  0  0  0  0  0
    0.1074   -8.8986    5.1741 H   0  0  0  0  0  0  0  0  0  0  0  0
    0.6593   -9.6265    6.6218 H   0  0  0  0  0  0  0  0  0  0  0  0
    1.3874   -7.0353    5.8406 H   0  0  0  0  0  0  0  0  0  0  0  0
    2.0947   -8.0088    7.0811 H   0  0  0  0  0  0  0  0  0  0  0  0
    3.7003   -8.8737    5.7556 H   0  0  0  0  0  0  0  0  0  0  0  0
    4.0644   -6.0568    5.0808 H   0  0  0  0  0  0  0  0  0  0  0  0
    4.3637   -7.2792    7.8153 H   0  0  0  0  0  0  0  0  0  0  0  0
    3.2494   -6.0049    7.3143 H   0  0  0  0  0  0  0  0  0  0  0  0
    4.9674   -5.6941    7.3122 H   0  0  0  0  0  0  0  0  0  0  0  0
    6.1825   -6.5338    4.7453 H   0  0  0  0  0  0  0  0  0  0  0  0
    6.3450   -8.5174    7.0289 H   0  0  0  0  0  0  0  0  0  0  0  0
    6.9024   -6.8386    7.0024 H   0  0  0  0  0  0  0  0  0  0  0  0
    7.6893   -8.0282    5.9934 H   0  0  0  0  0  0  0  0  0  0  0  0
    6.7083   -8.4089    3.6064 H   0  0  0  0  0  0  0  0  0  0  0  0
    5.0601  -10.3392    5.2637 H   0  0  0  0  0  0  0  0  0  0  0  0
    6.8012  -10.1475    5.2061 H   0  0  0  0  0  0  0  0  0  0  0  0
    5.9311  -10.6781    3.7899 H   0  0  0  0  0  0  0  0  0  0  0  0
    4.6757   -9.2038    2.4732 H   0  0  0  0  0  0  0  0  0  0  0  0
    6.0084   -6.8235    2.3421 H   0  0  0  0  0  0  0  0  0  0  0  0
    3.9817   -7.8131    0.3310 H   0  0  0  0  0  0  0  0  0  0  0  0
    5.5847   -8.4600    0.5766 H   0  0  0  0  0  0  0  0  0  0  0  0
    5.3895   -6.7680    0.0915 H   0  0  0  0  0  0  0  0  0  0  0  0
    4.6361   -5.1842    3.1827 H   0  0  0  0  0  0  0  0  0  0  0  0
    5.7155   -4.0052    1.8054 H   0  0  0  0  0  0  0  0  0  0  0  0
    3.0516   -2.8159    1.0851 H   0  0  0  0  0  0  0  0  0  0  0  0
    1.4985   -1.1882    1.8913 H   0  0  0  0  0  0  0  0  0  0  0  0
    1.7730    0.4535    2.4556 H   0  0  0  0  0  0  0  0  0  0  0  0
    1.7384   -0.8762    3.6279 H   0  0  0  0  0  0  0  0  0  0  0  0
    5.4201    0.0148    3.2478 H   0  0  0  0  0  0  0  0  0  0  0  0
    4.1045   -0.1161    4.4290 H   0  0  0  0  0  0  0  0  0  0  0  0
    4.0905    1.1995    3.2354 H   0  0  0  0  0  0  0  0  0  0  0  0
    5.6628   -1.2233    1.2362 H   0  0  0  0  0  0  0  0  0  0  0  0
    4.7181   -0.7759   -1.3748 H   0  0  0  0  0  0  0  0  0  0  0  0
    7.2749   -3.5712   -1.4396 H   0  0  0  0  0  0  0  0  0  0  0  0
    8.0222   -4.2433    0.8737 H   0  0  0  0  0  0  0  0  0  0  0  0
    7.4194   -2.6723    1.4399 H   0  0  0  0  0  0  0  0  0  0  0  0
    8.7247   -2.7332    0.2782 H   0  0  0  0  0  0  0  0  0  0  0  0
    5.4926   -4.9099   -0.7598 H   0  0  0  0  0  0  0  0  0  0  0  0
    2.7792   -4.2357   -1.2939 H   0  0  0  0  0  0  0  0  0  0  0  0
    2.4590   -2.6476   -0.6629 H   0  0  0  0  0  0  0  0  0  0  0  0
    1.8983   -3.3966   -3.2706 H   0  0  0  0  0  0  0  0  0  0  0  0
    2.1432   -1.7313   -2.7292 H   0  0  0  0  0  0  0  0  0  0  0  0
    3.7812   -2.9388   -4.6466 H   0  0  0  0  0  0  0  0  0  0  0  0
    4.0894   -1.4776   -3.7263 H   0  0  0  0  0  0  0  0  0  0  0  0
    5.9494   -2.8145   -3.1201 H   0  0  0  0  0  0  0  0  0  0  0  0
    4.9683   -4.2679   -3.0567 H   0  0  0  0  0  0  0  0  0  0  0  0
    2.5129   -7.5431    1.7873 H   0  0  0  0  0  0  0  0  0  0  0  0
    0.5261   -7.1978    3.9343 H   0  0  0  0  0  0  0  0  0  0  0  0
    0.4828   -6.3514    1.0435 H   0  0  0  0  0  0  0  0  0  0  0  0
    0.4760   -5.3048    2.4789 H   0  0  0  0  0  0  0  0  0  0  0  0
   -0.8743   -6.4242    2.1604 H   0  0  0  0  0  0  0  0  0  0  0  0
   -0.4732   -9.0951    3.0390 H   0  0  0  0  0  0  0  0  0  0  0  0
   -0.0446   -8.6358    1.4270 H   0  0  0  0  0  0  0  0  0  0  0  0
    1.0341  -10.7815    2.2553 H   0  0  0  0  0  0  0  0  0  0  0  0
    2.0842   -9.6835    1.4569 H   0  0  0  0  0  0  0  0  0  0  0  0
    3.2164  -10.4997    3.3768 H   0  0  0  0  0  0  0  0  0  0  0  0
  1  2  1  0
  1 43  1  0
  1 44  1  0
  1 45  1  0
  2 41  1  0
  2  3  1  0
  2 46  1  1
  3  4  1  0
  3 47  1  0
  3 48  1  0
  4  5  1  0
  4 49  1  0
  4 50  1  0
 42  5  1  1
  5  6  1  0
  5 51  1  1
  6  7  1  0
  6  8  1  0
  6 52  1  6
  7 53  1  0
  7 54  1  0
  7 55  1  0
  8  9  1  0
  8 10  1  0
  8 56  1  6
  9 57  1  0
  9 58  1  0
  9 59  1  0
 10 11  1  0
 10 12  1  0
 10 60  1  6
 11 61  1  0
 11 62  1  0
 11 63  1  0
 12 42  1  0
 12 13  1  0
 12 64  1  6
 13 14  1  0
 13 15  1  0
 13 65  1  1
 14 66  1  0
 14 67  1  0
 14 68  1  0
 15 16  1  0
 15 35  1  0
 15 69  1  1
 16 17  1  0
 17 29  1  0
 17 18  1  0
 17 70  1  1
 18 24  1  0
 18 19  1  0
 18 71  1  6
 19 20  1  0
 20 21  1  0
 20 22  1  0
 20 23  1  0
 21 72  1  0
 21 73  1  0
 21 74  1  0
 22 75  1  0
 22 76  1  0
 22 77  1  0
 23 24  1  0
 24 25  1  0
 24 78  1  1
 25 30  1  0
 25 26  1  0
 25 79  1  6
 26 27  1  0
 27 28  1  0
 27 29  1  0
 27 80  1  6
 28 81  1  0
 28 82  1  0
 28 83  1  0
 29 30  1  0
 29 84  1  6
 30 34  1  0
 30 31  1  0
 31 32  1  0
 31 85  1  0
 31 86  1  0
 32 33  1  0
 32 87  1  0
 32 88  1  0
 33 34  1  0
 33 89  1  0
 33 90  1  0
 34 91  1  0
 34 92  1  0
 35 36  1  0
 36 42  1  0
 36 37  1  0
 36 93  1  6
 37 38  1  0
 37 39  1  0
 37 94  1  1
 38 95  1  0
 38 96  1  0
 38 97  1  0
 39 40  1  0
 39 98  1  0
 39 99  1  0
 40 41  1  0
 40100  1  0
 40101  1  0
 41 42  1  0
 41102  1  6
M  END
>  <i_m_ct_stereo_status>  (99) 
1

>  <s_m_source_file>  (99) 
/var/tmp/pbs.5076255.sched01/tmp7me73ahx/0ll6f151o.sdf

>  <i_m_source_file_index>  (99) 
41

>  <i_lp_mmshare_version>  (99) 
48012

>  <i_f3d_flags>  (99) 
0

>  <s_epik_input>  (99) 
W0NAQF0xMjNbQ0BASF00W0NIMl1bQ0gyXVtDQEBIXShbQ0gzXSlbQ0BIXTNbQ0gyXVtDSDJdW0NASF0oW0NIM10pW0NASF0yT1tDQEBIXShbQ0BIXShbQ0gzXSlbQ0BIXTFbQ0BIXShbQ0gzXSlbQ0BIXShbQ0gzXSlbQ0BASF00W0NIM10pT1tDQEBIXShbQ0BASF01W0NAQEhdKE82KVtDSDNdKVtDQEBIXShPQyhPNykoW0NIM10pW0NIM10pW0NASF03W0NAQEhdNkM1OFtDSDJdW0NIMl1bQ0gyXVtDSDJdOA==

>  <s_epik_cmdline>  (99) 
J2VwaWtfcHl0aG9uJywgJy1waHQnLCAnMi4wJywgJy1waCcsICc3LjAnLCAnLXRuJywgJzgnLCAnLW1hJywgJzIwMCcsICctaW1hZScsICc8aW5maWxlLm1hZT4nLCAnLW9tYWUnLCAnPG91dGZpbGUubWFlPic=

>  <r_lp_tautomer_probability>  (99) 
1

>  <r_epik_Ionization_Penalty>  (99) 
4.11698e-12

>  <r_epik_Ionization_Penalty_Charging>  (99) 
0

>  <r_epik_Ionization_Penalty_Neutral>  (99) 
4.11698e-12

>  <r_epik_State_Penalty>  (99) 
-0

>  <r_epik_Charging_Adjusted_Penalty>  (99) 
0

>  <i_epik_Tot_Q>  (99) 
0

>  <i_epik_Tot_abs_Q>  (99) 
0

>  <s_epik_Chemistry_Notes>  (99) 
This compound contains an acetal/aminal-like group ( X-CH(R)-Y where X, Y are N, S, or O) that may be acid/base labile, releasing an aldehyde.

>  <s_lp_Force_Field>  (99) 
OPLS3e

>  <r_lp_Energy>  (99) 
126.745

>  <b_lp_Chiralities_Consistent>  (99) 
1

>  <s_lp_Variant>  (99) 
32:0-1

>  <s_i_glide_gridfile>  (99) 
pfpi4k_grid

>  <i_i_glide_lignum>  (99) 
41

>  <i_i_glide_rotatable_bonds>  (99) 
2

>  <r_i_docking_score>  (99) 
-3.33141

>  <r_i_glide_ligand_efficiency>  (99) 
-0.0793193

>  <r_i_glide_ligand_efficiency_sa>  (99) 
-0.275716

>  <r_i_glide_ligand_efficiency_ln>  (99) 
-0.703175

>  <r_i_glide_gscore>  (99) 
-3.33141

>  <r_i_glide_lipo>  (99) 
-1.00656

>  <r_i_glide_hbond>  (99) 
-0.151566

>  <r_i_glide_metal>  (99) 
-0

>  <r_i_glide_rewards>  (99) 
-0.00857613

>  <r_i_glide_evdw>  (99) 
-38.4856

>  <r_i_glide_ecoul>  (99) 
-1.72627

>  <r_i_glide_erotb>  (99) 
0.0185092

>  <r_i_glide_esite>  (99) 
0

>  <r_i_glide_emodel>  (99) 
-46.6246

>  <r_i_glide_energy>  (99) 
-40.2118

>  <r_i_glide_einternal>  (99) 
3.96502

>  <r_i_glide_intrahb_reward>  (99) 
-0

>  <i_i_glide_confnum>  (99) 
3

>  <i_i_glide_posenum>  (99) 
20

>  <r_i_glide_eff_state_penalty>  (99) 
0

>  <ligand_id>  (99) 
32

>  <original_smiles>  (99) 
CC1CCC2C(C)C(C)C(C)C3C(C)C(OC4C5OC(C)(C)OC5C5OC(C)C4C54CCCC4)OC4C(C)CCC1C243

>  <smiles>  (99) 
[H]C([H])([H])C1([H])OC2([H])C3([H])OC(C([H])([H])[H])(C([H])([H])[H])OC3([H])C([H])(OC3([H])OC4([H])C([H])(C([H])([H])[H])C([H])([H])C([H])([H])C5([H])C([H])(C([H])([H])[H])C([H])([H])C([H])([H])C6([H])C([H])(C([H])([H])[H])C([H])(C([H])([H])[H])C([H])(C([H])([H])[H])C([H])(C3([H])C([H])([H])[H])C456)C1([H])C21C([H])([H])C([H])([H])C([H])([H])C1([H])[H]

$$$$
32:0:1
     RDKit          3D

102109  0  0  1  0  0  0  0  0999 V2000
    0.8956  -10.5650    5.3525 C   0  0  0  0  0  0  0  0  0  0  0  0
    1.6778   -9.2481    5.4410 C   0  0  2  0  0  0  0  0  0  0  0  0
    0.7153   -8.0571    5.6345 C   0  0  0  0  0  0  0  0  0  0  0  0
    1.4433   -6.7101    5.8199 C   0  0  0  0  0  0  0  0  0  0  0  0
    2.9582   -6.8072    5.5379 C   0  0  2  0  0  0  0  0  0  0  0  0
    3.8265   -5.5690    5.8708 C   0  0  1  0  0  0  0  0  0  0  0  0
    3.2867   -4.7088    7.0307 C   0  0  0  0  0  0  0  0  0  0  0  0
    5.3319   -5.9809    6.0342 C   0  0  1  0  0  0  0  0  0  0  0  0
    5.9115   -5.8484    7.4601 C   0  0  0  0  0  0  0  0  0  0  0  0
    5.6988   -7.3553    5.3830 C   0  0  1  0  0  0  0  0  0  0  0  0
    5.6802   -8.5987    6.3080 C   0  0  0  0  0  0  0  0  0  0  0  0
    4.9238   -7.5712    4.0518 C   0  0  2  0  0  0  0  0  0  0  0  0
    5.5340   -6.6465    2.9246 C   0  0  1  0  0  0  0  0  0  0  0  0
    6.0060   -7.4457    1.6850 C   0  0  0  0  0  0  0  0  0  0  0  0
    4.6469   -5.4053    2.5560 C   0  0  1  0  0  0  0  0  0  0  0  0
    4.8736   -5.0384    1.2281 O   0  0  0  0  0  0  0  0  0  0  0  0
    5.4175   -3.7368    1.0126 C   0  0  2  0  0  0  0  0  0  0  0  0
    4.3931   -2.6418    1.3953 C   0  0  1  0  0  0  0  0  0  0  0  0
    4.3407   -2.1035    2.6956 O   0  0  0  0  0  0  0  0  0  0  0  0
    3.6676   -0.8817    2.5133 C   0  0  0  0  0  0  0  0  0  0  0  0
    2.1857   -1.0252    2.8877 C   0  0  0  0  0  0  0  0  0  0  0  0
    4.3825    0.1690    3.3553 C   0  0  0  0  0  0  0  0  0  0  0  0
    3.7308   -0.5013    1.1663 O   0  0  0  0  0  0  0  0  0  0  0  0
    4.7016   -1.3583    0.6395 C   0  0  2  0  0  0  0  0  0  0  0  0
    4.8213   -1.5525   -0.8955 C   0  0  1  0  0  0  0  0  0  0  0  0
    6.2203   -1.4556   -1.1477 O   0  0  0  0  0  0  0  0  0  0  0  0
    6.8806   -2.6931   -0.8826 C   0  0  1  0  0  0  0  0  0  0  0  0
    8.0473   -2.4729    0.0859 C   0  0  0  0  0  0  0  0  0  0  0  0
    5.7264   -3.6554   -0.5275 C   0  0  2  0  0  0  0  0  0  0  0  0
    4.6078   -2.9851   -1.3891 C   0  0  0  0  0  0  0  0  0  0  0  0
    3.1370   -3.4412   -1.2528 C   0  0  0  0  0  0  0  0  0  0  0  0
    2.4500   -3.0754   -2.5772 C   0  0  0  0  0  0  0  0  0  0  0  0
    3.5391   -2.6793   -3.5677 C   0  0  0  0  0  0  0  0  0  0  0  0
    4.8418   -3.1190   -2.9168 C   0  0  0  0  0  0  0  0  0  0  0  0
    3.2720   -5.5756    2.7822 O   0  0  0  0  0  0  0  0  0  0  0  0
    2.8432   -6.9188    2.8522 C   0  0  2  0  0  0  0  0  0  0  0  0
    1.3655   -7.1403    2.4917 C   0  0  1  0  0  0  0  0  0  0  0  0
    0.9361   -6.3851    1.2359 C   0  0  0  0  0  0  0  0  0  0  0  0
    1.0869   -8.6546    2.3482 C   0  0  0  0  0  0  0  0  0  0  0  0
    2.2070   -9.5487    2.9304 C   0  0  0  0  0  0  0  0  0  0  0  0
    2.7292   -9.0396    4.2970 C   0  0  1  0  0  0  0  0  0  0  0  0
    3.3447   -7.5703    4.1975 C   0  0  2  0  0  0  0  0  0  0  0  0
    0.1925  -10.5933    4.5186 H   0  0  0  0  0  0  0  0  0  0  0  0
    0.3123  -10.6867    6.2651 H   0  0  0  0  0  0  0  0  0  0  0  0
    1.5693  -11.4204    5.2730 H   0  0  0  0  0  0  0  0  0  0  0  0
    2.2429   -9.3415    6.3721 H   0  0  0  0  0  0  0  0  0  0  0  0
    0.0042   -8.0097    4.8152 H   0  0  0  0  0  0  0  0  0  0  0  0
    0.0905   -8.2417    6.5101 H   0  0  0  0  0  0  0  0  0  0  0  0
    0.9801   -5.9143    5.2388 H   0  0  0  0  0  0  0  0  0  0  0  0
    1.3027   -6.4256    6.8602 H   0  0  0  0  0  0  0  0  0  0  0  0
    3.2480   -7.4474    6.3587 H   0  0  0  0  0  0  0  0  0  0  0  0
    3.7553   -4.9011    5.0184 H   0  0  0  0  0  0  0  0  0  0  0  0
    3.2228   -5.2760    7.9605 H   0  0  0  0  0  0  0  0  0  0  0  0
    2.2937   -4.3196    6.8053 H   0  0  0  0  0  0  0  0  0  0  0  0
    3.9224   -3.8408    7.2021 H   0  0  0  0  0  0  0  0  0  0  0  0
    5.8790   -5.2325    5.4596 H   0  0  0  0  0  0  0  0  0  0  0  0
    5.3736   -6.4689    8.1776 H   0  0  0  0  0  0  0  0  0  0  0  0
    5.8832   -4.8179    7.8125 H   0  0  0  0  0  0  0  0  0  0  0  0
    6.9595   -6.1485    7.4752 H   0  0  0  0  0  0  0  0  0  0  0  0
    6.7554   -7.2847    5.1282 H   0  0  0  0  0  0  0  0  0  0  0  0
    4.7146   -8.8347    6.7457 H   0  0  0  0  0  0  0  0  0  0  0  0
    6.3848   -8.4847    7.1320 H   0  0  0  0  0  0  0  0  0  0  0  0
    5.9970   -9.4831    5.7565 H   0  0  0  0  0  0  0  0  0  0  0  0
    5.1892   -8.5763    3.7319 H   0  0  0  0  0  0  0  0  0  0  0  0
    6.4572   -6.2044    3.2978 H   0  0  0  0  0  0  0  0  0  0  0  0
    5.1903   -7.9140    1.1388 H   0  0  0  0  0  0  0  0  0  0  0  0
    6.6959   -8.2329    1.9828 H   0  0  0  0  0  0  0  0  0  0  0  0
    6.5468   -6.8047    0.9894 H   0  0  0  0  0  0  0  0  0  0  0  0
    4.9252   -4.5784    3.2050 H   0  0  0  0  0  0  0  0  0  0  0  0
    6.3260   -3.6619    1.6091 H   0  0  0  0  0  0  0  0  0  0  0  0
    3.4040   -3.0272    1.2283 H   0  0  0  0  0  0  0  0  0  0  0  0
    1.6827   -1.7387    2.2352 H   0  0  0  0  0  0  0  0  0  0  0  0
    1.6917   -0.0612    2.7680 H   0  0  0  0  0  0  0  0  0  0  0  0
    2.0894   -1.3456    3.9238 H   0  0  0  0  0  0  0  0  0  0  0  0
    5.4311    0.2280    3.0592 H   0  0  0  0  0  0  0  0  0  0  0  0
    4.3260   -0.1149    4.4043 H   0  0  0  0  0  0  0  0  0  0  0  0
    3.9065    1.1427    3.2107 H   0  0  0  0  0  0  0  0  0  0  0  0
    5.6416   -0.9433    1.0005 H   0  0  0  0  0  0  0  0  0  0  0  0
    4.2768   -0.7910   -1.4463 H   0  0  0  0  0  0  0  0  0  0  0  0
    7.3263   -3.0174   -1.8182 H   0  0  0  0  0  0  0  0  0  0  0  0
    8.5228   -3.4145    0.3626 H   0  0  0  0  0  0  0  0  0  0  0  0
    7.7195   -1.9676    0.9924 H   0  0  0  0  0  0  0  0  0  0  0  0
    8.8151   -1.8446   -0.3638 H   0  0  0  0  0  0  0  0  0  0  0  0
    5.9727   -4.6542   -0.8754 H   0  0  0  0  0  0  0  0  0  0  0  0
    3.1044   -4.5214   -1.0947 H   0  0  0  0  0  0  0  0  0  0  0  0
    2.5687   -2.9814   -0.4528 H   0  0  0  0  0  0  0  0  0  0  0  0
    1.8402   -3.8978   -2.9457 H   0  0  0  0  0  0  0  0  0  0  0  0
    1.7973   -2.2217   -2.4154 H   0  0  0  0  0  0  0  0  0  0  0  0
    3.3889   -3.1104   -4.5565 H   0  0  0  0  0  0  0  0  0  0  0  0
    3.5363   -1.5978   -3.6793 H   0  0  0  0  0  0  0  0  0  0  0  0
    5.6727   -2.5404   -3.3195 H   0  0  0  0  0  0  0  0  0  0  0  0
    5.0356   -4.1621   -3.1694 H   0  0  0  0  0  0  0  0  0  0  0  0
    3.3150   -7.4076    1.9990 H   0  0  0  0  0  0  0  0  0  0  0  0
    0.7495   -6.7238    3.2776 H   0  0  0  0  0  0  0  0  0  0  0  0
    1.4998   -6.6793    0.3495 H   0  0  0  0  0  0  0  0  0  0  0  0
    1.1104   -5.3245    1.3844 H   0  0  0  0  0  0  0  0  0  0  0  0
   -0.1222   -6.5503    1.0286 H   0  0  0  0  0  0  0  0  0  0  0  0
    0.1141   -8.9081    2.7742 H   0  0  0  0  0  0  0  0  0  0  0  0
    1.0322   -8.8926    1.3009 H   0  0  0  0  0  0  0  0  0  0  0  0
    1.8590  -10.5763    2.9902 H   0  0  0  0  0  0  0  0  0  0  0  0
    3.0466   -9.5967    2.2383 H   0  0  0  0  0  0  0  0  0  0  0  0
    3.5421   -9.7166    4.5623 H   0  0  0  0  0  0  0  0  0  0  0  0
  1  2  1  0
  1 43  1  0
  1 44  1  0
  1 45  1  0
  2 41  1  0
  2  3  1  0
  2 46  1  1
  3  4  1  0
  3 47  1  0
  3 48  1  0
  4  5  1  0
  4 49  1  0
  4 50  1  0
 42  5  1  1
  5  6  1  0
  5 51  1  1
  6  7  1  0
  6  8  1  0
  6 52  1  6
  7 53  1  0
  7 54  1  0
  7 55  1  0
  8  9  1  0
  8 10  1  0
  8 56  1  6
  9 57  1  0
  9 58  1  0
  9 59  1  0
 10 11  1  0
 10 12  1  0
 10 60  1  6
 11 61  1  0
 11 62  1  0
 11 63  1  0
 12 42  1  0
 12 13  1  0
 12 64  1  6
 13 14  1  0
 13 15  1  0
 13 65  1  1
 14 66  1  0
 14 67  1  0
 14 68  1  0
 15 16  1  0
 15 35  1  0
 15 69  1  1
 16 17  1  0
 17 29  1  0
 17 18  1  0
 17 70  1  1
 18 24  1  0
 18 19  1  0
 18 71  1  6
 19 20  1  0
 20 21  1  0
 20 22  1  0
 20 23  1  0
 21 72  1  0
 21 73  1  0
 21 74  1  0
 22 75  1  0
 22 76  1  0
 22 77  1  0
 23 24  1  0
 24 25  1  0
 24 78  1  1
 25 30  1  0
 25 26  1  0
 25 79  1  6
 26 27  1  0
 27 28  1  0
 27 29  1  0
 27 80  1  6
 28 81  1  0
 28 82  1  0
 28 83  1  0
 29 30  1  0
 29 84  1  6
 30 34  1  0
 30 31  1  0
 31 32  1  0
 31 85  1  0
 31 86  1  0
 32 33  1  0
 32 87  1  0
 32 88  1  0
 33 34  1  0
 33 89  1  0
 33 90  1  0
 34 91  1  0
 34 92  1  0
 35 36  1  0
 36 42  1  0
 36 37  1  0
 36 93  1  6
 37 38  1  0
 37 39  1  0
 37 94  1  1
 38 95  1  0
 38 96  1  0
 38 97  1  0
 39 40  1  0
 39 98  1  0
 39 99  1  0
 40 41  1  0
 40100  1  0
 40101  1  0
 41 42  1  0
 41102  1  1
M  END
>  <i_m_ct_stereo_status>  (100) 
1

>  <s_m_source_file>  (100) 
/var/tmp/pbs.5076255.sched01/tmp7me73ahx/0ll6f151o.sdf

>  <i_m_source_file_index>  (100) 
41

>  <i_lp_mmshare_version>  (100) 
48012

>  <i_f3d_flags>  (100) 
0

>  <s_epik_input>  (100) 
W0NAQF0xMjNbQ0BASF00W0NIMl1bQ0gyXVtDQEBIXShbQ0gzXSlbQ0BIXTNbQ0gyXVtDSDJdW0NASF0oW0NIM10pW0NASF0yT1tDQEBIXShbQ0BIXShbQ0gzXSlbQ0BIXTFbQ0BIXShbQ0gzXSlbQ0BIXShbQ0gzXSlbQ0BASF00W0NIM10pT1tDQEBIXShbQ0BASF01W0NAQEhdKE82KVtDSDNdKVtDQEBIXShPQyhPNykoW0NIM10pW0NIM10pW0NASF03W0NAQEhdNkM1OFtDSDJdW0NIMl1bQ0gyXVtDSDJdOA==

>  <s_epik_cmdline>  (100) 
J2VwaWtfcHl0aG9uJywgJy1waHQnLCAnMi4wJywgJy1waCcsICc3LjAnLCAnLXRuJywgJzgnLCAnLW1hJywgJzIwMCcsICctaW1hZScsICc8aW5maWxlLm1hZT4nLCAnLW9tYWUnLCAnPG91dGZpbGUubWFlPic=

>  <r_lp_tautomer_probability>  (100) 
1

>  <r_epik_Ionization_Penalty>  (100) 
4.11698e-12

>  <r_epik_Ionization_Penalty_Charging>  (100) 
0

>  <r_epik_Ionization_Penalty_Neutral>  (100) 
4.11698e-12

>  <r_epik_State_Penalty>  (100) 
-0

>  <r_epik_Charging_Adjusted_Penalty>  (100) 
0

>  <i_epik_Tot_Q>  (100) 
0

>  <i_epik_Tot_abs_Q>  (100) 
0

>  <s_epik_Chemistry_Notes>  (100) 
This compound contains an acetal/aminal-like group ( X-CH(R)-Y where X, Y are N, S, or O) that may be acid/base labile, releasing an aldehyde.

>  <s_lp_Force_Field>  (100) 
OPLS3e

>  <r_lp_Energy>  (100) 
126.745

>  <b_lp_Chiralities_Consistent>  (100) 
1

>  <s_lp_Variant>  (100) 
32:0-1

>  <s_i_glide_gridfile>  (100) 
pfpi4k_grid

>  <i_i_glide_lignum>  (100) 
41

>  <i_i_glide_rotatable_bonds>  (100) 
2

>  <r_i_docking_score>  (100) 
-3.27647

>  <r_i_glide_ligand_efficiency>  (100) 
-0.0780112

>  <r_i_glide_ligand_efficiency_sa>  (100) 
-0.271169

>  <r_i_glide_ligand_efficiency_ln>  (100) 
-0.691579

>  <r_i_glide_gscore>  (100) 
-3.27647

>  <r_i_glide_lipo>  (100) 
-0.898343

>  <r_i_glide_hbond>  (100) 
-0.117579

>  <r_i_glide_metal>  (100) 
-0

>  <r_i_glide_rewards>  (100) 
-0.0116712

>  <r_i_glide_evdw>  (100) 
-39.2339

>  <r_i_glide_ecoul>  (100) 
-2.03794

>  <r_i_glide_erotb>  (100) 
0.0185092

>  <r_i_glide_esite>  (100) 
0

>  <r_i_glide_emodel>  (100) 
-48.5892

>  <r_i_glide_energy>  (100) 
-41.2719

>  <r_i_glide_einternal>  (100) 
1.70648

>  <r_i_glide_intrahb_reward>  (100) 
-0

>  <i_i_glide_confnum>  (100) 
3

>  <i_i_glide_posenum>  (100) 
10

>  <r_i_glide_eff_state_penalty>  (100) 
0

>  <ligand_id>  (100) 
32

>  <original_smiles>  (100) 
CC1CCC2C(C)C(C)C(C)C3C(C)C(OC4C5OC(C)(C)OC5C5OC(C)C4C54CCCC4)OC4C(C)CCC1C243

>  <smiles>  (100) 
[H]C([H])([H])C1([H])OC2([H])C3([H])OC(C([H])([H])[H])(C([H])([H])[H])OC3([H])C([H])(OC3([H])OC4([H])C([H])(C([H])([H])[H])C([H])([H])C([H])([H])C5([H])C([H])(C([H])([H])[H])C([H])([H])C([H])([H])C6([H])C([H])(C([H])([H])[H])C([H])(C([H])([H])[H])C([H])(C([H])([H])[H])C([H])(C3([H])C([H])([H])[H])C456)C1([H])C21C([H])([H])C([H])([H])C([H])([H])C1([H])[H]

$$$$
32:0:2
     RDKit          3D

102109  0  0  1  0  0  0  0  0999 V2000
    0.2166   -9.2885    7.3861 C   0  0  0  0  0  0  0  0  0  0  0  0
    1.4252   -8.9748    6.4907 C   0  0  2  0  0  0  0  0  0  0  0  0
    2.5016   -8.1826    7.2634 C   0  0  0  0  0  0  0  0  0  0  0  0
    3.7885   -7.9373    6.4477 C   0  0  0  0  0  0  0  0  0  0  0  0
    3.6376   -8.3339    4.9655 C   0  0  2  0  0  0  0  0  0  0  0  0
    4.9150   -8.3087    4.0848 C   0  0  1  0  0  0  0  0  0  0  0  0
    6.2183   -8.6041    4.8557 C   0  0  0  0  0  0  0  0  0  0  0  0
    4.7224   -9.2079    2.8135 C   0  0  1  0  0  0  0  0  0  0  0  0
    5.5971  -10.4790    2.7540 C   0  0  0  0  0  0  0  0  0  0  0  0
    3.2264   -9.5012    2.4615 C   0  0  1  0  0  0  0  0  0  0  0  0
    2.6287  -10.8310    2.9870 C   0  0  0  0  0  0  0  0  0  0  0  0
    2.3251   -8.2616    2.7539 C   0  0  2  0  0  0  0  0  0  0  0  0
    2.5694   -7.1490    1.6627 C   0  0  1  0  0  0  0  0  0  0  0  0
    1.2749   -6.7376    0.9254 C   0  0  0  0  0  0  0  0  0  0  0  0
    3.3917   -5.9057    2.1606 C   0  0  1  0  0  0  0  0  0  0  0  0
    3.0283   -4.7664    1.4417 O   0  0  0  0  0  0  0  0  0  0  0  0
    4.0471   -3.7639    1.3521 C   0  0  2  0  0  0  0  0  0  0  0  0
    3.3509   -2.3888    1.3818 C   0  0  1  0  0  0  0  0  0  0  0  0
    3.1056   -1.7186    2.6008 O   0  0  0  0  0  0  0  0  0  0  0  0
    2.9255   -0.3782    2.2012 C   0  0  0  0  0  0  0  0  0  0  0  0
    1.4293   -0.0287    2.1108 C   0  0  0  0  0  0  0  0  0  0  0  0
    3.6518    0.5178    3.2023 C   0  0  0  0  0  0  0  0  0  0  0  0
    3.4850   -0.1890    0.9295 O   0  0  0  0  0  0  0  0  0  0  0  0
    4.2571   -1.3475    0.7479 C   0  0  2  0  0  0  0  0  0  0  0  0
    4.7782   -1.7226   -0.6681 C   0  0  1  0  0  0  0  0  0  0  0  0
    6.1544   -2.0282   -0.4524 O   0  0  0  0  0  0  0  0  0  0  0  0
    6.2662   -3.3849   -0.0063 C   0  0  1  0  0  0  0  0  0  0  0  0
    7.0611   -3.4524    1.2714 C   0  0  0  0  0  0  0  0  0  0  0  0
    4.8265   -3.9499   -0.0219 C   0  0  2  0  0  0  0  0  0  0  0  0
    4.2931   -3.0854   -1.1987 C   0  0  0  0  0  0  0  0  0  0  0  0
    2.7854   -3.1217   -1.5344 C   0  0  0  0  0  0  0  0  0  0  0  0
    2.6235   -2.6982   -3.0008 C   0  0  0  0  0  0  0  0  0  0  0  0
    4.0225   -2.7213   -3.6005 C   0  0  0  0  0  0  0  0  0  0  0  0
    4.8989   -3.4333   -2.5787 C   0  0  0  0  0  0  0  0  0  0  0  0
    3.3093   -5.6663    3.5395 O   0  0  0  0  0  0  0  0  0  0  0  0
    2.1660   -6.2178    4.1608 C   0  0  2  0  0  0  0  0  0  0  0  0
    1.7161   -5.4742    5.4312 C   0  0  1  0  0  0  0  0  0  0  0  0
    1.7209   -3.9470    5.2793 C   0  0  0  0  0  0  0  0  0  0  0  0
    0.3092   -5.9821    5.8386 C   0  0  0  0  0  0  0  0  0  0  0  0
   -0.0823   -7.3217    5.1616 C   0  0  0  0  0  0  0  0  0  0  0  0
    1.0766   -8.3484    5.0926 C   0  0  1  0  0  0  0  0  0  0  0  0
    2.3185   -7.7883    4.2664 C   0  0  2  0  0  0  0  0  0  0  0  0
   -0.2544   -8.3855    7.7778 H   0  0  0  0  0  0  0  0  0  0  0  0
    0.5391   -9.8811    8.2405 H   0  0  0  0  0  0  0  0  0  0  0  0
   -0.5331   -9.8764    6.8506 H   0  0  0  0  0  0  0  0  0  0  0  0
    1.8514   -9.9609    6.2985 H   0  0  0  0  0  0  0  0  0  0  0  0
    2.0898   -7.2432    7.6230 H   0  0  0  0  0  0  0  0  0  0  0  0
    2.7644   -8.7266    8.1725 H   0  0  0  0  0  0  0  0  0  0  0  0
    4.1496   -6.9188    6.5518 H   0  0  0  0  0  0  0  0  0  0  0  0
    4.5566   -8.5654    6.8921 H   0  0  0  0  0  0  0  0  0  0  0  0
    3.5241   -9.4062    5.0779 H   0  0  0  0  0  0  0  0  0  0  0  0
    5.0451   -7.2862    3.7500 H   0  0  0  0  0  0  0  0  0  0  0  0
    6.2022   -9.5898    5.3232 H   0  0  0  0  0  0  0  0  0  0  0  0
    6.3897   -7.8654    5.6378 H   0  0  0  0  0  0  0  0  0  0  0  0
    7.0832   -8.5535    4.1959 H   0  0  0  0  0  0  0  0  0  0  0  0
    5.0993   -8.5967    1.9924 H   0  0  0  0  0  0  0  0  0  0  0  0
    5.3982  -11.1503    3.5908 H   0  0  0  0  0  0  0  0  0  0  0  0
    6.6602  -10.2418    2.7486 H   0  0  0  0  0  0  0  0  0  0  0  0
    5.4166  -11.0320    1.8330 H   0  0  0  0  0  0  0  0  0  0  0  0
    3.2088   -9.6692    1.3843 H   0  0  0  0  0  0  0  0  0  0  0  0
    2.6038  -10.9334    4.0663 H   0  0  0  0  0  0  0  0  0  0  0  0
    3.1792  -11.6843    2.5950 H   0  0  0  0  0  0  0  0  0  0  0  0
    1.6038  -10.9454    2.6379 H   0  0  0  0  0  0  0  0  0  0  0  0
    1.3139   -8.6111    2.5465 H   0  0  0  0  0  0  0  0  0  0  0  0
    3.1993   -7.5804    0.8877 H   0  0  0  0  0  0  0  0  0  0  0  0
    0.5541   -6.2289    1.5590 H   0  0  0  0  0  0  0  0  0  0  0  0
    0.7843   -7.6232    0.5220 H   0  0  0  0  0  0  0  0  0  0  0  0
    1.5028   -6.0972    0.0759 H   0  0  0  0  0  0  0  0  0  0  0  0
    4.4390   -6.0994    1.9396 H   0  0  0  0  0  0  0  0  0  0  0  0
    4.7077   -3.8498    2.2217 H   0  0  0  0  0  0  0  0  0  0  0  0
    2.3863   -2.4913    0.9092 H   0  0  0  0  0  0  0  0  0  0  0  0
    0.9369   -0.6249    1.3492 H   0  0  0  0  0  0  0  0  0  0  0  0
    1.3198    1.0150    1.8271 H   0  0  0  0  0  0  0  0  0  0  0  0
    0.9390   -0.1879    3.0711 H   0  0  0  0  0  0  0  0  0  0  0  0
    4.7088    0.2484    3.2469 H   0  0  0  0  0  0  0  0  0  0  0  0
    3.2054    0.3786    4.1835 H   0  0  0  0  0  0  0  0  0  0  0  0
    3.5469    1.5595    2.9002 H   0  0  0  0  0  0  0  0  0  0  0  0
    5.1253   -1.1826    1.3907 H   0  0  0  0  0  0  0  0  0  0  0  0
    4.6716   -0.8971   -1.3636 H   0  0  0  0  0  0  0  0  0  0  0  0
    6.8542   -3.9212   -0.7443 H   0  0  0  0  0  0  0  0  0  0  0  0
    7.1222   -4.4673    1.6830 H   0  0  0  0  0  0  0  0  0  0  0  0
    6.6354   -2.7904    2.0424 H   0  0  0  0  0  0  0  0  0  0  0  0
    8.0754   -3.1086    1.0822 H   0  0  0  0  0  0  0  0  0  0  0  0
    4.8522   -5.0095   -0.2811 H   0  0  0  0  0  0  0  0  0  0  0  0
    2.3519   -4.1205   -1.3918 H   0  0  0  0  0  0  0  0  0  0  0  0
    2.2123   -2.4365   -0.9147 H   0  0  0  0  0  0  0  0  0  0  0  0
    1.9150   -3.3380   -3.5324 H   0  0  0  0  0  0  0  0  0  0  0  0
    2.2378   -1.6854   -3.0337 H   0  0  0  0  0  0  0  0  0  0  0  0
    4.0461   -3.2005   -4.5769 H   0  0  0  0  0  0  0  0  0  0  0  0
    4.3734   -1.6966   -3.7187 H   0  0  0  0  0  0  0  0  0  0  0  0
    5.9439   -3.1633   -2.7308 H   0  0  0  0  0  0  0  0  0  0  0  0
    4.8158   -4.5057   -2.7379 H   0  0  0  0  0  0  0  0  0  0  0  0
    1.3345   -5.9638    3.5031 H   0  0  0  0  0  0  0  0  0  0  0  0
    2.4282   -5.6760    6.2197 H   0  0  0  0  0  0  0  0  0  0  0  0
    1.0335   -3.6227    4.5020 H   0  0  0  0  0  0  0  0  0  0  0  0
    2.7146   -3.5793    5.0285 H   0  0  0  0  0  0  0  0  0  0  0  0
    1.4211   -3.4791    6.2159 H   0  0  0  0  0  0  0  0  0  0  0  0
    0.2668   -6.0881    6.9214 H   0  0  0  0  0  0  0  0  0  0  0  0
   -0.4412   -5.2271    5.5943 H   0  0  0  0  0  0  0  0  0  0  0  0
   -0.9434   -7.7643    5.6499 H   0  0  0  0  0  0  0  0  0  0  0  0
   -0.4270   -7.1339    4.1430 H   0  0  0  0  0  0  0  0  0  0  0  0
    0.6757   -9.1909    4.5339 H   0  0  0  0  0  0  0  0  0  0  0  0
  1  2  1  0
  1 43  1  0
  1 44  1  0
  1 45  1  0
  2 41  1  0
  2  3  1  0
  2 46  1  6
  3  4  1  0
  3 47  1  0
  3 48  1  0
  4  5  1  0
  4 49  1  0
  4 50  1  0
 42  5  1  1
  5  6  1  0
  5 51  1  1
  6  7  1  0
  6  8  1  0
  6 52  1  6
  7 53  1  0
  7 54  1  0
  7 55  1  0
  8  9  1  0
  8 10  1  0
  8 56  1  6
  9 57  1  0
  9 58  1  0
  9 59  1  0
 10 11  1  0
 10 12  1  0
 10 60  1  6
 11 61  1  0
 11 62  1  0
 11 63  1  0
 12 42  1  0
 12 13  1  0
 12 64  1  6
 13 14  1  0
 13 15  1  0
 13 65  1  6
 14 66  1  0
 14 67  1  0
 14 68  1  0
 15 16  1  0
 15 35  1  0
 15 69  1  1
 16 17  1  0
 17 29  1  0
 17 18  1  0
 17 70  1  1
 18 24  1  0
 18 19  1  0
 18 71  1  6
 19 20  1  0
 20 21  1  0
 20 22  1  0
 20 23  1  0
 21 72  1  0
 21 73  1  0
 21 74  1  0
 22 75  1  0
 22 76  1  0
 22 77  1  0
 23 24  1  0
 24 25  1  0
 24 78  1  1
 25 30  1  0
 25 26  1  0
 25 79  1  6
 26 27  1  0
 27 28  1  0
 27 29  1  0
 27 80  1  6
 28 81  1  0
 28 82  1  0
 28 83  1  0
 29 30  1  0
 29 84  1  6
 30 34  1  0
 30 31  1  0
 31 32  1  0
 31 85  1  0
 31 86  1  0
 32 33  1  0
 32 87  1  0
 32 88  1  0
 33 34  1  0
 33 89  1  0
 33 90  1  0
 34 91  1  0
 34 92  1  0
 35 36  1  0
 36 42  1  0
 36 37  1  0
 36 93  1  6
 37 38  1  0
 37 39  1  0
 37 94  1  1
 38 95  1  0
 38 96  1  0
 38 97  1  0
 39 40  1  0
 39 98  1  0
 39 99  1  0
 40 41  1  0
 40100  1  0
 40101  1  0
 41 42  1  0
 41102  1  6
M  END
>  <i_m_ct_stereo_status>  (101) 
1

>  <s_m_source_file>  (101) 
/var/tmp/pbs.5076255.sched01/tmp7me73ahx/0ll6f151o.sdf

>  <i_m_source_file_index>  (101) 
41

>  <i_lp_mmshare_version>  (101) 
48012

>  <i_f3d_flags>  (101) 
0

>  <s_epik_input>  (101) 
W0NAQF0xMjNbQ0BASF00W0NIMl1bQ0gyXVtDQEBIXShbQ0gzXSlbQ0BIXTNbQ0gyXVtDSDJdW0NASF0oW0NIM10pW0NASF0yT1tDQEBIXShbQ0BIXShbQ0gzXSlbQ0BIXTFbQ0BIXShbQ0gzXSlbQ0BIXShbQ0gzXSlbQ0BASF00W0NIM10pT1tDQEBIXShbQ0BASF01W0NAQEhdKE82KVtDSDNdKVtDQEBIXShPQyhPNykoW0NIM10pW0NIM10pW0NASF03W0NAQEhdNkM1OFtDSDJdW0NIMl1bQ0gyXVtDSDJdOA==

>  <s_epik_cmdline>  (101) 
J2VwaWtfcHl0aG9uJywgJy1waHQnLCAnMi4wJywgJy1waCcsICc3LjAnLCAnLXRuJywgJzgnLCAnLW1hJywgJzIwMCcsICctaW1hZScsICc8aW5maWxlLm1hZT4nLCAnLW9tYWUnLCAnPG91dGZpbGUubWFlPic=

>  <r_lp_tautomer_probability>  (101) 
1

>  <r_epik_Ionization_Penalty>  (101) 
4.11698e-12

>  <r_epik_Ionization_Penalty_Charging>  (101) 
0

>  <r_epik_Ionization_Penalty_Neutral>  (101) 
4.11698e-12

>  <r_epik_State_Penalty>  (101) 
-0

>  <r_epik_Charging_Adjusted_Penalty>  (101) 
0

>  <i_epik_Tot_Q>  (101) 
0

>  <i_epik_Tot_abs_Q>  (101) 
0

>  <s_epik_Chemistry_Notes>  (101) 
This compound contains an acetal/aminal-like group ( X-CH(R)-Y where X, Y are N, S, or O) that may be acid/base labile, releasing an aldehyde.

>  <s_lp_Force_Field>  (101) 
OPLS3e

>  <r_lp_Energy>  (101) 
126.745

>  <b_lp_Chiralities_Consistent>  (101) 
1

>  <s_lp_Variant>  (101) 
32:0-1

>  <s_i_glide_gridfile>  (101) 
pfpi4k_grid

>  <i_i_glide_lignum>  (101) 
41

>  <i_i_glide_rotatable_bonds>  (101) 
2

>  <r_i_docking_score>  (101) 
-2.87985

>  <r_i_glide_ligand_efficiency>  (101) 
-0.0685678

>  <r_i_glide_ligand_efficiency_sa>  (101) 
-0.238344

>  <r_i_glide_ligand_efficiency_ln>  (101) 
-0.607862

>  <r_i_glide_gscore>  (101) 
-2.87985

>  <r_i_glide_lipo>  (101) 
-0.587567

>  <r_i_glide_hbond>  (101) 
0

>  <r_i_glide_metal>  (101) 
-0

>  <r_i_glide_rewards>  (101) 
-0.010604

>  <r_i_glide_evdw>  (101) 
-41.9035

>  <r_i_glide_ecoul>  (101) 
-1.25174

>  <r_i_glide_erotb>  (101) 
0.0185092

>  <r_i_glide_esite>  (101) 
-0.0172493

>  <r_i_glide_emodel>  (101) 
-49.519

>  <r_i_glide_energy>  (101) 
-43.1553

>  <r_i_glide_einternal>  (101) 
1.18261

>  <r_i_glide_intrahb_reward>  (101) 
-0

>  <i_i_glide_confnum>  (101) 
2

>  <i_i_glide_posenum>  (101) 
1

>  <r_i_glide_eff_state_penalty>  (101) 
0

>  <ligand_id>  (101) 
32

>  <original_smiles>  (101) 
CC1CCC2C(C)C(C)C(C)C3C(C)C(OC4C5OC(C)(C)OC5C5OC(C)C4C54CCCC4)OC4C(C)CCC1C243

>  <smiles>  (101) 
[H]C([H])([H])C1([H])OC2([H])C3([H])OC(C([H])([H])[H])(C([H])([H])[H])OC3([H])C([H])(OC3([H])OC4([H])C([H])(C([H])([H])[H])C([H])([H])C([H])([H])C5([H])C([H])(C([H])([H])[H])C([H])([H])C([H])([H])C6([H])C([H])(C([H])([H])[H])C([H])(C([H])([H])[H])C([H])(C([H])([H])[H])C([H])(C3([H])C([H])([H])[H])C456)C1([H])C21C([H])([H])C([H])([H])C([H])([H])C1([H])[H]

$$$$
33:0:0
     RDKit          3D

 65 72  0  0  1  0  0  0  0  0999 V2000
    2.9994   -3.7230    4.8635 O   0  0  0  0  0  0  0  0  0  0  0  0
    3.3170   -4.9128    4.7929 C   0  0  0  0  0  0  0  0  0  0  0  0
    4.8370   -5.2474    4.5121 C   0  0  1  0  0  0  0  0  0  0  0  0
    5.3561   -6.6629    4.9107 C   0  0  0  0  0  0  0  0  0  0  0  0
    5.2196   -7.8742    3.9396 C   0  0  0  0  0  0  0  0  0  0  0  0
    4.7176   -7.6730    2.4934 C   0  0  0  0  0  0  0  0  0  0  0  0
    3.7199   -6.5394    2.1929 C   0  0  0  0  0  0  0  0  0  0  0  0
    4.1967   -5.2906    2.1353 C   0  0  0  0  0  0  0  0  0  0  0  0
    5.3092   -4.8814    3.0496 C   0  0  1  0  0  0  0  0  0  0  0  0
    5.6499   -3.4113    2.8667 C   0  0  0  0  0  0  0  0  0  0  0  0
    5.7875   -2.7504    1.6960 C   0  0  0  0  0  0  0  0  0  0  0  0
    5.6762   -3.1665    0.3157 C   0  0  0  0  0  0  0  0  0  0  0  0
    5.3596   -4.3610   -0.3147 C   0  0  0  0  0  0  0  0  0  0  0  0
    5.3271   -4.0840   -1.6952 C   0  0  0  0  0  0  0  0  0  0  0  0
    5.7323   -2.7890   -1.8605 C   0  0  0  0  0  0  0  0  0  0  0  0
    5.9315   -2.2142   -0.6404 O   0  0  0  0  0  0  0  0  0  0  0  0
    2.1726   -6.7156    2.3025 C   0  0  1  0  0  0  0  0  0  0  0  0
    1.5682   -5.5778    1.6918 O   0  0  0  0  0  0  0  0  0  0  0  0
    1.3610   -7.8649    1.6162 C   0  0  1  0  0  0  0  0  0  0  0  0
    1.8442   -9.2833    2.0165 C   0  0  0  0  0  0  0  0  0  0  0  0
    2.0888   -9.4542    3.5117 C   0  0  0  0  0  0  0  0  0  0  0  0
    2.4116  -10.6473    4.1893 C   0  0  0  0  0  0  0  0  0  0  0  0
    2.6972  -10.5822    5.5689 C   0  0  0  0  0  0  0  0  0  0  0  0
    2.7038   -9.3467    6.2712 C   0  0  0  0  0  0  0  0  0  0  0  0
    3.0022   -9.3123    7.6028 O   0  0  0  0  0  0  0  0  0  0  0  0
    2.4035   -8.1468    5.5989 C   0  0  0  0  0  0  0  0  0  0  0  0
    2.0720   -8.2651    4.2699 C   0  0  0  0  0  0  0  0  0  0  0  0
    1.6858   -6.8989    3.7651 C   0  0  1  0  0  0  0  0  0  0  0  0
    2.1711   -5.9789    4.9596 C   0  0  1  0  0  0  0  0  0  0  0  0
    2.4492   -6.8681    6.0551 O   0  0  0  0  0  0  0  0  0  0  0  0
    0.1436   -6.8781    3.5345 C   0  0  2  0  0  0  0  0  0  0  0  0
   -0.8018   -7.5350    4.5456 C   0  0  0  0  0  0  0  0  0  0  0  0
   -1.8455   -8.2324    3.6810 C   0  0  0  0  0  0  0  0  0  0  0  0
   -1.0858   -8.7214    2.4587 C   0  0  0  0  0  0  0  0  0  0  0  0
   -0.0811   -7.5909    2.1826 C   0  0  2  0  0  0  0  0  0  0  0  0
    5.3673   -4.5864    5.2117 H   0  0  0  0  0  0  0  0  0  0  0  0
    6.4277   -6.5452    5.0891 H   0  0  0  0  0  0  0  0  0  0  0  0
    4.9559   -6.9534    5.8841 H   0  0  0  0  0  0  0  0  0  0  0  0
    6.2099   -8.3275    3.8515 H   0  0  0  0  0  0  0  0  0  0  0  0
    4.6486   -8.6696    4.4103 H   0  0  0  0  0  0  0  0  0  0  0  0
    5.5863   -7.4141    1.8901 H   0  0  0  0  0  0  0  0  0  0  0  0
    4.4344   -8.6185    2.0617 H   0  0  0  0  0  0  0  0  0  0  0  0
    3.5326   -4.4369    2.0455 H   0  0  0  0  0  0  0  0  0  0  0  0
    6.2116   -5.4389    2.8105 H   0  0  0  0  0  0  0  0  0  0  0  0
    5.8005   -2.8484    3.7765 H   0  0  0  0  0  0  0  0  0  0  0  0
    6.0248   -1.7049    1.8199 H   0  0  0  0  0  0  0  0  0  0  0  0
    5.1268   -5.3260    0.1280 H   0  0  0  0  0  0  0  0  0  0  0  0
    5.0573   -4.7874   -2.4758 H   0  0  0  0  0  0  0  0  0  0  0  0
    5.9277   -2.1749   -2.7442 H   0  0  0  0  0  0  0  0  0  0  0  0
    2.0224   -4.8242    2.0046 H   0  0  0  0  0  0  0  0  0  0  0  0
    1.3236   -7.7662    0.5245 H   0  0  0  0  0  0  0  0  0  0  0  0
    1.1303  -10.0250    1.6799 H   0  0  0  0  0  0  0  0  0  0  0  0
    2.7310   -9.5188    1.4392 H   0  0  0  0  0  0  0  0  0  0  0  0
    2.4437  -11.6074    3.6581 H   0  0  0  0  0  0  0  0  0  0  0  0
    2.9105  -11.4887    6.0941 H   0  0  0  0  0  0  0  0  0  0  0  0
    2.9897  -10.1830    7.9667 H   0  0  0  0  0  0  0  0  0  0  0  0
    1.2996   -5.3999    5.2628 H   0  0  0  0  0  0  0  0  0  0  0  0
   -0.1594   -5.8389    3.4256 H   0  0  0  0  0  0  0  0  0  0  0  0
   -0.3056   -8.2788    5.1644 H   0  0  0  0  0  0  0  0  0  0  0  0
   -1.2453   -6.7956    5.2116 H   0  0  0  0  0  0  0  0  0  0  0  0
   -2.3249   -9.0550    4.2030 H   0  0  0  0  0  0  0  0  0  0  0  0
   -2.6133   -7.5240    3.3818 H   0  0  0  0  0  0  0  0  0  0  0  0
   -0.6210   -9.6591    2.7363 H   0  0  0  0  0  0  0  0  0  0  0  0
   -1.7413   -8.9148    1.6104 H   0  0  0  0  0  0  0  0  0  0  0  0
   -0.5805   -6.8863    1.5168 H   0  0  0  0  0  0  0  0  0  0  0  0
  1  2  2  0
  2 29  1  0
  2  3  1  0
  3  9  1  0
  3  4  1  0
  3 36  1  1
  4  5  1  0
  4 37  1  0
  4 38  1  0
  5  6  1  0
  5 39  1  0
  5 40  1  0
  6  7  1  0
  6 41  1  0
  6 42  1  0
  7  8  2  0
  7 17  1  0
  8  9  1  0
  8 43  1  0
  9 10  1  0
  9 44  1  6
 10 11  2  3
 10 45  1  0
 11 12  1  0
 11 46  1  0
 12 16  1  0
 12 13  2  0
 13 14  1  0
 13 47  1  0
 14 15  2  0
 14 48  1  0
 15 16  1  0
 15 49  1  0
 17 28  1  0
 17 18  1  6
 17 19  1  0
 18 50  1  0
 19 35  1  0
 19 20  1  0
 19 51  1  6
 20 21  1  0
 20 52  1  0
 20 53  1  0
 21 27  2  0
 21 22  1  0
 22 23  2  0
 22 54  1  0
 23 24  1  0
 23 55  1  0
 24 25  1  0
 24 26  2  0
 25 56  1  0
 26 30  1  0
 26 27  1  0
 28 27  1  1
 28 29  1  0
 28 31  1  0
 29 30  1  0
 29 57  1  1
 31 35  1  0
 31 32  1  0
 31 58  1  6
 32 33  1  0
 32 59  1  0
 32 60  1  0
 33 34  1  0
 33 61  1  0
 33 62  1  0
 34 35  1  0
 34 63  1  0
 34 64  1  0
 35 65  1  6
M  END
>  <i_m_ct_stereo_status>  (102) 
1

>  <s_m_source_file>  (102) 
/var/tmp/pbs.5076255.sched01/tmp7me73ahx/0ll6f151o.sdf

>  <i_m_source_file_index>  (102) 
42

>  <i_lp_mmshare_version>  (102) 
48012

>  <i_f3d_flags>  (102) 
0

>  <s_epik_input>  (102) 
bzFbY0hdW2NIXVtjSF1jMS9bQ0hdPVtDSF1cW0NASF0oW0NIXT1DMltDQEBdMyhbQ0BAXTQ1NilbT0hdKVtDQEhdKFtDSDJdW0NIMl1bQ0gyXTIpQyg9TylbQ0BASF01T2M3YzRjKFtjSF1bY0hdYzdbT0hdKVtDSDJdW0NASF0zW0NAQEhdOFtDQEhdNltDSDJdW0NIMl1bQ0gyXTg=

>  <s_epik_cmdline>  (102) 
J2VwaWtfcHl0aG9uJywgJy1waHQnLCAnMi4wJywgJy1waCcsICc3LjAnLCAnLXRuJywgJzgnLCAnLW1hJywgJzIwMCcsICctaW1hZScsICc8aW5maWxlLm1hZT4nLCAnLW9tYWUnLCAnPG91dGZpbGUubWFlPic=

>  <r_lp_tautomer_probability>  (102) 
1

>  <r_epik_Ionization_Penalty>  (102) 
0.00207782

>  <r_epik_Ionization_Penalty_Charging>  (102) 
0

>  <r_epik_Ionization_Penalty_Neutral>  (102) 
0.00207782

>  <r_epik_State_Penalty>  (102) 
0.001423

>  <r_epik_Charging_Adjusted_Penalty>  (102) 
0.001423

>  <i_epik_Tot_Q>  (102) 
0

>  <i_epik_Tot_abs_Q>  (102) 
0

>  <s_lp_Force_Field>  (102) 
OPLS3e

>  <r_lp_Energy>  (102) 
116.027

>  <b_lp_Chiralities_Consistent>  (102) 
1

>  <s_lp_Variant>  (102) 
33:0-1

>  <s_i_glide_gridfile>  (102) 
pfpi4k_grid

>  <i_i_glide_lignum>  (102) 
42

>  <i_i_glide_rotatable_bonds>  (102) 
4

>  <r_i_docking_score>  (102) 
-2.48538

>  <r_i_glide_ligand_efficiency>  (102) 
-0.0710108

>  <r_i_glide_ligand_efficiency_sa>  (102) 
-0.232281

>  <r_i_glide_ligand_efficiency_ln>  (102) 
-0.545595

>  <r_i_glide_gscore>  (102) 
-2.48538

>  <r_i_glide_lipo>  (102) 
-0.353459

>  <r_i_glide_hbond>  (102) 
-0.0815583

>  <r_i_glide_metal>  (102) 
-0

>  <r_i_glide_rewards>  (102) 
-0.200753

>  <r_i_glide_evdw>  (102) 
-28.6573

>  <r_i_glide_ecoul>  (102) 
-3.995

>  <r_i_glide_erotb>  (102) 
0.18251

>  <r_i_glide_esite>  (102) 
0

>  <r_i_glide_emodel>  (102) 
-34.9762

>  <r_i_glide_energy>  (102) 
-32.6523

>  <r_i_glide_einternal>  (102) 
2.83519

>  <r_i_glide_intrahb_reward>  (102) 
-0

>  <i_i_glide_confnum>  (102) 
4

>  <i_i_glide_posenum>  (102) 
1

>  <r_i_glide_eff_state_penalty>  (102) 
0

>  <ligand_id>  (102) 
33

>  <original_smiles>  (102) 
O=C1C2CCCC(=CC2C=Cc2ccco2)C2(O)C3Cc4ccc(O)c5c4C2(C1O5)C1CCCC31

>  <smiles>  (102) 
[H]Oc1c([H])c([H])c2c3c1OC1([H])C(=O)C4([H])C([H])(C([H])=C([H])c5oc([H])c([H])c5[H])C([H])=C(C([H])([H])C([H])([H])C4([H])[H])C4(O[H])C([H])(C2([H])[H])C2([H])C([H])([H])C([H])([H])C([H])([H])C2([H])C314

$$$$
33:0:1
     RDKit          3D

 65 72  0  0  1  0  0  0  0  0999 V2000
    6.2518   -6.5222    3.5625 O   0  0  0  0  0  0  0  0  0  0  0  0
    5.1736   -5.9495    3.4098 C   0  0  0  0  0  0  0  0  0  0  0  0
    3.8672   -6.8034    3.5146 C   0  0  1  0  0  0  0  0  0  0  0  0
    2.5462   -6.0902    3.8911 C   0  0  0  0  0  0  0  0  0  0  0  0
    1.6677   -5.4575    2.7790 C   0  0  0  0  0  0  0  0  0  0  0  0
    1.9880   -5.7157    1.2828 C   0  0  0  0  0  0  0  0  0  0  0  0
    3.4431   -5.8965    0.8351 C   0  0  0  0  0  0  0  0  0  0  0  0
    3.9977   -7.1094    1.0546 C   0  0  0  0  0  0  0  0  0  0  0  0
    3.6483   -7.8122    2.3427 C   0  0  1  0  0  0  0  0  0  0  0  0
    4.4700   -9.0861    2.5122 C   0  0  0  0  0  0  0  0  0  0  0  0
    4.0017  -10.2747    2.9396 C   0  0  0  0  0  0  0  0  0  0  0  0
    2.6764  -10.6689    3.2956 C   0  0  0  0  0  0  0  0  0  0  0  0
    1.4205  -10.2302    2.9600 C   0  0  0  0  0  0  0  0  0  0  0  0
    0.5017  -10.9862    3.7169 C   0  0  0  0  0  0  0  0  0  0  0  0
    1.2492  -11.8486    4.4640 C   0  0  0  0  0  0  0  0  0  0  0  0
    2.5746  -11.6638    4.2247 O   0  0  0  0  0  0  0  0  0  0  0  0
    4.3913   -4.7082    0.5048 C   0  0  1  0  0  0  0  0  0  0  0  0
    5.5793   -5.2705   -0.0276 O   0  0  0  0  0  0  0  0  0  0  0  0
    4.0618   -3.5670   -0.5184 C   0  0  1  0  0  0  0  0  0  0  0  0
    2.7707   -2.8044   -0.1732 C   0  0  0  0  0  0  0  0  0  0  0  0
    2.6338   -2.4008    1.2997 C   0  0  0  0  0  0  0  0  0  0  0  0
    1.6562   -1.5824    1.9053 C   0  0  0  0  0  0  0  0  0  0  0  0
    1.6355   -1.4220    3.3140 C   0  0  0  0  0  0  0  0  0  0  0  0
    2.5822   -2.0826    4.1308 C   0  0  0  0  0  0  0  0  0  0  0  0
    2.5167   -1.9515    5.4881 O   0  0  0  0  0  0  0  0  0  0  0  0
    3.5706   -2.9003    3.5457 C   0  0  0  0  0  0  0  0  0  0  0  0
    3.5690   -2.9862    2.1655 C   0  0  0  0  0  0  0  0  0  0  0  0
    4.7463   -3.8194    1.7353 C   0  0  1  0  0  0  0  0  0  0  0  0
    5.1904   -4.4153    3.1298 C   0  0  1  0  0  0  0  0  0  0  0  0
    4.4955   -3.6969    4.1620 O   0  0  0  0  0  0  0  0  0  0  0  0
    5.8030   -2.8565    1.1009 C   0  0  2  0  0  0  0  0  0  0  0  0
    6.0606   -1.4618    1.7017 C   0  0  0  0  0  0  0  0  0  0  0  0
    6.1905   -0.5546    0.4936 C   0  0  0  0  0  0  0  0  0  0  0  0
    5.1970   -1.0915   -0.5191 C   0  0  0  0  0  0  0  0  0  0  0  0
    5.3043   -2.6221   -0.3447 C   0  0  2  0  0  0  0  0  0  0  0  0
    4.0672   -7.4168    4.3943 H   0  0  0  0  0  0  0  0  0  0  0  0
    1.9243   -6.8364    4.3894 H   0  0  0  0  0  0  0  0  0  0  0  0
    2.7231   -5.3519    4.6716 H   0  0  0  0  0  0  0  0  0  0  0  0
    0.6543   -5.8313    2.9384 H   0  0  0  0  0  0  0  0  0  0  0  0
    1.5382   -4.3974    2.9664 H   0  0  0  0  0  0  0  0  0  0  0  0
    1.4786   -6.6443    1.0090 H   0  0  0  0  0  0  0  0  0  0  0  0
    1.4839   -4.9963    0.6646 H   0  0  0  0  0  0  0  0  0  0  0  0
    5.0146   -7.3376    0.7752 H   0  0  0  0  0  0  0  0  0  0  0  0
    2.5921   -8.0499    2.3041 H   0  0  0  0  0  0  0  0  0  0  0  0
    5.5215   -9.0152    2.2843 H   0  0  0  0  0  0  0  0  0  0  0  0
    4.7282  -11.0726    3.0211 H   0  0  0  0  0  0  0  0  0  0  0  0
    1.1550   -9.4725    2.2364 H   0  0  0  0  0  0  0  0  0  0  0  0
   -0.5754  -10.9149    3.6897 H   0  0  0  0  0  0  0  0  0  0  0  0
    1.0008  -12.6189    5.1789 H   0  0  0  0  0  0  0  0  0  0  0  0
    5.3520   -5.6293   -0.8739 H   0  0  0  0  0  0  0  0  0  0  0  0
    4.0067   -3.9217   -1.5490 H   0  0  0  0  0  0  0  0  0  0  0  0
    2.6875   -1.9206   -0.7960 H   0  0  0  0  0  0  0  0  0  0  0  0
    1.9174   -3.3894   -0.4891 H   0  0  0  0  0  0  0  0  0  0  0  0
    0.9004   -1.1120    1.2942 H   0  0  0  0  0  0  0  0  0  0  0  0
    0.8733   -0.8102    3.7662 H   0  0  0  0  0  0  0  0  0  0  0  0
    3.2201   -2.4122    5.9199 H   0  0  0  0  0  0  0  0  0  0  0  0
    6.2191   -4.1292    3.2598 H   0  0  0  0  0  0  0  0  0  0  0  0
    6.7663   -3.3678    1.0424 H   0  0  0  0  0  0  0  0  0  0  0  0
    5.2601   -1.1067    2.3512 H   0  0  0  0  0  0  0  0  0  0  0  0
    6.9778   -1.4159    2.2781 H   0  0  0  0  0  0  0  0  0  0  0  0
    5.9816    0.4813    0.7567 H   0  0  0  0  0  0  0  0  0  0  0  0
    7.2104   -0.6169    0.1091 H   0  0  0  0  0  0  0  0  0  0  0  0
    4.2345   -0.6689   -0.2364 H   0  0  0  0  0  0  0  0  0  0  0  0
    5.4182   -0.7538   -1.5318 H   0  0  0  0  0  0  0  0  0  0  0  0
    6.0971   -2.9484   -1.0160 H   0  0  0  0  0  0  0  0  0  0  0  0
  1  2  2  0
  2 29  1  0
  2  3  1  0
  3  9  1  0
  3  4  1  0
  3 36  1  1
  4  5  1  0
  4 37  1  0
  4 38  1  0
  5  6  1  0
  5 39  1  0
  5 40  1  0
  6  7  1  0
  6 41  1  0
  6 42  1  0
  7  8  2  0
  7 17  1  0
  8  9  1  0
  8 43  1  0
  9 10  1  0
  9 44  1  6
 10 11  2  3
 10 45  1  0
 11 12  1  0
 11 46  1  0
 12 16  1  0
 12 13  2  0
 13 14  1  0
 13 47  1  0
 14 15  2  0
 14 48  1  0
 15 16  1  0
 15 49  1  0
 17 28  1  0
 17 18  1  6
 17 19  1  0
 18 50  1  0
 19 35  1  0
 19 20  1  0
 19 51  1  6
 20 21  1  0
 20 52  1  0
 20 53  1  0
 21 27  2  0
 21 22  1  0
 22 23  2  0
 22 54  1  0
 23 24  1  0
 23 55  1  0
 24 25  1  0
 24 26  2  0
 25 56  1  0
 26 30  1  0
 26 27  1  0
 28 27  1  1
 28 29  1  0
 28 31  1  0
 29 30  1  0
 29 57  1  1
 31 35  1  0
 31 32  1  0
 31 58  1  6
 32 33  1  0
 32 59  1  0
 32 60  1  0
 33 34  1  0
 33 61  1  0
 33 62  1  0
 34 35  1  0
 34 63  1  0
 34 64  1  0
 35 65  1  6
M  END
>  <i_m_ct_stereo_status>  (103) 
1

>  <s_m_source_file>  (103) 
/var/tmp/pbs.5076255.sched01/tmp7me73ahx/0ll6f151o.sdf

>  <i_m_source_file_index>  (103) 
42

>  <i_lp_mmshare_version>  (103) 
48012

>  <i_f3d_flags>  (103) 
0

>  <s_epik_input>  (103) 
bzFbY0hdW2NIXVtjSF1jMS9bQ0hdPVtDSF1cW0NASF0oW0NIXT1DMltDQEBdMyhbQ0BAXTQ1NilbT0hdKVtDQEhdKFtDSDJdW0NIMl1bQ0gyXTIpQyg9TylbQ0BASF01T2M3YzRjKFtjSF1bY0hdYzdbT0hdKVtDSDJdW0NASF0zW0NAQEhdOFtDQEhdNltDSDJdW0NIMl1bQ0gyXTg=

>  <s_epik_cmdline>  (103) 
J2VwaWtfcHl0aG9uJywgJy1waHQnLCAnMi4wJywgJy1waCcsICc3LjAnLCAnLXRuJywgJzgnLCAnLW1hJywgJzIwMCcsICctaW1hZScsICc8aW5maWxlLm1hZT4nLCAnLW9tYWUnLCAnPG91dGZpbGUubWFlPic=

>  <r_lp_tautomer_probability>  (103) 
1

>  <r_epik_Ionization_Penalty>  (103) 
0.00207782

>  <r_epik_Ionization_Penalty_Charging>  (103) 
0

>  <r_epik_Ionization_Penalty_Neutral>  (103) 
0.00207782

>  <r_epik_State_Penalty>  (103) 
0.001423

>  <r_epik_Charging_Adjusted_Penalty>  (103) 
0.001423

>  <i_epik_Tot_Q>  (103) 
0

>  <i_epik_Tot_abs_Q>  (103) 
0

>  <s_lp_Force_Field>  (103) 
OPLS3e

>  <r_lp_Energy>  (103) 
116.027

>  <b_lp_Chiralities_Consistent>  (103) 
1

>  <s_lp_Variant>  (103) 
33:0-1

>  <s_i_glide_gridfile>  (103) 
pfpi4k_grid

>  <i_i_glide_lignum>  (103) 
42

>  <i_i_glide_rotatable_bonds>  (103) 
4

>  <r_i_docking_score>  (103) 
-1.99839

>  <r_i_glide_ligand_efficiency>  (103) 
-0.0570968

>  <r_i_glide_ligand_efficiency_sa>  (103) 
-0.186767

>  <r_i_glide_ligand_efficiency_ln>  (103) 
-0.43869

>  <r_i_glide_gscore>  (103) 
-1.99839

>  <r_i_glide_lipo>  (103) 
-0.690498

>  <r_i_glide_hbond>  (103) 
0

>  <r_i_glide_metal>  (103) 
-0

>  <r_i_glide_rewards>  (103) 
-0.200999

>  <r_i_glide_evdw>  (103) 
-22.639

>  <r_i_glide_ecoul>  (103) 
-1.04966

>  <r_i_glide_erotb>  (103) 
0.18251

>  <r_i_glide_esite>  (103) 
0

>  <r_i_glide_emodel>  (103) 
-26.823

>  <r_i_glide_energy>  (103) 
-23.6887

>  <r_i_glide_einternal>  (103) 
2.03341

>  <r_i_glide_intrahb_reward>  (103) 
-0

>  <i_i_glide_confnum>  (103) 
4

>  <i_i_glide_posenum>  (103) 
3

>  <r_i_glide_eff_state_penalty>  (103) 
0

>  <ligand_id>  (103) 
33

>  <original_smiles>  (103) 
O=C1C2CCCC(=CC2C=Cc2ccco2)C2(O)C3Cc4ccc(O)c5c4C2(C1O5)C1CCCC31

>  <smiles>  (103) 
[H]Oc1c([H])c([H])c2c3c1OC1([H])C(=O)C4([H])C([H])(C([H])=C([H])c5oc([H])c([H])c5[H])C([H])=C(C([H])([H])C([H])([H])C4([H])[H])C4(O[H])C([H])(C2([H])[H])C2([H])C([H])([H])C([H])([H])C([H])([H])C2([H])C314

$$$$
33:0:2
     RDKit          3D

 65 72  0  0  1  0  0  0  0  0999 V2000
    4.8791   -5.8515    6.9655 O   0  0  0  0  0  0  0  0  0  0  0  0
    3.8156   -5.3993    6.5413 C   0  0  0  0  0  0  0  0  0  0  0  0
    2.7034   -6.4220    6.1168 C   0  0  1  0  0  0  0  0  0  0  0  0
    1.2274   -5.9574    6.1238 C   0  0  0  0  0  0  0  0  0  0  0  0
    0.6264   -5.2718    4.8674 C   0  0  0  0  0  0  0  0  0  0  0  0
    1.4202   -5.2154    3.5362 C   0  0  0  0  0  0  0  0  0  0  0  0
    2.9565   -5.1400    3.5638 C   0  0  0  0  0  0  0  0  0  0  0  0
    3.6159   -6.2935    3.8155 C   0  0  0  0  0  0  0  0  0  0  0  0
    3.0176   -7.2433    4.8259 C   0  0  1  0  0  0  0  0  0  0  0  0
    3.9502   -8.4230    5.0817 C   0  0  0  0  0  0  0  0  0  0  0  0
    3.7185   -9.7242    4.8032 C   0  0  0  0  0  0  0  0  0  0  0  0
    2.6052  -10.3994    4.1995 C   0  0  0  0  0  0  0  0  0  0  0  0
    2.3948  -11.7152    3.8756 C   0  0  0  0  0  0  0  0  0  0  0  0
    1.1030  -11.7879    3.2806 C   0  0  0  0  0  0  0  0  0  0  0  0
    0.6151  -10.5154    3.2826 C   0  0  0  0  0  0  0  0  0  0  0  0
    1.5183   -9.6663    3.8331 O   0  0  0  0  0  0  0  0  0  0  0  0
    3.7509   -3.8061    3.6877 C   0  0  1  0  0  0  0  0  0  0  0  0
    5.1299   -4.1195    3.4931 O   0  0  0  0  0  0  0  0  0  0  0  0
    3.5376   -2.5580    2.7600 C   0  0  1  0  0  0  0  0  0  0  0  0
    2.0818   -2.0381    2.7417 C   0  0  0  0  0  0  0  0  0  0  0  0
    1.4376   -1.9292    4.1214 C   0  0  0  0  0  0  0  0  0  0  0  0
    0.1887   -1.3719    4.4587 C   0  0  0  0  0  0  0  0  0  0  0  0
   -0.2745   -1.4355    5.7975 C   0  0  0  0  0  0  0  0  0  0  0  0
    0.4845   -2.0846    6.8029 C   0  0  0  0  0  0  0  0  0  0  0  0
   -0.0033   -2.1792    8.0762 O   0  0  0  0  0  0  0  0  0  0  0  0
    1.7369   -2.6547    6.4844 C   0  0  0  0  0  0  0  0  0  0  0  0
    2.1668   -2.5119    5.1758 C   0  0  0  0  0  0  0  0  0  0  0  0
    3.5552   -3.0966    5.0693 C   0  0  1  0  0  0  0  0  0  0  0  0
    3.6635   -3.8480    6.4642 C   0  0  1  0  0  0  0  0  0  0  0  0
    2.5639   -3.3983    7.2809 O   0  0  0  0  0  0  0  0  0  0  0  0
    4.5699   -1.9159    4.9325 C   0  0  2  0  0  0  0  0  0  0  0  0
    4.4060   -0.6262    5.7639 C   0  0  0  0  0  0  0  0  0  0  0  0
    4.7214    0.5057    4.7857 C   0  0  0  0  0  0  0  0  0  0  0  0
    4.1812    0.0090    3.4433 C   0  0  0  0  0  0  0  0  0  0  0  0
    4.4882   -1.5054    3.4454 C   0  0  2  0  0  0  0  0  0  0  0  0
    2.7337   -7.1440    6.9329 H   0  0  0  0  0  0  0  0  0  0  0  0
    0.6271   -6.8517    6.3016 H   0  0  0  0  0  0  0  0  0  0  0  0
    1.0272   -5.3442    7.0001 H   0  0  0  0  0  0  0  0  0  0  0  0
   -0.3031   -5.7982    4.6395 H   0  0  0  0  0  0  0  0  0  0  0  0
    0.2558   -4.2858    5.1244 H   0  0  0  0  0  0  0  0  0  0  0  0
    1.1897   -6.1428    3.0052 H   0  0  0  0  0  0  0  0  0  0  0  0
    0.9839   -4.4721    2.8883 H   0  0  0  0  0  0  0  0  0  0  0  0
    4.6936   -6.3473    3.8522 H   0  0  0  0  0  0  0  0  0  0  0  0
    2.0745   -7.5916    4.4306 H   0  0  0  0  0  0  0  0  0  0  0  0
    4.8957   -8.1780    5.5426 H   0  0  0  0  0  0  0  0  0  0  0  0
    4.5155  -10.3990    5.0813 H   0  0  0  0  0  0  0  0  0  0  0  0
    3.0848  -12.5289    4.0397 H   0  0  0  0  0  0  0  0  0  0  0  0
    0.5989  -12.6545    2.8892 H   0  0  0  0  0  0  0  0  0  0  0  0
   -0.3012  -10.0535    2.9477 H   0  0  0  0  0  0  0  0  0  0  0  0
    5.2457   -4.3764    2.5911 H   0  0  0  0  0  0  0  0  0  0  0  0
    3.8597   -2.7456    1.7359 H   0  0  0  0  0  0  0  0  0  0  0  0
    2.0160   -1.0782    2.2366 H   0  0  0  0  0  0  0  0  0  0  0  0
    1.4785   -2.6729    2.1053 H   0  0  0  0  0  0  0  0  0  0  0  0
   -0.4142   -0.9070    3.6948 H   0  0  0  0  0  0  0  0  0  0  0  0
   -1.2237   -0.9942    6.0439 H   0  0  0  0  0  0  0  0  0  0  0  0
    0.6346   -2.5592    8.6646 H   0  0  0  0  0  0  0  0  0  0  0  0
    4.5530   -3.4597    6.9629 H   0  0  0  0  0  0  0  0  0  0  0  0
    5.5779   -2.2904    5.1213 H   0  0  0  0  0  0  0  0  0  0  0  0
    3.3949   -0.4932    6.1443 H   0  0  0  0  0  0  0  0  0  0  0  0
    5.0740   -0.6121    6.6260 H   0  0  0  0  0  0  0  0  0  0  0  0
    4.2734    1.4522    5.0894 H   0  0  0  0  0  0  0  0  0  0  0  0
    5.7999    0.6536    4.7189 H   0  0  0  0  0  0  0  0  0  0  0  0
    3.1196    0.2409    3.4286 H   0  0  0  0  0  0  0  0  0  0  0  0
    4.6357    0.5236    2.5972 H   0  0  0  0  0  0  0  0  0  0  0  0
    5.4870   -1.6151    3.0221 H   0  0  0  0  0  0  0  0  0  0  0  0
  1  2  2  0
  2 29  1  0
  2  3  1  0
  3  9  1  0
  3  4  1  0
  3 36  1  1
  4  5  1  0
  4 37  1  0
  4 38  1  0
  5  6  1  0
  5 39  1  0
  5 40  1  0
  6  7  1  0
  6 41  1  0
  6 42  1  0
  7  8  2  0
  7 17  1  0
  8  9  1  0
  8 43  1  0
  9 10  1  0
  9 44  1  6
 10 11  2  3
 10 45  1  0
 11 12  1  0
 11 46  1  0
 12 16  1  0
 12 13  2  0
 13 14  1  0
 13 47  1  0
 14 15  2  0
 14 48  1  0
 15 16  1  0
 15 49  1  0
 17 28  1  0
 17 18  1  1
 17 19  1  0
 18 50  1  0
 19 35  1  0
 19 20  1  0
 19 51  1  6
 20 21  1  0
 20 52  1  0
 20 53  1  0
 21 27  2  0
 21 22  1  0
 22 23  2  0
 22 54  1  0
 23 24  1  0
 23 55  1  0
 24 25  1  0
 24 26  2  0
 25 56  1  0
 26 30  1  0
 26 27  1  0
 28 27  1  6
 28 29  1  0
 28 31  1  0
 29 30  1  0
 29 57  1  1
 31 35  1  0
 31 32  1  0
 31 58  1  6
 32 33  1  0
 32 59  1  0
 32 60  1  0
 33 34  1  0
 33 61  1  0
 33 62  1  0
 34 35  1  0
 34 63  1  0
 34 64  1  0
 35 65  1  6
M  END
>  <i_m_ct_stereo_status>  (104) 
1

>  <s_m_source_file>  (104) 
/var/tmp/pbs.5076255.sched01/tmp7me73ahx/0ll6f151o.sdf

>  <i_m_source_file_index>  (104) 
42

>  <i_lp_mmshare_version>  (104) 
48012

>  <i_f3d_flags>  (104) 
0

>  <s_epik_input>  (104) 
bzFbY0hdW2NIXVtjSF1jMS9bQ0hdPVtDSF1cW0NASF0oW0NIXT1DMltDQEBdMyhbQ0BAXTQ1NilbT0hdKVtDQEhdKFtDSDJdW0NIMl1bQ0gyXTIpQyg9TylbQ0BASF01T2M3YzRjKFtjSF1bY0hdYzdbT0hdKVtDSDJdW0NASF0zW0NAQEhdOFtDQEhdNltDSDJdW0NIMl1bQ0gyXTg=

>  <s_epik_cmdline>  (104) 
J2VwaWtfcHl0aG9uJywgJy1waHQnLCAnMi4wJywgJy1waCcsICc3LjAnLCAnLXRuJywgJzgnLCAnLW1hJywgJzIwMCcsICctaW1hZScsICc8aW5maWxlLm1hZT4nLCAnLW9tYWUnLCAnPG91dGZpbGUubWFlPic=

>  <r_lp_tautomer_probability>  (104) 
1

>  <r_epik_Ionization_Penalty>  (104) 
0.00207782

>  <r_epik_Ionization_Penalty_Charging>  (104) 
0

>  <r_epik_Ionization_Penalty_Neutral>  (104) 
0.00207782

>  <r_epik_State_Penalty>  (104) 
0.001423

>  <r_epik_Charging_Adjusted_Penalty>  (104) 
0.001423

>  <i_epik_Tot_Q>  (104) 
0

>  <i_epik_Tot_abs_Q>  (104) 
0

>  <s_lp_Force_Field>  (104) 
OPLS3e

>  <r_lp_Energy>  (104) 
116.027

>  <b_lp_Chiralities_Consistent>  (104) 
1

>  <s_lp_Variant>  (104) 
33:0-1

>  <s_i_glide_gridfile>  (104) 
pfpi4k_grid

>  <i_i_glide_lignum>  (104) 
42

>  <i_i_glide_rotatable_bonds>  (104) 
4

>  <r_i_docking_score>  (104) 
-1.77713

>  <r_i_glide_ligand_efficiency>  (104) 
-0.0507751

>  <r_i_glide_ligand_efficiency_sa>  (104) 
-0.166089

>  <r_i_glide_ligand_efficiency_ln>  (104) 
-0.390119

>  <r_i_glide_gscore>  (104) 
-1.77713

>  <r_i_glide_lipo>  (104) 
-0.219015

>  <r_i_glide_hbond>  (104) 
0

>  <r_i_glide_metal>  (104) 
-0

>  <r_i_glide_rewards>  (104) 
-0.200753

>  <r_i_glide_evdw>  (104) 
-21.6541

>  <r_i_glide_ecoul>  (104) 
-3.04777

>  <r_i_glide_erotb>  (104) 
0.18251

>  <r_i_glide_esite>  (104) 
0

>  <r_i_glide_emodel>  (104) 
-28.4067

>  <r_i_glide_energy>  (104) 
-24.7018

>  <r_i_glide_einternal>  (104) 
0.0658754

>  <r_i_glide_intrahb_reward>  (104) 
-0

>  <i_i_glide_confnum>  (104) 
4

>  <i_i_glide_posenum>  (104) 
14

>  <r_i_glide_eff_state_penalty>  (104) 
0

>  <ligand_id>  (104) 
33

>  <original_smiles>  (104) 
O=C1C2CCCC(=CC2C=Cc2ccco2)C2(O)C3Cc4ccc(O)c5c4C2(C1O5)C1CCCC31

>  <smiles>  (104) 
[H]Oc1c([H])c([H])c2c3c1OC1([H])C(=O)C4([H])C([H])(C([H])=C([H])c5oc([H])c([H])c5[H])C([H])=C(C([H])([H])C([H])([H])C4([H])[H])C4(O[H])C([H])(C2([H])[H])C2([H])C([H])([H])C([H])([H])C([H])([H])C2([H])C314

$$$$
33:1:0
     RDKit          3D

 65 72  0  0  1  0  0  0  0  0999 V2000
    0.0632    1.3348    2.1196 O   0  0  0  0  0  0  0  0  0  0  0  0
    0.6033    2.1365    2.8810 C   0  0  0  0  0  0  0  0  0  0  0  0
    2.1559    2.3379    2.7562 C   0  0  1  0  0  0  0  0  0  0  0  0
    2.7685    3.6401    3.3285 C   0  0  0  0  0  0  0  0  0  0  0  0
    3.2176    3.6991    4.8114 C   0  0  0  0  0  0  0  0  0  0  0  0
    3.2200    2.4201    5.6840 C   0  0  0  0  0  0  0  0  0  0  0  0
    2.1813    1.3189    5.4209 C   0  0  0  0  0  0  0  0  0  0  0  0
    2.4298    0.4877    4.3822 C   0  0  0  0  0  0  0  0  0  0  0  0
    3.0166    1.0744    3.1147 C   0  0  1  0  0  0  0  0  0  0  0  0
    3.0191    0.0418    1.9942 C   0  0  0  0  0  0  0  0  0  0  0  0
    4.1083   -0.3311    1.2935 C   0  0  0  0  0  0  0  0  0  0  0  0
    4.1807   -1.3010    0.2472 C   0  0  0  0  0  0  0  0  0  0  0  0
    3.2691   -2.1825   -0.2654 C   0  0  0  0  0  0  0  0  0  0  0  0
    3.9186   -2.8774   -1.3224 C   0  0  0  0  0  0  0  0  0  0  0  0
    5.1817   -2.3679   -1.3853 C   0  0  0  0  0  0  0  0  0  0  0  0
    5.3598   -1.4008   -0.4378 O   0  0  0  0  0  0  0  0  0  0  0  0
    0.7475    1.3276    6.0340 C   0  0  1  0  0  0  0  0  0  0  0  0
    0.1495    0.0578    5.7500 O   0  0  0  0  0  0  0  0  0  0  0  0
    0.4406    1.5068    7.5633 C   0  0  1  0  0  0  0  0  0  0  0  0
    1.0333    2.7921    8.1787 C   0  0  0  0  0  0  0  0  0  0  0  0
    0.8068    4.0443    7.3400 C   0  0  0  0  0  0  0  0  0  0  0  0
    1.0929    5.3824    7.6768 C   0  0  0  0  0  0  0  0  0  0  0  0
    0.8806    6.4048    6.7156 C   0  0  0  0  0  0  0  0  0  0  0  0
    0.4270    6.0985    5.4081 C   0  0  0  0  0  0  0  0  0  0  0  0
    0.2717    7.1029    4.4990 O   0  0  0  0  0  0  0  0  0  0  0  0
    0.1425    4.7662    5.0501 C   0  0  0  0  0  0  0  0  0  0  0  0
    0.3034    3.8158    6.0429 C   0  0  0  0  0  0  0  0  0  0  0  0
   -0.1531    2.4861    5.4915 C   0  0  1  0  0  0  0  0  0  0  0  0
   -0.2969    2.8380    3.9482 C   0  0  1  0  0  0  0  0  0  0  0  0
   -0.2298    4.2710    3.8325 O   0  0  0  0  0  0  0  0  0  0  0  0
   -1.5187    2.1273    6.1615 C   0  0  2  0  0  0  0  0  0  0  0  0
   -2.5844    3.2094    6.3933 C   0  0  0  0  0  0  0  0  0  0  0  0
   -3.1295    2.9277    7.7874 C   0  0  0  0  0  0  0  0  0  0  0  0
   -1.9278    2.4168    8.5803 C   0  0  0  0  0  0  0  0  0  0  0  0
   -1.1311    1.5810    7.5523 C   0  0  2  0  0  0  0  0  0  0  0  0
    2.2696    2.4704    1.6800 H   0  0  0  0  0  0  0  0  0  0  0  0
    3.6587    3.8462    2.7386 H   0  0  0  0  0  0  0  0  0  0  0  0
    2.1385    4.4967    3.0960 H   0  0  0  0  0  0  0  0  0  0  0  0
    4.2471    4.0657    4.8174 H   0  0  0  0  0  0  0  0  0  0  0  0
    2.7034    4.5065    5.3213 H   0  0  0  0  0  0  0  0  0  0  0  0
    4.1887    1.9412    5.5214 H   0  0  0  0  0  0  0  0  0  0  0  0
    3.2840    2.6934    6.7257 H   0  0  0  0  0  0  0  0  0  0  0  0
    1.7680   -0.3228    4.1270 H   0  0  0  0  0  0  0  0  0  0  0  0
    4.0524    1.3535    3.3084 H   0  0  0  0  0  0  0  0  0  0  0  0
    2.0658   -0.4094    1.7534 H   0  0  0  0  0  0  0  0  0  0  0  0
    5.0491    0.1368    1.5371 H   0  0  0  0  0  0  0  0  0  0  0  0
    2.2533   -2.2949    0.0847 H   0  0  0  0  0  0  0  0  0  0  0  0
    3.5122   -3.6505   -1.9608 H   0  0  0  0  0  0  0  0  0  0  0  0
    6.0373   -2.5729   -2.0151 H   0  0  0  0  0  0  0  0  0  0  0  0
    0.1772   -0.0835    4.8172 H   0  0  0  0  0  0  0  0  0  0  0  0
    0.7708    0.6480    8.1432 H   0  0  0  0  0  0  0  0  0  0  0  0
    0.6451    2.9605    9.1801 H   0  0  0  0  0  0  0  0  0  0  0  0
    2.0925    2.6567    8.3585 H   0  0  0  0  0  0  0  0  0  0  0  0
    1.4865    5.6279    8.6529 H   0  0  0  0  0  0  0  0  0  0  0  0
    1.0918    7.4272    6.9736 H   0  0  0  0  0  0  0  0  0  0  0  0
    0.2476    6.8607    3.5791 H   0  0  0  0  0  0  0  0  0  0  0  0
   -1.3186    2.5880    3.6556 H   0  0  0  0  0  0  0  0  0  0  0  0
   -1.9976    1.3235    5.5983 H   0  0  0  0  0  0  0  0  0  0  0  0
   -2.1595    4.2036    6.3801 H   0  0  0  0  0  0  0  0  0  0  0  0
   -3.3727    3.1766    5.6390 H   0  0  0  0  0  0  0  0  0  0  0  0
   -3.5936    3.7962    8.2555 H   0  0  0  0  0  0  0  0  0  0  0  0
   -3.8816    2.1489    7.6914 H   0  0  0  0  0  0  0  0  0  0  0  0
   -1.3998    3.2971    8.9390 H   0  0  0  0  0  0  0  0  0  0  0  0
   -2.2233    1.8381    9.4563 H   0  0  0  0  0  0  0  0  0  0  0  0
   -1.5136    0.5653    7.6146 H   0  0  0  0  0  0  0  0  0  0  0  0
  1  2  2  0
  2 29  1  0
  2  3  1  0
  3  9  1  0
  3  4  1  0
  3 36  1  6
  4  5  1  0
  4 37  1  0
  4 38  1  0
  5  6  1  0
  5 39  1  0
  5 40  1  0
  6  7  1  0
  6 41  1  0
  6 42  1  0
  7  8  2  0
  7 17  1  0
  8  9  1  0
  8 43  1  0
  9 10  1  0
  9 44  1  1
 10 11  2  3
 10 45  1  0
 11 12  1  0
 11 46  1  0
 12 16  1  0
 12 13  2  0
 13 14  1  0
 13 47  1  0
 14 15  2  0
 14 48  1  0
 15 16  1  0
 15 49  1  0
 17 28  1  0
 17 18  1  6
 17 19  1  0
 18 50  1  0
 19 35  1  0
 19 20  1  0
 19 51  1  1
 20 21  1  0
 20 52  1  0
 20 53  1  0
 21 27  2  0
 21 22  1  0
 22 23  2  0
 22 54  1  0
 23 24  1  0
 23 55  1  0
 24 25  1  0
 24 26  2  0
 25 56  1  0
 26 30  1  0
 26 27  1  0
 28 27  1  1
 28 29  1  0
 28 31  1  0
 29 30  1  0
 29 57  1  6
 31 35  1  0
 31 32  1  0
 31 58  1  6
 32 33  1  0
 32 59  1  0
 32 60  1  0
 33 34  1  0
 33 61  1  0
 33 62  1  0
 34 35  1  0
 34 63  1  0
 34 64  1  0
 35 65  1  6
M  END
>  <i_m_ct_stereo_status>  (105) 
1

>  <s_m_source_file>  (105) 
/var/tmp/pbs.5076255.sched01/tmp7me73ahx/0ll6f151o.sdf

>  <i_m_source_file_index>  (105) 
43

>  <i_lp_mmshare_version>  (105) 
48012

>  <i_f3d_flags>  (105) 
0

>  <s_epik_input>  (105) 
bzFbY0hdW2NIXVtjSF1jMS9bQ0hdPVtDSF1cW0NASF0oW0NIXT1DMltDQEBdMyhbQ0BAXTQ1NilbT0hdKVtDQEhdKFtDSDJdW0NIMl1bQ0gyXTIpQyg9TylbQ0BASF01T2M3YzRjKFtjSF1bY0hdYzdbT0hdKVtDSDJdW0NASF0zW0NAQEhdOFtDQEhdNltDSDJdW0NIMl1bQ0gyXTg=

>  <s_epik_cmdline>  (105) 
J2VwaWtfcHl0aG9uJywgJy1waHQnLCAnMi4wJywgJy1waCcsICc3LjAnLCAnLXRuJywgJzgnLCAnLW1hJywgJzIwMCcsICctaW1hZScsICc8aW5maWxlLm1hZT4nLCAnLW9tYWUnLCAnPG91dGZpbGUubWFlPic=

>  <r_lp_tautomer_probability>  (105) 
1

>  <r_epik_Ionization_Penalty>  (105) 
0.00207782

>  <r_epik_Ionization_Penalty_Charging>  (105) 
0

>  <r_epik_Ionization_Penalty_Neutral>  (105) 
0.00207782

>  <r_epik_State_Penalty>  (105) 
0.001423

>  <r_epik_Charging_Adjusted_Penalty>  (105) 
0.001423

>  <i_epik_Tot_Q>  (105) 
0

>  <i_epik_Tot_abs_Q>  (105) 
0

>  <s_lp_Force_Field>  (105) 
OPLS3e

>  <r_lp_Energy>  (105) 
116.761

>  <b_lp_Chiralities_Consistent>  (105) 
1

>  <s_lp_Variant>  (105) 
33:0-2

>  <s_i_glide_gridfile>  (105) 
pfpi4k_grid

>  <i_i_glide_lignum>  (105) 
43

>  <i_i_glide_rotatable_bonds>  (105) 
4

>  <r_i_docking_score>  (105) 
-2.38028

>  <r_i_glide_ligand_efficiency>  (105) 
-0.068008

>  <r_i_glide_ligand_efficiency_sa>  (105) 
-0.222459

>  <r_i_glide_ligand_efficiency_ln>  (105) 
-0.522525

>  <r_i_glide_gscore>  (105) 
-2.38028

>  <r_i_glide_lipo>  (105) 
-0.361736

>  <r_i_glide_hbond>  (105) 
0

>  <r_i_glide_metal>  (105) 
-0

>  <r_i_glide_rewards>  (105) 
-0.200753

>  <r_i_glide_evdw>  (105) 
-28.6702

>  <r_i_glide_ecoul>  (105) 
-3.30102

>  <r_i_glide_erotb>  (105) 
0.18251

>  <r_i_glide_esite>  (105) 
-0.0716376

>  <r_i_glide_emodel>  (105) 
-36.7027

>  <r_i_glide_energy>  (105) 
-31.9713

>  <r_i_glide_einternal>  (105) 
0.63876

>  <r_i_glide_intrahb_reward>  (105) 
-0

>  <i_i_glide_confnum>  (105) 
1

>  <i_i_glide_posenum>  (105) 
2

>  <r_i_glide_eff_state_penalty>  (105) 
0

>  <ligand_id>  (105) 
33

>  <original_smiles>  (105) 
O=C1C2CCCC(=CC2C=Cc2ccco2)C2(O)C3Cc4ccc(O)c5c4C2(C1O5)C1CCCC31

>  <smiles>  (105) 
[H]Oc1c([H])c([H])c2c3c1OC1([H])C(=O)C4([H])C([H])(C([H])=C([H])c5oc([H])c([H])c5[H])C([H])=C(C([H])([H])C([H])([H])C4([H])[H])C4(O[H])C([H])(C2([H])[H])C2([H])C([H])([H])C([H])([H])C([H])([H])C2([H])C314

$$$$
33:1:1
     RDKit          3D

 65 72  0  0  1  0  0  0  0  0999 V2000
    1.1178   -5.8040    2.0449 O   0  0  0  0  0  0  0  0  0  0  0  0
    1.3637   -6.6532    2.9000 C   0  0  0  0  0  0  0  0  0  0  0  0
    0.6345   -6.5185    4.2867 C   0  0  1  0  0  0  0  0  0  0  0  0
    0.3869   -7.8070    5.1042 C   0  0  0  0  0  0  0  0  0  0  0  0
    1.4698   -8.3108    6.0919 C   0  0  0  0  0  0  0  0  0  0  0  0
    2.7078   -7.4392    6.4152 C   0  0  0  0  0  0  0  0  0  0  0  0
    3.2807   -6.5094    5.3387 C   0  0  0  0  0  0  0  0  0  0  0  0
    2.6282   -5.3417    5.1354 C   0  0  0  0  0  0  0  0  0  0  0  0
    1.1174   -5.3377    5.1987 C   0  0  1  0  0  0  0  0  0  0  0  0
    0.5806   -3.9884    4.7377 C   0  0  0  0  0  0  0  0  0  0  0  0
   -0.0389   -3.0991    5.5359 C   0  0  0  0  0  0  0  0  0  0  0  0
   -0.5511   -1.8149    5.1770 C   0  0  0  0  0  0  0  0  0  0  0  0
   -0.4303   -1.0484    4.0517 C   0  0  0  0  0  0  0  0  0  0  0  0
   -1.2290    0.1104    4.2561 C   0  0  0  0  0  0  0  0  0  0  0  0
   -1.7807   -0.0280    5.4942 C   0  0  0  0  0  0  0  0  0  0  0  0
   -1.3789   -1.1975    6.0723 O   0  0  0  0  0  0  0  0  0  0  0  0
    4.3184   -6.9660    4.2695 C   0  0  1  0  0  0  0  0  0  0  0  0
    4.7533   -5.7906    3.5842 O   0  0  0  0  0  0  0  0  0  0  0  0
    5.6636   -7.7067    4.5929 C   0  0  1  0  0  0  0  0  0  0  0  0
    5.4768   -9.0127    5.4002 C   0  0  0  0  0  0  0  0  0  0  0  0
    4.3620   -9.9157    4.8781 C   0  0  0  0  0  0  0  0  0  0  0  0
    4.0237  -11.2174    5.2990 C   0  0  0  0  0  0  0  0  0  0  0  0
    2.8939  -11.8584    4.7359 C   0  0  0  0  0  0  0  0  0  0  0  0
    2.0726  -11.2105    3.7865 C   0  0  0  0  0  0  0  0  0  0  0  0
    0.9883  -11.8583    3.2807 O   0  0  0  0  0  0  0  0  0  0  0  0
    2.3756   -9.8974    3.3692 C   0  0  0  0  0  0  0  0  0  0  0  0
    3.5300   -9.3382    3.8992 C   0  0  0  0  0  0  0  0  0  0  0  0
    3.7393   -7.9952    3.2462 C   0  0  1  0  0  0  0  0  0  0  0  0
    2.3451   -7.8036    2.5111 C   0  0  1  0  0  0  0  0  0  0  0  0
    1.6660   -9.0684    2.5441 O   0  0  0  0  0  0  0  0  0  0  0  0
    4.9371   -8.1277    2.2495 C   0  0  2  0  0  0  0  0  0  0  0  0
    5.1035   -9.3838    1.3726 C   0  0  0  0  0  0  0  0  0  0  0  0
    6.5992   -9.6880    1.4167 C   0  0  0  0  0  0  0  0  0  0  0  0
    7.0211   -9.2964    2.8344 C   0  0  0  0  0  0  0  0  0  0  0  0
    6.1915   -8.0325    3.1436 C   0  0  2  0  0  0  0  0  0  0  0  0
   -0.3724   -6.2436    3.9763 H   0  0  0  0  0  0  0  0  0  0  0  0
   -0.5142   -7.6272    5.6896 H   0  0  0  0  0  0  0  0  0  0  0  0
    0.0946   -8.6251    4.4479 H   0  0  0  0  0  0  0  0  0  0  0  0
    0.9680   -8.4860    7.0462 H   0  0  0  0  0  0  0  0  0  0  0  0
    1.7777   -9.3167    5.8251 H   0  0  0  0  0  0  0  0  0  0  0  0
    2.4116   -6.7754    7.2313 H   0  0  0  0  0  0  0  0  0  0  0  0
    3.4652   -8.0449    6.8868 H   0  0  0  0  0  0  0  0  0  0  0  0
    2.9626   -4.6250    4.4047 H   0  0  0  0  0  0  0  0  0  0  0  0
    0.7941   -5.5015    6.2299 H   0  0  0  0  0  0  0  0  0  0  0  0
    0.7112   -3.7488    3.6901 H   0  0  0  0  0  0  0  0  0  0  0  0
   -0.1569   -3.3578    6.5750 H   0  0  0  0  0  0  0  0  0  0  0  0
    0.1585   -1.3060    3.1827 H   0  0  0  0  0  0  0  0  0  0  0  0
   -1.3873    0.9441    3.5846 H   0  0  0  0  0  0  0  0  0  0  0  0
   -2.4421    0.5920    6.0835 H   0  0  0  0  0  0  0  0  0  0  0  0
    5.3506   -6.0511    2.9010 H   0  0  0  0  0  0  0  0  0  0  0  0
    6.3702   -7.0642    5.1145 H   0  0  0  0  0  0  0  0  0  0  0  0
    6.4014   -9.5817    5.4453 H   0  0  0  0  0  0  0  0  0  0  0  0
    5.2972   -8.7745    6.4407 H   0  0  0  0  0  0  0  0  0  0  0  0
    4.6074  -11.7191    6.0543 H   0  0  0  0  0  0  0  0  0  0  0  0
    2.6444  -12.8543    5.0680 H   0  0  0  0  0  0  0  0  0  0  0  0
    1.0545  -12.7996    3.3871 H   0  0  0  0  0  0  0  0  0  0  0  0
    2.5657   -7.6402    1.4543 H   0  0  0  0  0  0  0  0  0  0  0  0
    4.9378   -7.2731    1.5703 H   0  0  0  0  0  0  0  0  0  0  0  0
    4.5603  -10.2494    1.7508 H   0  0  0  0  0  0  0  0  0  0  0  0
    4.7470   -9.2103    0.3575 H   0  0  0  0  0  0  0  0  0  0  0  0
    6.8090  -10.7343    1.1938 H   0  0  0  0  0  0  0  0  0  0  0  0
    7.1329   -9.0744    0.6896 H   0  0  0  0  0  0  0  0  0  0  0  0
    6.7923  -10.1463    3.4730 H   0  0  0  0  0  0  0  0  0  0  0  0
    8.0930   -9.1054    2.9086 H   0  0  0  0  0  0  0  0  0  0  0  0
    6.7888   -7.1917    2.7931 H   0  0  0  0  0  0  0  0  0  0  0  0
  1  2  2  0
  2 29  1  0
  2  3  1  0
  3  9  1  0
  3  4  1  0
  3 36  1  6
  4  5  1  0
  4 37  1  0
  4 38  1  0
  5  6  1  0
  5 39  1  0
  5 40  1  0
  6  7  1  0
  6 41  1  0
  6 42  1  0
  7  8  2  0
  7 17  1  0
  8  9  1  0
  8 43  1  0
  9 10  1  0
  9 44  1  1
 10 11  2  3
 10 45  1  0
 11 12  1  0
 11 46  1  0
 12 16  1  0
 12 13  2  0
 13 14  1  0
 13 47  1  0
 14 15  2  0
 14 48  1  0
 15 16  1  0
 15 49  1  0
 17 28  1  0
 17 18  1  6
 17 19  1  0
 18 50  1  0
 19 35  1  0
 19 20  1  0
 19 51  1  1
 20 21  1  0
 20 52  1  0
 20 53  1  0
 21 27  2  0
 21 22  1  0
 22 23  2  0
 22 54  1  0
 23 24  1  0
 23 55  1  0
 24 25  1  0
 24 26  2  0
 25 56  1  0
 26 30  1  0
 26 27  1  0
 28 27  1  1
 28 29  1  0
 28 31  1  0
 29 30  1  0
 29 57  1  6
 31 35  1  0
 31 32  1  0
 31 58  1  6
 32 33  1  0
 32 59  1  0
 32 60  1  0
 33 34  1  0
 33 61  1  0
 33 62  1  0
 34 35  1  0
 34 63  1  0
 34 64  1  0
 35 65  1  6
M  END
>  <i_m_ct_stereo_status>  (106) 
1

>  <s_m_source_file>  (106) 
/var/tmp/pbs.5076255.sched01/tmp7me73ahx/0ll6f151o.sdf

>  <i_m_source_file_index>  (106) 
43

>  <i_lp_mmshare_version>  (106) 
48012

>  <i_f3d_flags>  (106) 
0

>  <s_epik_input>  (106) 
bzFbY0hdW2NIXVtjSF1jMS9bQ0hdPVtDSF1cW0NASF0oW0NIXT1DMltDQEBdMyhbQ0BAXTQ1NilbT0hdKVtDQEhdKFtDSDJdW0NIMl1bQ0gyXTIpQyg9TylbQ0BASF01T2M3YzRjKFtjSF1bY0hdYzdbT0hdKVtDSDJdW0NASF0zW0NAQEhdOFtDQEhdNltDSDJdW0NIMl1bQ0gyXTg=

>  <s_epik_cmdline>  (106) 
J2VwaWtfcHl0aG9uJywgJy1waHQnLCAnMi4wJywgJy1waCcsICc3LjAnLCAnLXRuJywgJzgnLCAnLW1hJywgJzIwMCcsICctaW1hZScsICc8aW5maWxlLm1hZT4nLCAnLW9tYWUnLCAnPG91dGZpbGUubWFlPic=

>  <r_lp_tautomer_probability>  (106) 
1

>  <r_epik_Ionization_Penalty>  (106) 
0.00207782

>  <r_epik_Ionization_Penalty_Charging>  (106) 
0

>  <r_epik_Ionization_Penalty_Neutral>  (106) 
0.00207782

>  <r_epik_State_Penalty>  (106) 
0.001423

>  <r_epik_Charging_Adjusted_Penalty>  (106) 
0.001423

>  <i_epik_Tot_Q>  (106) 
0

>  <i_epik_Tot_abs_Q>  (106) 
0

>  <s_lp_Force_Field>  (106) 
OPLS3e

>  <r_lp_Energy>  (106) 
116.761

>  <b_lp_Chiralities_Consistent>  (106) 
1

>  <s_lp_Variant>  (106) 
33:0-2

>  <s_i_glide_gridfile>  (106) 
pfpi4k_grid

>  <i_i_glide_lignum>  (106) 
43

>  <i_i_glide_rotatable_bonds>  (106) 
4

>  <r_i_docking_score>  (106) 
-2.36434

>  <r_i_glide_ligand_efficiency>  (106) 
-0.0675526

>  <r_i_glide_ligand_efficiency_sa>  (106) 
-0.220969

>  <r_i_glide_ligand_efficiency_ln>  (106) 
-0.519026

>  <r_i_glide_gscore>  (106) 
-2.36434

>  <r_i_glide_lipo>  (106) 
-0.113021

>  <r_i_glide_hbond>  (106) 
-0.122647

>  <r_i_glide_metal>  (106) 
-0

>  <r_i_glide_rewards>  (106) 
-0.200753

>  <r_i_glide_evdw>  (106) 
-28.684

>  <r_i_glide_ecoul>  (106) 
-4.34066

>  <r_i_glide_erotb>  (106) 
0.18251

>  <r_i_glide_esite>  (106) 
-0.0251323

>  <r_i_glide_emodel>  (106) 
-37.359

>  <r_i_glide_energy>  (106) 
-33.0247

>  <r_i_glide_einternal>  (106) 
1.2579

>  <r_i_glide_intrahb_reward>  (106) 
-0

>  <i_i_glide_confnum>  (106) 
4

>  <i_i_glide_posenum>  (106) 
1

>  <r_i_glide_eff_state_penalty>  (106) 
0

>  <ligand_id>  (106) 
33

>  <original_smiles>  (106) 
O=C1C2CCCC(=CC2C=Cc2ccco2)C2(O)C3Cc4ccc(O)c5c4C2(C1O5)C1CCCC31

>  <smiles>  (106) 
[H]Oc1c([H])c([H])c2c3c1OC1([H])C(=O)C4([H])C([H])(C([H])=C([H])c5oc([H])c([H])c5[H])C([H])=C(C([H])([H])C([H])([H])C4([H])[H])C4(O[H])C([H])(C2([H])[H])C2([H])C([H])([H])C([H])([H])C([H])([H])C2([H])C314

$$$$
33:1:2
     RDKit          3D

 65 72  0  0  1  0  0  0  0  0999 V2000
    1.8209   -4.5900    2.3558 O   0  0  0  0  0  0  0  0  0  0  0  0
    2.4709   -3.9297    3.1660 C   0  0  0  0  0  0  0  0  0  0  0  0
    3.2850   -4.7227    4.2507 C   0  0  1  0  0  0  0  0  0  0  0  0
    4.4914   -4.0249    4.9199 C   0  0  0  0  0  0  0  0  0  0  0  0
    4.2732   -3.1504    6.1804 C   0  0  0  0  0  0  0  0  0  0  0  0
    2.9000   -3.1249    6.8944 C   0  0  0  0  0  0  0  0  0  0  0  0
    1.6156   -3.2990    6.0719 C   0  0  0  0  0  0  0  0  0  0  0  0
    1.2956   -4.5652    5.7130 C   0  0  0  0  0  0  0  0  0  0  0  0
    2.4134   -5.5014    5.2973 C   0  0  1  0  0  0  0  0  0  0  0  0
    1.8383   -6.7910    4.7209 C   0  0  0  0  0  0  0  0  0  0  0  0
    2.1091   -8.0245    5.1866 C   0  0  0  0  0  0  0  0  0  0  0  0
    1.6316   -9.2789    4.6956 C   0  0  0  0  0  0  0  0  0  0  0  0
    1.7160  -10.5622    5.1702 C   0  0  0  0  0  0  0  0  0  0  0  0
    1.0205  -11.3840    4.2407 C   0  0  0  0  0  0  0  0  0  0  0  0
    0.5696  -10.5445    3.2633 C   0  0  0  0  0  0  0  0  0  0  0  0
    0.9167   -9.2582    3.5340 O   0  0  0  0  0  0  0  0  0  0  0  0
    0.8816   -2.1185    5.3642 C   0  0  1  0  0  0  0  0  0  0  0  0
   -0.3755   -2.6174    4.9032 O   0  0  0  0  0  0  0  0  0  0  0  0
    0.4585   -0.7827    6.0711 C   0  0  1  0  0  0  0  0  0  0  0  0
    1.6312   -0.0396    6.7476 C   0  0  0  0  0  0  0  0  0  0  0  0
    2.8841    0.0664    5.8831 C   0  0  0  0  0  0  0  0  0  0  0  0
    4.0643    0.7906    6.1474 C   0  0  0  0  0  0  0  0  0  0  0  0
    5.1589    0.6933    5.2498 C   0  0  0  0  0  0  0  0  0  0  0  0
    5.0986   -0.1455    4.1084 C   0  0  0  0  0  0  0  0  0  0  0  0
    6.1708   -0.2529    3.2801 O   0  0  0  0  0  0  0  0  0  0  0  0
    3.9321   -0.8874    3.8337 C   0  0  0  0  0  0  0  0  0  0  0  0
    2.8720   -0.7081    4.7073 C   0  0  0  0  0  0  0  0  0  0  0  0
    1.6981   -1.4972    4.1819 C   0  0  1  0  0  0  0  0  0  0  0  0
    2.4064   -2.3699    3.0571 C   0  0  1  0  0  0  0  0  0  0  0  0
    3.7199   -1.8144    2.8533 O   0  0  0  0  0  0  0  0  0  0  0  0
    0.6589   -0.4796    3.6109 C   0  0  2  0  0  0  0  0  0  0  0  0
    1.1074    0.7477    2.7914 C   0  0  0  0  0  0  0  0  0  0  0  0
    0.2204    1.8879    3.2924 C   0  0  0  0  0  0  0  0  0  0  0  0
    0.0194    1.5925    4.7814 C   0  0  0  0  0  0  0  0  0  0  0  0
   -0.0907    0.0521    4.8515 C   0  0  2  0  0  0  0  0  0  0  0  0
    3.7617   -5.4935    3.6461 H   0  0  0  0  0  0  0  0  0  0  0  0
    5.1799   -4.8200    5.2086 H   0  0  0  0  0  0  0  0  0  0  0  0
    5.0591   -3.4586    4.1839 H   0  0  0  0  0  0  0  0  0  0  0  0
    4.9910   -3.4956    6.9275 H   0  0  0  0  0  0  0  0  0  0  0  0
    4.6225   -2.1395    5.9979 H   0  0  0  0  0  0  0  0  0  0  0  0
    2.9042   -3.9634    7.5949 H   0  0  0  0  0  0  0  0  0  0  0  0
    2.8540   -2.2813    7.5656 H   0  0  0  0  0  0  0  0  0  0  0  0
    0.4039   -4.7864    5.1480 H   0  0  0  0  0  0  0  0  0  0  0  0
    3.0196   -5.7579    6.1688 H   0  0  0  0  0  0  0  0  0  0  0  0
    1.1718   -6.6899    3.8757 H   0  0  0  0  0  0  0  0  0  0  0  0
    2.7788   -8.1040    6.0294 H   0  0  0  0  0  0  0  0  0  0  0  0
    2.2062  -10.8782    6.0785 H   0  0  0  0  0  0  0  0  0  0  0  0
    0.8593  -12.4519    4.2831 H   0  0  0  0  0  0  0  0  0  0  0  0
   -0.0079  -10.6823    2.3604 H   0  0  0  0  0  0  0  0  0  0  0  0
   -0.2260   -3.1759    4.1569 H   0  0  0  0  0  0  0  0  0  0  0  0
   -0.3313   -0.9451    6.8015 H   0  0  0  0  0  0  0  0  0  0  0  0
    1.3315    0.9557    7.0621 H   0  0  0  0  0  0  0  0  0  0  0  0
    1.8718   -0.5175    7.6892 H   0  0  0  0  0  0  0  0  0  0  0  0
    4.1386    1.4052    7.0324 H   0  0  0  0  0  0  0  0  0  0  0  0
    6.0541    1.2553    5.4440 H   0  0  0  0  0  0  0  0  0  0  0  0
    6.0233   -0.8481    2.5590 H   0  0  0  0  0  0  0  0  0  0  0  0
    1.8768   -2.1703    2.1230 H   0  0  0  0  0  0  0  0  0  0  0  0
   -0.0608   -1.0173    2.9975 H   0  0  0  0  0  0  0  0  0  0  0  0
    2.1504    1.0101    2.9583 H   0  0  0  0  0  0  0  0  0  0  0  0
    0.9865    0.5846    1.7189 H   0  0  0  0  0  0  0  0  0  0  0  0
    0.6702    2.8653    3.1135 H   0  0  0  0  0  0  0  0  0  0  0  0
   -0.7397    1.8682    2.7753 H   0  0  0  0  0  0  0  0  0  0  0  0
    0.8891    1.9901    5.2973 H   0  0  0  0  0  0  0  0  0  0  0  0
   -0.8607    2.0938    5.1864 H   0  0  0  0  0  0  0  0  0  0  0  0
   -1.1480   -0.1817    4.7214 H   0  0  0  0  0  0  0  0  0  0  0  0
  1  2  2  0
  2 29  1  0
  2  3  1  0
  3  9  1  0
  3  4  1  0
  3 36  1  6
  4  5  1  0
  4 37  1  0
  4 38  1  0
  5  6  1  0
  5 39  1  0
  5 40  1  0
  6  7  1  0
  6 41  1  0
  6 42  1  0
  7  8  2  0
  7 17  1  0
  8  9  1  0
  8 43  1  0
  9 10  1  0
  9 44  1  1
 10 11  2  3
 10 45  1  0
 11 12  1  0
 11 46  1  0
 12 16  1  0
 12 13  2  0
 13 14  1  0
 13 47  1  0
 14 15  2  0
 14 48  1  0
 15 16  1  0
 15 49  1  0
 17 28  1  0
 17 18  1  6
 17 19  1  0
 18 50  1  0
 19 35  1  0
 19 20  1  0
 19 51  1  1
 20 21  1  0
 20 52  1  0
 20 53  1  0
 21 27  2  0
 21 22  1  0
 22 23  2  0
 22 54  1  0
 23 24  1  0
 23 55  1  0
 24 25  1  0
 24 26  2  0
 25 56  1  0
 26 30  1  0
 26 27  1  0
 28 27  1  1
 28 29  1  0
 28 31  1  0
 29 30  1  0
 29 57  1  6
 31 35  1  0
 31 32  1  0
 31 58  1  6
 32 33  1  0
 32 59  1  0
 32 60  1  0
 33 34  1  0
 33 61  1  0
 33 62  1  0
 34 35  1  0
 34 63  1  0
 34 64  1  0
 35 65  1  6
M  END
>  <i_m_ct_stereo_status>  (107) 
1

>  <s_m_source_file>  (107) 
/var/tmp/pbs.5076255.sched01/tmp7me73ahx/0ll6f151o.sdf

>  <i_m_source_file_index>  (107) 
43

>  <i_lp_mmshare_version>  (107) 
48012

>  <i_f3d_flags>  (107) 
0

>  <s_epik_input>  (107) 
bzFbY0hdW2NIXVtjSF1jMS9bQ0hdPVtDSF1cW0NASF0oW0NIXT1DMltDQEBdMyhbQ0BAXTQ1NilbT0hdKVtDQEhdKFtDSDJdW0NIMl1bQ0gyXTIpQyg9TylbQ0BASF01T2M3YzRjKFtjSF1bY0hdYzdbT0hdKVtDSDJdW0NASF0zW0NAQEhdOFtDQEhdNltDSDJdW0NIMl1bQ0gyXTg=

>  <s_epik_cmdline>  (107) 
J2VwaWtfcHl0aG9uJywgJy1waHQnLCAnMi4wJywgJy1waCcsICc3LjAnLCAnLXRuJywgJzgnLCAnLW1hJywgJzIwMCcsICctaW1hZScsICc8aW5maWxlLm1hZT4nLCAnLW9tYWUnLCAnPG91dGZpbGUubWFlPic=

>  <r_lp_tautomer_probability>  (107) 
1

>  <r_epik_Ionization_Penalty>  (107) 
0.00207782

>  <r_epik_Ionization_Penalty_Charging>  (107) 
0

>  <r_epik_Ionization_Penalty_Neutral>  (107) 
0.00207782

>  <r_epik_State_Penalty>  (107) 
0.001423

>  <r_epik_Charging_Adjusted_Penalty>  (107) 
0.001423

>  <i_epik_Tot_Q>  (107) 
0

>  <i_epik_Tot_abs_Q>  (107) 
0

>  <s_lp_Force_Field>  (107) 
OPLS3e

>  <r_lp_Energy>  (107) 
116.761

>  <b_lp_Chiralities_Consistent>  (107) 
1

>  <s_lp_Variant>  (107) 
33:0-2

>  <s_i_glide_gridfile>  (107) 
pfpi4k_grid

>  <i_i_glide_lignum>  (107) 
43

>  <i_i_glide_rotatable_bonds>  (107) 
4

>  <r_i_docking_score>  (107) 
-2.01872

>  <r_i_glide_ligand_efficiency>  (107) 
-0.0576778

>  <r_i_glide_ligand_efficiency_sa>  (107) 
-0.188668

>  <r_i_glide_ligand_efficiency_ln>  (107) 
-0.443155

>  <r_i_glide_gscore>  (107) 
-2.01872

>  <r_i_glide_lipo>  (107) 
-0.331166

>  <r_i_glide_hbond>  (107) 
0

>  <r_i_glide_metal>  (107) 
-0

>  <r_i_glide_rewards>  (107) 
-0.200753

>  <r_i_glide_evdw>  (107) 
-22.919

>  <r_i_glide_ecoul>  (107) 
-3.48305

>  <r_i_glide_erotb>  (107) 
0.18251

>  <r_i_glide_esite>  (107) 
-0.000907517

>  <r_i_glide_emodel>  (107) 
-30.5691

>  <r_i_glide_energy>  (107) 
-26.402

>  <r_i_glide_einternal>  (107) 
0.344411

>  <r_i_glide_intrahb_reward>  (107) 
-0

>  <i_i_glide_confnum>  (107) 
5

>  <i_i_glide_posenum>  (107) 
6

>  <r_i_glide_eff_state_penalty>  (107) 
0

>  <ligand_id>  (107) 
33

>  <original_smiles>  (107) 
O=C1C2CCCC(=CC2C=Cc2ccco2)C2(O)C3Cc4ccc(O)c5c4C2(C1O5)C1CCCC31

>  <smiles>  (107) 
[H]Oc1c([H])c([H])c2c3c1OC1([H])C(=O)C4([H])C([H])(C([H])=C([H])c5oc([H])c([H])c5[H])C([H])=C(C([H])([H])C([H])([H])C4([H])[H])C4(O[H])C([H])(C2([H])[H])C2([H])C([H])([H])C([H])([H])C([H])([H])C2([H])C314

$$$$
34:0:0
     RDKit          3D

 84 90  0  0  1  0  0  0  0  0999 V2000
   -1.2079   -9.6018    2.9025 C   0  0  0  0  0  0  0  0  0  0  0  0
    0.2420  -10.1701    2.9937 C   0  0  0  0  0  0  0  0  0  0  0  0
    1.3054   -9.2557    3.6870 C   0  0  2  0  0  0  0  0  0  0  0  0
    1.1555   -7.7550    3.3062 C   0  0  2  0  0  0  0  0  0  0  0  0
    1.1573   -7.3234    1.8108 C   0  0  1  0  0  0  0  0  0  0  0  0
   -0.1899   -7.1662    1.0868 C   0  0  0  0  0  0  0  0  0  0  0  0
    1.7157   -6.0098    1.8231 O   0  0  0  0  0  0  0  0  0  0  0  0
    1.9267   -5.5625    3.1594 C   0  0  0  0  0  0  0  0  0  0  0  0
    2.1997   -6.8409    3.9427 C   0  0  2  0  0  0  0  0  0  0  0  0
    3.6708   -7.3367    3.8907 C   0  0  2  0  0  0  0  0  0  0  0  0
    4.4668   -7.2027    2.5542 C   0  0  1  0  0  0  0  0  0  0  0  0
    5.0914   -5.8251    2.3417 C   0  0  0  0  0  0  0  0  0  0  0  0
    4.6433   -4.9070    1.4655 C   0  0  0  0  0  0  0  0  0  0  0  0
    5.2425   -3.5249    1.2529 C   0  0  2  0  0  0  0  0  0  0  0  0
    4.2724   -2.3889    1.6618 C   0  0  2  0  0  0  0  0  0  0  0  0
    3.7381   -1.9831    0.4097 O   0  0  0  0  0  0  0  0  0  0  0  0
    4.9447   -1.7115   -0.2813 C   0  0  2  0  0  0  0  0  0  0  0  0
    4.7282   -1.1346   -1.7061 C   0  0  0  0  0  0  0  0  0  0  0  0
    4.1490   -2.1388   -2.7251 C   0  0  1  0  0  0  0  0  0  0  0  0
    4.2058   -1.5817   -4.0298 O   0  0  0  0  0  0  0  0  0  0  0  0
    4.9041   -3.4737   -2.6969 C   0  0  0  0  0  0  0  0  0  0  0  0
    4.8983   -4.0505   -1.2746 C   0  0  0  0  0  0  0  0  0  0  0  0
    5.5866   -3.1345   -0.2155 C   0  0  2  0  0  0  0  0  0  0  0  0
    7.1168   -3.1350   -0.4461 C   0  0  0  0  0  0  0  0  0  0  0  0
    5.5567   -0.6697    0.6927 C   0  0  0  0  0  0  0  0  0  0  0  0
    5.0298   -1.1092    2.0575 C   0  0  1  0  0  0  0  0  0  0  0  0
    4.1203   -0.0555    2.7241 C   0  0  0  0  0  0  0  0  0  0  0  0
    5.5204   -8.2495    2.5982 N   0  0  2  0  0  0  0  0  0  0  0  0
    5.6508   -9.0603    1.3546 C   0  0  0  0  0  0  0  0  0  0  0  0
    5.2938   -9.0627    3.8192 C   0  0  0  0  0  0  0  0  0  0  0  0
    3.8244   -8.8190    4.2720 C   0  0  1  0  0  0  0  0  0  0  0  0
    3.6606   -9.1845    5.7651 C   0  0  0  0  0  0  0  0  0  0  0  0
    3.4260  -10.7030    5.8042 C   0  0  0  0  0  0  0  0  0  0  0  0
    3.0238  -11.0225    4.3778 C   0  0  0  0  0  0  0  0  0  0  0  0
    3.0157  -12.1551    3.9042 O   0  0  0  0  0  0  0  0  0  0  0  0
    2.7970   -9.7536    3.5650 C   0  0  1  0  0  0  0  0  0  0  0  0
   -1.7731  -10.1718    2.1636 H   0  0  0  0  0  0  0  0  0  0  0  0
   -1.2603   -8.5808    2.6169 H   0  0  0  0  0  0  0  0  0  0  0  0
   -1.7255   -9.4986    3.8480 H   0  0  0  0  0  0  0  0  0  0  0  0
    0.2115  -11.1291    3.5303 H   0  0  0  0  0  0  0  0  0  0  0  0
    0.6171  -10.4208    1.9961 H   0  0  0  0  0  0  0  0  0  0  0  0
    1.0499   -9.3023    4.7490 H   0  0  0  0  0  0  0  0  0  0  0  0
    0.2129   -7.4244    3.7488 H   0  0  0  0  0  0  0  0  0  0  0  0
    1.7893   -8.0008    1.2339 H   0  0  0  0  0  0  0  0  0  0  0  0
   -0.6300   -8.1391    0.8808 H   0  0  0  0  0  0  0  0  0  0  0  0
   -0.0995   -6.6210    0.1481 H   0  0  0  0  0  0  0  0  0  0  0  0
   -0.9061   -6.6439    1.7156 H   0  0  0  0  0  0  0  0  0  0  0  0
    2.7254   -4.8280    3.2303 H   0  0  0  0  0  0  0  0  0  0  0  0
    1.0174   -5.0758    3.5150 H   0  0  0  0  0  0  0  0  0  0  0  0
    1.9523   -6.6793    4.9919 H   0  0  0  0  0  0  0  0  0  0  0  0
    4.2277   -6.7651    4.6328 H   0  0  0  0  0  0  0  0  0  0  0  0
    3.8162   -7.4398    1.7096 H   0  0  0  0  0  0  0  0  0  0  0  0
    5.9611   -5.5967    2.9401 H   0  0  0  0  0  0  0  0  0  0  0  0
    3.7705   -5.1432    0.8823 H   0  0  0  0  0  0  0  0  0  0  0  0
    6.1276   -3.4642    1.8881 H   0  0  0  0  0  0  0  0  0  0  0  0
    3.5179   -2.6761    2.3957 H   0  0  0  0  0  0  0  0  0  0  0  0
    4.0639   -0.2728   -1.6404 H   0  0  0  0  0  0  0  0  0  0  0  0
    5.6801   -0.7493   -2.0713 H   0  0  0  0  0  0  0  0  0  0  0  0
    3.0960   -2.3166   -2.4977 H   0  0  0  0  0  0  0  0  0  0  0  0
    3.6247   -0.8389   -4.0592 H   0  0  0  0  0  0  0  0  0  0  0  0
    4.4121   -4.1798   -3.3652 H   0  0  0  0  0  0  0  0  0  0  0  0
    5.9231   -3.3698   -3.0675 H   0  0  0  0  0  0  0  0  0  0  0  0
    3.8494   -4.1993   -1.0196 H   0  0  0  0  0  0  0  0  0  0  0  0
    5.3490   -5.0415   -1.2695 H   0  0  0  0  0  0  0  0  0  0  0  0
    7.3864   -2.6705   -1.3944 H   0  0  0  0  0  0  0  0  0  0  0  0
    7.5080   -4.1515   -0.4600 H   0  0  0  0  0  0  0  0  0  0  0  0
    7.6589   -2.6090    0.3392 H   0  0  0  0  0  0  0  0  0  0  0  0
    6.6443   -0.6326    0.6535 H   0  0  0  0  0  0  0  0  0  0  0  0
    5.1968    0.3341    0.4722 H   0  0  0  0  0  0  0  0  0  0  0  0
    5.8531   -1.3298    2.7375 H   0  0  0  0  0  0  0  0  0  0  0  0
    3.2765    0.2170    2.0883 H   0  0  0  0  0  0  0  0  0  0  0  0
    4.6588    0.8599    2.9559 H   0  0  0  0  0  0  0  0  0  0  0  0
    3.7224   -0.4201    3.6697 H   0  0  0  0  0  0  0  0  0  0  0  0
    4.7411   -9.6383    1.1572 H   0  0  0  0  0  0  0  0  0  0  0  0
    6.4919   -9.7568    1.4322 H   0  0  0  0  0  0  0  0  0  0  0  0
    5.8232   -8.4076    0.4971 H   0  0  0  0  0  0  0  0  0  0  0  0
    5.5874  -10.1126    3.6931 H   0  0  0  0  0  0  0  0  0  0  0  0
    5.9774   -8.6493    4.5670 H   0  0  0  0  0  0  0  0  0  0  0  0
    4.5061   -8.8885    6.3811 H   0  0  0  0  0  0  0  0  0  0  0  0
    2.7842   -8.6926    6.1728 H   0  0  0  0  0  0  0  0  0  0  0  0
    4.3322  -11.2491    6.0644 H   0  0  0  0  0  0  0  0  0  0  0  0
    2.6377  -11.0001    6.4964 H   0  0  0  0  0  0  0  0  0  0  0  0
    3.0535   -9.9267    2.5197 H   0  0  0  0  0  0  0  0  0  0  0  0
    6.4216   -7.7736    2.7200 H   0  0  0  0  0  0  0  0  0  0  0  0
  1  2  1  0
  1 37  1  0
  1 38  1  0
  1 39  1  0
  2  3  1  0
  2 40  1  0
  2 41  1  0
  3 36  1  0
  3  4  1  0
  3 42  1  1
  4  9  1  0
  4  5  1  0
  4 43  1  1
  5  6  1  0
  5  7  1  0
  5 44  1  6
  6 45  1  0
  6 46  1  0
  6 47  1  0
  7  8  1  0
  8  9  1  0
  8 48  1  0
  8 49  1  0
  9 10  1  0
  9 50  1  1
 10 31  1  0
 10 11  1  0
 10 51  1  1
 11 12  1  0
 11 28  1  0
 11 52  1  6
 12 13  2  3
 12 53  1  0
 13 14  1  0
 13 54  1  0
 14 23  1  0
 14 15  1  0
 14 55  1  1
 15 26  1  0
 15 16  1  0
 15 56  1  1
 16 17  1  0
 17 23  1  0
 17 18  1  6
 17 25  1  0
 18 19  1  0
 18 57  1  0
 18 58  1  0
 19 20  1  0
 19 21  1  0
 19 59  1  1
 20 60  1  0
 21 22  1  0
 21 61  1  0
 21 62  1  0
 22 23  1  0
 22 63  1  0
 22 64  1  0
 23 24  1  1
 24 65  1  0
 24 66  1  0
 24 67  1  0
 25 26  1  0
 25 68  1  0
 25 69  1  0
 26 27  1  0
 26 70  1  1
 27 71  1  0
 27 72  1  0
 27 73  1  0
 28 29  1  0
 28 30  1  0
 28 84  1  1
 29 74  1  0
 29 75  1  0
 29 76  1  0
 31 30  1  6
 30 77  1  0
 30 78  1  0
 31 36  1  0
 31 32  1  0
 32 33  1  0
 32 79  1  0
 32 80  1  0
 33 34  1  0
 33 81  1  0
 33 82  1  0
 34 35  2  0
 34 36  1  0
 36 83  1  6
M  CHG  1  28   1
M  END
>  <i_m_ct_stereo_status>  (108) 
1

>  <s_m_source_file>  (108) 
/var/tmp/pbs.5076255.sched01/tmp7me73ahx/0ll6f151o.sdf

>  <i_m_source_file_index>  (108) 
44

>  <i_lp_mmshare_version>  (108) 
48012

>  <i_f3d_flags>  (108) 
0

>  <s_epik_input>  (108) 
W0NIMl0xW0NIMl1DKD1PKVtDQEhdMltDQEhdKFtDSDJdW0NIM10pW0NASF0oW0NAQEhdKFtDSDNdKU9bQ0gyXTMpW0NASF0zW0NAQEhdKFtDQEBdMTI0KVtDQEhdKE4oW0NIM10pW0NIMl00KS9bQ0hdPVtDSF0vW0NASF0oW0NASF0oTzUpW0NAQEhdKFtDSDJdNilbQ0gzXSlbQ0BAXShbQ0BAXTU2NykoW0NIM10pW0NIMl1bQ0gyXVtDQEBIXShbQ0gyXTcpW09IXQ==

>  <s_epik_cmdline>  (108) 
J2VwaWtfcHl0aG9uJywgJy1waHQnLCAnMi4wJywgJy1waCcsICc3LjAnLCAnLXRuJywgJzgnLCAnLW1hJywgJzIwMCcsICctaW1hZScsICc8aW5maWxlLm1hZT4nLCAnLW9tYWUnLCAnPG91dGZpbGUubWFlPic=

>  <r_lp_tautomer_probability>  (108) 
1

>  <r_epik_Ionization_Penalty>  (108) 
0.00819044

>  <r_epik_Ionization_Penalty_Charging>  (108) 
0.00818989

>  <r_epik_Ionization_Penalty_Neutral>  (108) 
5.52343e-07

>  <r_epik_State_Penalty>  (108) 
0.00615881

>  <r_epik_Charging_Adjusted_Penalty>  (108) 
0.0143487

>  <i_epik_Tot_Q>  (108) 
1

>  <i_epik_Tot_abs_Q>  (108) 
1

>  <s_lp_Force_Field>  (108) 
OPLS3e

>  <r_lp_Energy>  (108) 
47.2873

>  <b_lp_Chiralities_Consistent>  (108) 
1

>  <s_lp_Variant>  (108) 
34:0-1

>  <s_i_glide_gridfile>  (108) 
pfpi4k_grid

>  <i_i_glide_lignum>  (108) 
44

>  <i_i_glide_rotatable_bonds>  (108) 
4

>  <r_i_docking_score>  (108) 
-2.63405

>  <r_i_glide_ligand_efficiency>  (108) 
-0.0731681

>  <r_i_glide_ligand_efficiency_sa>  (108) 
-0.241596

>  <r_i_glide_ligand_efficiency_ln>  (108) 
-0.574679

>  <r_i_glide_gscore>  (108) 
-2.63405

>  <r_i_glide_lipo>  (108) 
-0.699018

>  <r_i_glide_hbond>  (108) 
-0.130867

>  <r_i_glide_metal>  (108) 
-0

>  <r_i_glide_rewards>  (108) 
-0.00874691

>  <r_i_glide_evdw>  (108) 
-30.1705

>  <r_i_glide_ecoul>  (108) 
-2.88871

>  <r_i_glide_erotb>  (108) 
0.164104

>  <r_i_glide_esite>  (108) 
-0.0176932

>  <r_i_glide_emodel>  (108) 
-34.0883

>  <r_i_glide_energy>  (108) 
-33.0592

>  <r_i_glide_einternal>  (108) 
3.389

>  <r_i_glide_intrahb_reward>  (108) 
-0

>  <i_i_glide_confnum>  (108) 
4

>  <i_i_glide_posenum>  (108) 
26

>  <r_i_glide_eff_state_penalty>  (108) 
0

>  <ligand_id>  (108) 
34

>  <original_smiles>  (108) 
CCC1C2C(C)OCC2C2C(C=CC3C4OC5(CC(O)CCC35C)CC4C)N(C)CC23CCC(=O)C13

>  <smiles>  (108) 
[H]OC1([H])C([H])([H])C([H])([H])C2(C([H])([H])[H])C([H])(C([H])=C([H])C3([H])C4([H])C5([H])C([H])([H])OC([H])(C([H])([H])[H])C5([H])C([H])(C([H])([H])C([H])([H])[H])C5([H])C(=O)C([H])([H])C([H])([H])C54C([H])([H])[N+]3([H])C([H])([H])[H])C3([H])OC2(C1([H])[H])C([H])([H])C3([H])C([H])([H])[H]

$$$$
34:0:1
     RDKit          3D

 84 90  0  0  1  0  0  0  0  0999 V2000
    3.1884   -6.1970    2.1152 C   0  0  0  0  0  0  0  0  0  0  0  0
    2.6883   -4.8381    1.5663 C   0  0  0  0  0  0  0  0  0  0  0  0
    3.3268   -3.5933    2.2435 C   0  0  2  0  0  0  0  0  0  0  0  0
    2.9867   -3.5103    3.7515 C   0  0  2  0  0  0  0  0  0  0  0  0
    1.5119   -3.5584    4.2023 C   0  0  1  0  0  0  0  0  0  0  0  0
    0.9854   -4.9554    4.5653 C   0  0  0  0  0  0  0  0  0  0  0  0
    1.4633   -2.7425    5.3772 O   0  0  0  0  0  0  0  0  0  0  0  0
    2.7832   -2.3944    5.7820 C   0  0  0  0  0  0  0  0  0  0  0  0
    3.5276   -2.2686    4.4562 C   0  0  2  0  0  0  0  0  0  0  0  0
    3.3378   -0.9177    3.6990 C   0  0  2  0  0  0  0  0  0  0  0  0
    1.9408   -0.2052    3.6854 C   0  0  1  0  0  0  0  0  0  0  0  0
    1.6685    0.6741    4.9213 C   0  0  0  0  0  0  0  0  0  0  0  0
    1.0521    1.8706    4.9162 C   0  0  0  0  0  0  0  0  0  0  0  0
    0.8084    2.7021    6.1675 C   0  0  2  0  0  0  0  0  0  0  0  0
   -0.7000    2.9092    6.3994 C   0  0  2  0  0  0  0  0  0  0  0  0
   -0.9081    4.2022    5.8593 O   0  0  0  0  0  0  0  0  0  0  0  0
    0.0633    4.9203    6.5987 C   0  0  2  0  0  0  0  0  0  0  0  0
    0.0645    6.4392    6.3389 C   0  0  0  0  0  0  0  0  0  0  0  0
    0.5482    6.8349    4.9341 C   0  0  1  0  0  0  0  0  0  0  0  0
    0.6503    8.2397    4.8712 O   0  0  0  0  0  0  0  0  0  0  0  0
    1.8810    6.1655    4.5839 C   0  0  0  0  0  0  0  0  0  0  0  0
    1.7329    4.6438    4.7075 C   0  0  0  0  0  0  0  0  0  0  0  0
    1.3399    4.1620    6.1375 C   0  0  2  0  0  0  0  0  0  0  0  0
    2.5519    4.3377    7.0817 C   0  0  0  0  0  0  0  0  0  0  0  0
   -0.4114    4.5726    8.0288 C   0  0  0  0  0  0  0  0  0  0  0  0
   -0.9985    3.1684    7.8793 C   0  0  1  0  0  0  0  0  0  0  0  0
   -2.5040    3.1094    8.1955 C   0  0  0  0  0  0  0  0  0  0  0  0
    1.9022    0.5929    2.4564 N   0  0  2  0  0  0  0  0  0  0  0  0
    0.6446    0.5037    1.7071 C   0  0  0  0  0  0  0  0  0  0  0  0
    3.0965    0.3180    1.6804 C   0  0  0  0  0  0  0  0  0  0  0  0
    3.6841   -1.0125    2.1980 C   0  0  1  0  0  0  0  0  0  0  0  0
    5.1951   -1.1070    1.8423 C   0  0  0  0  0  0  0  0  0  0  0  0
    5.2408   -1.6162    0.3820 C   0  0  0  0  0  0  0  0  0  0  0  0
    3.8654   -2.2146    0.1823 C   0  0  0  0  0  0  0  0  0  0  0  0
    3.4366   -2.5687   -0.9164 O   0  0  0  0  0  0  0  0  0  0  0  0
    3.0651   -2.2488    1.4802 C   0  0  1  0  0  0  0  0  0  0  0  0
    2.5840   -7.0149    1.7187 H   0  0  0  0  0  0  0  0  0  0  0  0
    3.1370   -6.2785    3.2023 H   0  0  0  0  0  0  0  0  0  0  0  0
    4.2262   -6.3851    1.8290 H   0  0  0  0  0  0  0  0  0  0  0  0
    2.9019   -4.8458    0.4970 H   0  0  0  0  0  0  0  0  0  0  0  0
    1.6094   -4.7706    1.6429 H   0  0  0  0  0  0  0  0  0  0  0  0
    4.3977   -3.7635    2.1826 H   0  0  0  0  0  0  0  0  0  0  0  0
    3.4920   -4.3428    4.2418 H   0  0  0  0  0  0  0  0  0  0  0  0
    0.8534   -3.1264    3.4464 H   0  0  0  0  0  0  0  0  0  0  0  0
    0.8875   -5.6004    3.6923 H   0  0  0  0  0  0  0  0  0  0  0  0
   -0.0019   -4.8814    5.0206 H   0  0  0  0  0  0  0  0  0  0  0  0
    1.6431   -5.4550    5.2796 H   0  0  0  0  0  0  0  0  0  0  0  0
    2.8426   -1.5201    6.4173 H   0  0  0  0  0  0  0  0  0  0  0  0
    3.1972   -3.2313    6.3465 H   0  0  0  0  0  0  0  0  0  0  0  0
    4.5996   -2.3973    4.6277 H   0  0  0  0  0  0  0  0  0  0  0  0
    4.0416   -0.2052    4.1358 H   0  0  0  0  0  0  0  0  0  0  0  0
    1.1581   -0.9610    3.6544 H   0  0  0  0  0  0  0  0  0  0  0  0
    1.9844    0.3059    5.8783 H   0  0  0  0  0  0  0  0  0  0  0  0
    0.6716    2.3086    3.9995 H   0  0  0  0  0  0  0  0  0  0  0  0
    1.2279    2.1560    7.0159 H   0  0  0  0  0  0  0  0  0  0  0  0
   -1.3202    2.1252    5.9653 H   0  0  0  0  0  0  0  0  0  0  0  0
   -0.9412    6.8328    6.4788 H   0  0  0  0  0  0  0  0  0  0  0  0
    0.6897    6.9267    7.0818 H   0  0  0  0  0  0  0  0  0  0  0  0
   -0.1848    6.5323    4.1920 H   0  0  0  0  0  0  0  0  0  0  0  0
    0.6131    8.5015    3.9521 H   0  0  0  0  0  0  0  0  0  0  0  0
    2.1548    6.4118    3.5552 H   0  0  0  0  0  0  0  0  0  0  0  0
    2.6904    6.5277    5.2176 H   0  0  0  0  0  0  0  0  0  0  0  0
    0.9639    4.3716    3.9836 H   0  0  0  0  0  0  0  0  0  0  0  0
    2.6535    4.1573    4.3815 H   0  0  0  0  0  0  0  0  0  0  0  0
    2.7974    5.3888    7.2288 H   0  0  0  0  0  0  0  0  0  0  0  0
    3.4359    3.8495    6.6717 H   0  0  0  0  0  0  0  0  0  0  0  0
    2.3833    3.9030    8.0662 H   0  0  0  0  0  0  0  0  0  0  0  0
    0.3898    4.6134    8.7634 H   0  0  0  0  0  0  0  0  0  0  0  0
   -1.1832    5.2705    8.3595 H   0  0  0  0  0  0  0  0  0  0  0  0
   -0.4795    2.4567    8.5194 H   0  0  0  0  0  0  0  0  0  0  0  0
   -3.0655    3.8026    7.5694 H   0  0  0  0  0  0  0  0  0  0  0  0
   -2.7002    3.3673    9.2390 H   0  0  0  0  0  0  0  0  0  0  0  0
   -2.9049    2.1108    8.0236 H   0  0  0  0  0  0  0  0  0  0  0  0
    0.5007   -0.4989    1.3038 H   0  0  0  0  0  0  0  0  0  0  0  0
    0.6368    1.2158    0.8815 H   0  0  0  0  0  0  0  0  0  0  0  0
   -0.2141    0.7398    2.3414 H   0  0  0  0  0  0  0  0  0  0  0  0
    2.9519    0.3538    0.6083 H   0  0  0  0  0  0  0  0  0  0  0  0
    3.8145    1.1115    1.9244 H   0  0  0  0  0  0  0  0  0  0  0  0
    5.7367   -0.1679    1.9512 H   0  0  0  0  0  0  0  0  0  0  0  0
    5.6950   -1.8467    2.4742 H   0  0  0  0  0  0  0  0  0  0  0  0
    5.3956   -0.8063   -0.3257 H   0  0  0  0  0  0  0  0  0  0  0  0
    6.0090   -2.3748    0.2349 H   0  0  0  0  0  0  0  0  0  0  0  0
    2.0111   -2.1154    1.2825 H   0  0  0  0  0  0  0  0  0  0  0  0
    1.9897    1.5695    2.7507 H   0  0  0  0  0  0  0  0  0  0  0  0
  1  2  1  0
  1 37  1  0
  1 38  1  0
  1 39  1  0
  2  3  1  0
  2 40  1  0
  2 41  1  0
  3 36  1  0
  3  4  1  0
  3 42  1  1
  4  9  1  0
  4  5  1  0
  4 43  1  1
  5  6  1  0
  5  7  1  0
  5 44  1  6
  6 45  1  0
  6 46  1  0
  6 47  1  0
  7  8  1  0
  8  9  1  0
  8 48  1  0
  8 49  1  0
  9 10  1  0
  9 50  1  1
 10 31  1  0
 10 11  1  0
 10 51  1  1
 11 12  1  0
 11 28  1  0
 11 52  1  6
 12 13  2  3
 12 53  1  0
 13 14  1  0
 13 54  1  0
 14 23  1  0
 14 15  1  0
 14 55  1  1
 15 26  1  0
 15 16  1  0
 15 56  1  6
 16 17  1  0
 17 23  1  0
 17 18  1  6
 17 25  1  0
 18 19  1  0
 18 57  1  0
 18 58  1  0
 19 20  1  0
 19 21  1  0
 19 59  1  6
 20 60  1  0
 21 22  1  0
 21 61  1  0
 21 62  1  0
 22 23  1  0
 22 63  1  0
 22 64  1  0
 23 24  1  1
 24 65  1  0
 24 66  1  0
 24 67  1  0
 25 26  1  0
 25 68  1  0
 25 69  1  0
 26 27  1  0
 26 70  1  1
 27 71  1  0
 27 72  1  0
 27 73  1  0
 28 29  1  0
 28 30  1  0
 28 84  1  1
 29 74  1  0
 29 75  1  0
 29 76  1  0
 31 30  1  6
 30 77  1  0
 30 78  1  0
 31 36  1  0
 31 32  1  0
 32 33  1  0
 32 79  1  0
 32 80  1  0
 33 34  1  0
 33 81  1  0
 33 82  1  0
 34 35  2  0
 34 36  1  0
 36 83  1  6
M  CHG  1  28   1
M  END
>  <i_m_ct_stereo_status>  (109) 
1

>  <s_m_source_file>  (109) 
/var/tmp/pbs.5076255.sched01/tmp7me73ahx/0ll6f151o.sdf

>  <i_m_source_file_index>  (109) 
44

>  <i_lp_mmshare_version>  (109) 
48012

>  <i_f3d_flags>  (109) 
0

>  <s_epik_input>  (109) 
W0NIMl0xW0NIMl1DKD1PKVtDQEhdMltDQEhdKFtDSDJdW0NIM10pW0NASF0oW0NAQEhdKFtDSDNdKU9bQ0gyXTMpW0NASF0zW0NAQEhdKFtDQEBdMTI0KVtDQEhdKE4oW0NIM10pW0NIMl00KS9bQ0hdPVtDSF0vW0NASF0oW0NASF0oTzUpW0NAQEhdKFtDSDJdNilbQ0gzXSlbQ0BAXShbQ0BAXTU2NykoW0NIM10pW0NIMl1bQ0gyXVtDQEBIXShbQ0gyXTcpW09IXQ==

>  <s_epik_cmdline>  (109) 
J2VwaWtfcHl0aG9uJywgJy1waHQnLCAnMi4wJywgJy1waCcsICc3LjAnLCAnLXRuJywgJzgnLCAnLW1hJywgJzIwMCcsICctaW1hZScsICc8aW5maWxlLm1hZT4nLCAnLW9tYWUnLCAnPG91dGZpbGUubWFlPic=

>  <r_lp_tautomer_probability>  (109) 
1

>  <r_epik_Ionization_Penalty>  (109) 
0.00819044

>  <r_epik_Ionization_Penalty_Charging>  (109) 
0.00818989

>  <r_epik_Ionization_Penalty_Neutral>  (109) 
5.52343e-07

>  <r_epik_State_Penalty>  (109) 
0.00615881

>  <r_epik_Charging_Adjusted_Penalty>  (109) 
0.0143487

>  <i_epik_Tot_Q>  (109) 
1

>  <i_epik_Tot_abs_Q>  (109) 
1

>  <s_lp_Force_Field>  (109) 
OPLS3e

>  <r_lp_Energy>  (109) 
47.2873

>  <b_lp_Chiralities_Consistent>  (109) 
1

>  <s_lp_Variant>  (109) 
34:0-1

>  <s_i_glide_gridfile>  (109) 
pfpi4k_grid

>  <i_i_glide_lignum>  (109) 
44

>  <i_i_glide_rotatable_bonds>  (109) 
4

>  <r_i_docking_score>  (109) 
-2.53803

>  <r_i_glide_ligand_efficiency>  (109) 
-0.0705009

>  <r_i_glide_ligand_efficiency_sa>  (109) 
-0.232789

>  <r_i_glide_ligand_efficiency_ln>  (109) 
-0.55373

>  <r_i_glide_gscore>  (109) 
-2.53803

>  <r_i_glide_lipo>  (109) 
-0.357818

>  <r_i_glide_hbond>  (109) 
-0.16

>  <r_i_glide_metal>  (109) 
-0

>  <r_i_glide_rewards>  (109) 
-0.00874691

>  <r_i_glide_evdw>  (109) 
-20.9821

>  <r_i_glide_ecoul>  (109) 
-7.19952

>  <r_i_glide_erotb>  (109) 
0.164104

>  <r_i_glide_esite>  (109) 
-0.0465405

>  <r_i_glide_emodel>  (109) 
-30.9904

>  <r_i_glide_energy>  (109) 
-28.1816

>  <r_i_glide_einternal>  (109) 
4.99182

>  <r_i_glide_intrahb_reward>  (109) 
-0

>  <i_i_glide_confnum>  (109) 
1

>  <i_i_glide_posenum>  (109) 
32

>  <r_i_glide_eff_state_penalty>  (109) 
0

>  <ligand_id>  (109) 
34

>  <original_smiles>  (109) 
CCC1C2C(C)OCC2C2C(C=CC3C4OC5(CC(O)CCC35C)CC4C)N(C)CC23CCC(=O)C13

>  <smiles>  (109) 
[H]OC1([H])C([H])([H])C([H])([H])C2(C([H])([H])[H])C([H])(C([H])=C([H])C3([H])C4([H])C5([H])C([H])([H])OC([H])(C([H])([H])[H])C5([H])C([H])(C([H])([H])C([H])([H])[H])C5([H])C(=O)C([H])([H])C([H])([H])C54C([H])([H])[N+]3([H])C([H])([H])[H])C3([H])OC2(C1([H])[H])C([H])([H])C3([H])C([H])([H])[H]

$$$$
34:0:2
     RDKit          3D

 84 90  0  0  1  0  0  0  0  0999 V2000
   -1.3977   -9.3963    2.8983 C   0  0  0  0  0  0  0  0  0  0  0  0
    0.0486   -9.9529    3.0013 C   0  0  0  0  0  0  0  0  0  0  0  0
    1.0823   -9.0414    3.7163 C   0  0  2  0  0  0  0  0  0  0  0  0
    0.9923   -7.5593    3.2693 C   0  0  2  0  0  0  0  0  0  0  0  0
    1.0918   -7.1999    1.7670 C   0  0  1  0  0  0  0  0  0  0  0  0
   -0.2194   -7.0568    0.9908 C   0  0  0  0  0  0  0  0  0  0  0  0
    1.6714   -5.8958    1.7475 O   0  0  0  0  0  0  0  0  0  0  0  0
    1.8212   -5.3952    3.0722 C   0  0  0  0  0  0  0  0  0  0  0  0
    2.0245   -6.6434    3.9200 C   0  0  2  0  0  0  0  0  0  0  0  0
    3.4881   -7.1734    3.9673 C   0  0  2  0  0  0  0  0  0  0  0  0
    4.3537   -7.1182    2.6733 C   0  0  1  0  0  0  0  0  0  0  0  0
    5.0394   -5.7770    2.4444 C   0  0  0  0  0  0  0  0  0  0  0  0
    4.6313   -4.8599    1.5430 C   0  0  0  0  0  0  0  0  0  0  0  0
    5.2700   -3.4978    1.3097 C   0  0  2  0  0  0  0  0  0  0  0  0
    4.3503   -2.3270    1.7304 C   0  0  2  0  0  0  0  0  0  0  0  0
    3.8070   -1.9113    0.4854 O   0  0  0  0  0  0  0  0  0  0  0  0
    5.0085   -1.6914   -0.2330 C   0  0  2  0  0  0  0  0  0  0  0  0
    4.7903   -1.1244   -1.6569 C   0  0  0  0  0  0  0  0  0  0  0  0
    4.1470   -2.1024   -2.6551 C   0  0  1  0  0  0  0  0  0  0  0  0
    4.2183   -1.5690   -3.9675 O   0  0  0  0  0  0  0  0  0  0  0  0
    4.8462   -3.4644   -2.6339 C   0  0  0  0  0  0  0  0  0  0  0  0
    4.8470   -4.0287   -1.2067 C   0  0  0  0  0  0  0  0  0  0  0  0
    5.5957   -3.1314   -0.1716 C   0  0  2  0  0  0  0  0  0  0  0  0
    7.1161   -3.1914   -0.4351 C   0  0  0  0  0  0  0  0  0  0  0  0
    5.6743   -0.6643    0.7178 C   0  0  0  0  0  0  0  0  0  0  0  0
    5.1629   -1.0787    2.0994 C   0  0  1  0  0  0  0  0  0  0  0  0
    4.3080    0.0064    2.7854 C   0  0  0  0  0  0  0  0  0  0  0  0
    5.3790   -8.1931    2.8199 N   0  0  2  0  0  0  0  0  0  0  0  0
    5.5579   -9.0624    1.6188 C   0  0  0  0  0  0  0  0  0  0  0  0
    5.0629   -8.9475    4.0616 C   0  0  0  0  0  0  0  0  0  0  0  0
    3.5866   -8.6425    4.4135 C   0  0  1  0  0  0  0  0  0  0  0  0
    3.3346   -8.9301    5.9119 C   0  0  0  0  0  0  0  0  0  0  0  0
    3.0533  -10.4352    6.0073 C   0  0  0  0  0  0  0  0  0  0  0  0
    2.7134  -10.8089    4.5768 C   0  0  0  0  0  0  0  0  0  0  0  0
    2.6885  -11.9618    4.1491 O   0  0  0  0  0  0  0  0  0  0  0  0
    2.5613   -9.5757    3.7000 C   0  0  1  0  0  0  0  0  0  0  0  0
   -1.9714   -9.9814    2.1793 H   0  0  0  0  0  0  0  0  0  0  0  0
   -1.4711   -8.3818    2.5677 H   0  0  0  0  0  0  0  0  0  0  0  0
   -1.9263   -9.4522    3.8529 H   0  0  0  0  0  0  0  0  0  0  0  0
    0.0089  -10.9160    3.5173 H   0  0  0  0  0  0  0  0  0  0  0  0
    0.4293  -10.1907    2.0121 H   0  0  0  0  0  0  0  0  0  0  0  0
    0.7717   -9.0443    4.7623 H   0  0  0  0  0  0  0  0  0  0  0  0
    0.0376   -7.1848    3.6386 H   0  0  0  0  0  0  0  0  0  0  0  0
    1.7367   -7.9076    1.2451 H   0  0  0  0  0  0  0  0  0  0  0  0
   -0.6890   -8.0246    0.8318 H   0  0  0  0  0  0  0  0  0  0  0  0
   -0.0537   -6.5593    0.0377 H   0  0  0  0  0  0  0  0  0  0  0  0
   -0.9436   -6.4620    1.5399 H   0  0  0  0  0  0  0  0  0  0  0  0
    2.6293   -4.6758    3.1694 H   0  0  0  0  0  0  0  0  0  0  0  0
    0.9034   -4.8829    3.3582 H   0  0  0  0  0  0  0  0  0  0  0  0
    1.7263   -6.4342    4.9490 H   0  0  0  0  0  0  0  0  0  0  0  0
    4.0170   -6.5847    4.7177 H   0  0  0  0  0  0  0  0  0  0  0  0
    3.7487   -7.3715    1.8066 H   0  0  0  0  0  0  0  0  0  0  0  0
    5.9039   -5.5595    3.0531 H   0  0  0  0  0  0  0  0  0  0  0  0
    3.7643   -5.0862    0.9448 H   0  0  0  0  0  0  0  0  0  0  0  0
    6.1725   -3.4670    1.9232 H   0  0  0  0  0  0  0  0  0  0  0  0
    3.6021   -2.5845    2.4800 H   0  0  0  0  0  0  0  0  0  0  0  0
    4.1473   -0.2537   -1.5876 H   0  0  0  0  0  0  0  0  0  0  0  0
    5.7462   -0.7730   -2.0432 H   0  0  0  0  0  0  0  0  0  0  0  0
    3.0944   -2.2286   -2.4032 H   0  0  0  0  0  0  0  0  0  0  0  0
    5.1169   -1.4011   -4.1704 H   0  0  0  0  0  0  0  0  0  0  0  0
    4.3096   -4.1524   -3.2887 H   0  0  0  0  0  0  0  0  0  0  0  0
    5.8617   -3.3980   -3.0240 H   0  0  0  0  0  0  0  0  0  0  0  0
    3.7963   -4.1298   -0.9338 H   0  0  0  0  0  0  0  0  0  0  0  0
    5.2596   -5.0372   -1.2090 H   0  0  0  0  0  0  0  0  0  0  0  0
    7.3801   -2.7456   -1.3932 H   0  0  0  0  0  0  0  0  0  0  0  0
    7.4637   -4.2237   -0.4447 H   0  0  0  0  0  0  0  0  0  0  0  0
    7.6926   -2.6792    0.3346 H   0  0  0  0  0  0  0  0  0  0  0  0
    6.7613   -0.6666    0.6556 H   0  0  0  0  0  0  0  0  0  0  0  0
    5.3463    0.3489    0.4856 H   0  0  0  0  0  0  0  0  0  0  0  0
    5.9937   -1.3286    2.7607 H   0  0  0  0  0  0  0  0  0  0  0  0
    3.4683    0.3168    2.1605 H   0  0  0  0  0  0  0  0  0  0  0  0
    4.8912    0.8928    3.0240 H   0  0  0  0  0  0  0  0  0  0  0  0
    3.9090   -0.3446    3.7359 H   0  0  0  0  0  0  0  0  0  0  0  0
    4.6478   -9.6204    1.4008 H   0  0  0  0  0  0  0  0  0  0  0  0
    6.3709   -9.7674    1.7885 H   0  0  0  0  0  0  0  0  0  0  0  0
    5.8100   -8.4434    0.7615 H   0  0  0  0  0  0  0  0  0  0  0  0
    5.3216  -10.0043    3.9935 H   0  0  0  0  0  0  0  0  0  0  0  0
    5.7098   -8.5232    4.8306 H   0  0  0  0  0  0  0  0  0  0  0  0
    4.1550   -8.6315    6.5680 H   0  0  0  0  0  0  0  0  0  0  0  0
    2.4448   -8.4033    6.2588 H   0  0  0  0  0  0  0  0  0  0  0  0
    3.9201  -11.0032    6.3410 H   0  0  0  0  0  0  0  0  0  0  0  0
    2.2241  -10.6377    6.6818 H   0  0  0  0  0  0  0  0  0  0  0  0
    2.8718   -9.8084    2.6831 H   0  0  0  0  0  0  0  0  0  0  0  0
    6.2781   -7.7342    2.9834 H   0  0  0  0  0  0  0  0  0  0  0  0
  1  2  1  0
  1 37  1  0
  1 38  1  0
  1 39  1  0
  2  3  1  0
  2 40  1  0
  2 41  1  0
  3 36  1  0
  3  4  1  0
  3 42  1  1
  4  9  1  0
  4  5  1  0
  4 43  1  1
  5  6  1  0
  5  7  1  0
  5 44  1  6
  6 45  1  0
  6 46  1  0
  6 47  1  0
  7  8  1  0
  8  9  1  0
  8 48  1  0
  8 49  1  0
  9 10  1  0
  9 50  1  1
 10 31  1  0
 10 11  1  0
 10 51  1  1
 11 12  1  0
 11 28  1  0
 11 52  1  6
 12 13  2  3
 12 53  1  0
 13 14  1  0
 13 54  1  0
 14 23  1  0
 14 15  1  0
 14 55  1  1
 15 26  1  0
 15 16  1  0
 15 56  1  1
 16 17  1  0
 17 23  1  0
 17 18  1  6
 17 25  1  0
 18 19  1  0
 18 57  1  0
 18 58  1  0
 19 20  1  0
 19 21  1  0
 19 59  1  1
 20 60  1  0
 21 22  1  0
 21 61  1  0
 21 62  1  0
 22 23  1  0
 22 63  1  0
 22 64  1  0
 23 24  1  1
 24 65  1  0
 24 66  1  0
 24 67  1  0
 25 26  1  0
 25 68  1  0
 25 69  1  0
 26 27  1  0
 26 70  1  1
 27 71  1  0
 27 72  1  0
 27 73  1  0
 28 29  1  0
 28 30  1  0
 28 84  1  1
 29 74  1  0
 29 75  1  0
 29 76  1  0
 31 30  1  6
 30 77  1  0
 30 78  1  0
 31 36  1  0
 31 32  1  0
 32 33  1  0
 32 79  1  0
 32 80  1  0
 33 34  1  0
 33 81  1  0
 33 82  1  0
 34 35  2  0
 34 36  1  0
 36 83  1  6
M  CHG  1  28   1
M  END
>  <i_m_ct_stereo_status>  (110) 
1

>  <s_m_source_file>  (110) 
/var/tmp/pbs.5076255.sched01/tmp7me73ahx/0ll6f151o.sdf

>  <i_m_source_file_index>  (110) 
44

>  <i_lp_mmshare_version>  (110) 
48012

>  <i_f3d_flags>  (110) 
0

>  <s_epik_input>  (110) 
W0NIMl0xW0NIMl1DKD1PKVtDQEhdMltDQEhdKFtDSDJdW0NIM10pW0NASF0oW0NAQEhdKFtDSDNdKU9bQ0gyXTMpW0NASF0zW0NAQEhdKFtDQEBdMTI0KVtDQEhdKE4oW0NIM10pW0NIMl00KS9bQ0hdPVtDSF0vW0NASF0oW0NASF0oTzUpW0NAQEhdKFtDSDJdNilbQ0gzXSlbQ0BAXShbQ0BAXTU2NykoW0NIM10pW0NIMl1bQ0gyXVtDQEBIXShbQ0gyXTcpW09IXQ==

>  <s_epik_cmdline>  (110) 
J2VwaWtfcHl0aG9uJywgJy1waHQnLCAnMi4wJywgJy1waCcsICc3LjAnLCAnLXRuJywgJzgnLCAnLW1hJywgJzIwMCcsICctaW1hZScsICc8aW5maWxlLm1hZT4nLCAnLW9tYWUnLCAnPG91dGZpbGUubWFlPic=

>  <r_lp_tautomer_probability>  (110) 
1

>  <r_epik_Ionization_Penalty>  (110) 
0.00819044

>  <r_epik_Ionization_Penalty_Charging>  (110) 
0.00818989

>  <r_epik_Ionization_Penalty_Neutral>  (110) 
5.52343e-07

>  <r_epik_State_Penalty>  (110) 
0.00615881

>  <r_epik_Charging_Adjusted_Penalty>  (110) 
0.0143487

>  <i_epik_Tot_Q>  (110) 
1

>  <i_epik_Tot_abs_Q>  (110) 
1

>  <s_lp_Force_Field>  (110) 
OPLS3e

>  <r_lp_Energy>  (110) 
47.2873

>  <b_lp_Chiralities_Consistent>  (110) 
1

>  <s_lp_Variant>  (110) 
34:0-1

>  <s_i_glide_gridfile>  (110) 
pfpi4k_grid

>  <i_i_glide_lignum>  (110) 
44

>  <i_i_glide_rotatable_bonds>  (110) 
4

>  <r_i_docking_score>  (110) 
-2.23704

>  <r_i_glide_ligand_efficiency>  (110) 
-0.0621399

>  <r_i_glide_ligand_efficiency_sa>  (110) 
-0.205181

>  <r_i_glide_ligand_efficiency_ln>  (110) 
-0.488061

>  <r_i_glide_gscore>  (110) 
-2.23704

>  <r_i_glide_lipo>  (110) 
-0.661796

>  <r_i_glide_hbond>  (110) 
-0.0988713

>  <r_i_glide_metal>  (110) 
-0

>  <r_i_glide_rewards>  (110) 
-0.00874691

>  <r_i_glide_evdw>  (110) 
-30.7212

>  <r_i_glide_ecoul>  (110) 
-0.44771

>  <r_i_glide_erotb>  (110) 
0.164104

>  <r_i_glide_esite>  (110) 
-0.0285103

>  <r_i_glide_emodel>  (110) 
-33.3188

>  <r_i_glide_energy>  (110) 
-31.1689

>  <r_i_glide_einternal>  (110) 
2.47173

>  <r_i_glide_intrahb_reward>  (110) 
-0

>  <i_i_glide_confnum>  (110) 
4

>  <i_i_glide_posenum>  (110) 
1

>  <r_i_glide_eff_state_penalty>  (110) 
0

>  <ligand_id>  (110) 
34

>  <original_smiles>  (110) 
CCC1C2C(C)OCC2C2C(C=CC3C4OC5(CC(O)CCC35C)CC4C)N(C)CC23CCC(=O)C13

>  <smiles>  (110) 
[H]OC1([H])C([H])([H])C([H])([H])C2(C([H])([H])[H])C([H])(C([H])=C([H])C3([H])C4([H])C5([H])C([H])([H])OC([H])(C([H])([H])[H])C5([H])C([H])(C([H])([H])C([H])([H])[H])C5([H])C(=O)C([H])([H])C([H])([H])C54C([H])([H])[N+]3([H])C([H])([H])[H])C3([H])OC2(C1([H])[H])C([H])([H])C3([H])C([H])([H])[H]

$$$$
34:1:0
     RDKit          3D

 84 90  0  0  1  0  0  0  0  0999 V2000
    3.8691   -9.8690    7.5985 C   0  0  0  0  0  0  0  0  0  0  0  0
    4.1988   -9.0217    6.3559 C   0  0  0  0  0  0  0  0  0  0  0  0
    3.5209   -9.4240    5.0179 C   0  0  2  0  0  0  0  0  0  0  0  0
    4.3248   -8.8931    3.8000 C   0  0  2  0  0  0  0  0  0  0  0  0
    4.6951   -7.3968    3.7245 C   0  0  1  0  0  0  0  0  0  0  0  0
    6.0521   -7.0001    4.3037 C   0  0  0  0  0  0  0  0  0  0  0  0
    4.7893   -7.1177    2.3296 O   0  0  0  0  0  0  0  0  0  0  0  0
    4.5232   -8.2730    1.5534 C   0  0  0  0  0  0  0  0  0  0  0  0
    3.6774   -9.1587    2.4466 C   0  0  2  0  0  0  0  0  0  0  0  0
    2.1454   -8.8968    2.3543 C   0  0  2  0  0  0  0  0  0  0  0  0
    1.6020   -7.4429    2.2990 C   0  0  1  0  0  0  0  0  0  0  0  0
    1.6150   -6.8433    0.9171 C   0  0  0  0  0  0  0  0  0  0  0  0
    2.2758   -5.7417    0.4821 C   0  0  0  0  0  0  0  0  0  0  0  0
    3.2008   -4.8173    1.2952 C   0  0  2  0  0  0  0  0  0  0  0  0
    2.4337   -3.6741    1.9603 C   0  0  2  0  0  0  0  0  0  0  0  0
    2.6452   -2.5961    1.0679 O   0  0  0  0  0  0  0  0  0  0  0  0
    4.0667   -2.6006    1.0633 C   0  0  2  0  0  0  0  0  0  0  0  0
    4.6721   -1.4469    0.2351 C   0  0  0  0  0  0  0  0  0  0  0  0
    4.5704   -1.6190   -1.2847 C   0  0  1  0  0  0  0  0  0  0  0  0
    5.3835   -0.6568   -1.9061 O   0  0  0  0  0  0  0  0  0  0  0  0
    5.0250   -3.0076   -1.7374 C   0  0  0  0  0  0  0  0  0  0  0  0
    4.1889   -4.0594   -1.0108 C   0  0  0  0  0  0  0  0  0  0  0  0
    4.3361   -4.0426    0.5337 C   0  0  2  0  0  0  0  0  0  0  0  0
    5.7568   -4.5554    0.8838 C   0  0  0  0  0  0  0  0  0  0  0  0
    4.3235   -2.4315    2.5784 C   0  0  0  0  0  0  0  0  0  0  0  0
    3.1621   -3.1853    3.2148 C   0  0  1  0  0  0  0  0  0  0  0  0
    2.2656   -2.3109    4.0982 C   0  0  0  0  0  0  0  0  0  0  0  0
    0.1808   -7.5358    2.7800 N   0  0  2  0  0  0  0  0  0  0  0  0
   -0.2171   -6.4674    3.7532 C   0  0  0  0  0  0  0  0  0  0  0  0
   -0.0338   -8.9108    3.3076 C   0  0  0  0  0  0  0  0  0  0  0  0
    1.3736   -9.5025    3.5279 C   0  0  1  0  0  0  0  0  0  0  0  0
    1.2751  -11.0516    3.5796 C   0  0  0  0  0  0  0  0  0  0  0  0
    0.8900  -11.3855    5.0211 C   0  0  0  0  0  0  0  0  0  0  0  0
    1.1655  -10.0800    5.7609 C   0  0  0  0  0  0  0  0  0  0  0  0
    0.6458   -9.7530    6.8273 O   0  0  0  0  0  0  0  0  0  0  0  0
    1.9821   -9.1316    4.9068 C   0  0  1  0  0  0  0  0  0  0  0  0
    4.6068   -9.7012    8.3896 H   0  0  0  0  0  0  0  0  0  0  0  0
    3.8734  -10.9359    7.3714 H   0  0  0  0  0  0  0  0  0  0  0  0
    2.8989   -9.6130    8.0227 H   0  0  0  0  0  0  0  0  0  0  0  0
    4.0278   -7.9668    6.5792 H   0  0  0  0  0  0  0  0  0  0  0  0
    5.2729   -9.1212    6.2091 H   0  0  0  0  0  0  0  0  0  0  0  0
    3.6253  -10.5085    4.9690 H   0  0  0  0  0  0  0  0  0  0  0  0
    5.2692   -9.4366    3.8058 H   0  0  0  0  0  0  0  0  0  0  0  0
    3.9144   -6.7807    4.1659 H   0  0  0  0  0  0  0  0  0  0  0  0
    6.1161   -7.1177    5.3845 H   0  0  0  0  0  0  0  0  0  0  0  0
    6.2369   -5.9550    4.0737 H   0  0  0  0  0  0  0  0  0  0  0  0
    6.8427   -7.5795    3.8331 H   0  0  0  0  0  0  0  0  0  0  0  0
    4.0414   -8.0112    0.6168 H   0  0  0  0  0  0  0  0  0  0  0  0
    5.4623   -8.7730    1.3137 H   0  0  0  0  0  0  0  0  0  0  0  0
    3.8295  -10.2022    2.1731 H   0  0  0  0  0  0  0  0  0  0  0  0
    1.7867   -9.4041    1.4579 H   0  0  0  0  0  0  0  0  0  0  0  0
    2.1383   -6.8031    2.9935 H   0  0  0  0  0  0  0  0  0  0  0  0
    1.0146   -7.3648    0.1875 H   0  0  0  0  0  0  0  0  0  0  0  0
    2.1164   -5.5085   -0.5530 H   0  0  0  0  0  0  0  0  0  0  0  0
    3.5889   -5.3790    2.1304 H   0  0  0  0  0  0  0  0  0  0  0  0
    1.4100   -3.9391    2.1680 H   0  0  0  0  0  0  0  0  0  0  0  0
    4.1662   -0.5223    0.5122 H   0  0  0  0  0  0  0  0  0  0  0  0
    5.7233   -1.3281    0.5215 H   0  0  0  0  0  0  0  0  0  0  0  0
    3.5399   -1.4581   -1.6039 H   0  0  0  0  0  0  0  0  0  0  0  0
    5.0633    0.2117   -1.6699 H   0  0  0  0  0  0  0  0  0  0  0  0
    4.8743   -3.1116   -2.8158 H   0  0  0  0  0  0  0  0  0  0  0  0
    6.0942   -3.1618   -1.5661 H   0  0  0  0  0  0  0  0  0  0  0  0
    3.1590   -3.8522   -1.3033 H   0  0  0  0  0  0  0  0  0  0  0  0
    4.4726   -5.0396   -1.3981 H   0  0  0  0  0  0  0  0  0  0  0  0
    6.5306   -3.8369    0.6169 H   0  0  0  0  0  0  0  0  0  0  0  0
    5.9924   -5.4819    0.3602 H   0  0  0  0  0  0  0  0  0  0  0  0
    5.8777   -4.7613    1.9468 H   0  0  0  0  0  0  0  0  0  0  0  0
    5.2969   -2.8030    2.8933 H   0  0  0  0  0  0  0  0  0  0  0  0
    4.2801   -1.3797    2.8546 H   0  0  0  0  0  0  0  0  0  0  0  0
    3.5286   -4.0175    3.8220 H   0  0  0  0  0  0  0  0  0  0  0  0
    1.8477   -1.4859    3.5221 H   0  0  0  0  0  0  0  0  0  0  0  0
    2.8201   -1.8938    4.9405 H   0  0  0  0  0  0  0  0  0  0  0  0
    1.4321   -2.8905    4.5004 H   0  0  0  0  0  0  0  0  0  0  0  0
    0.4007   -6.5015    4.6434 H   0  0  0  0  0  0  0  0  0  0  0  0
   -1.2557   -6.6102    4.0417 H   0  0  0  0  0  0  0  0  0  0  0  0
   -0.0980   -5.4936    3.2894 H   0  0  0  0  0  0  0  0  0  0  0  0
   -0.6997   -8.9380    4.1669 H   0  0  0  0  0  0  0  0  0  0  0  0
   -0.5380   -9.4614    2.5111 H   0  0  0  0  0  0  0  0  0  0  0  0
    0.5705  -11.4794    2.8595 H   0  0  0  0  0  0  0  0  0  0  0  0
    2.2497  -11.5069    3.3791 H   0  0  0  0  0  0  0  0  0  0  0  0
   -0.1661  -11.6378    5.1269 H   0  0  0  0  0  0  0  0  0  0  0  0
    1.4972  -12.2095    5.3836 H   0  0  0  0  0  0  0  0  0  0  0  0
    1.7574   -8.1007    5.2016 H   0  0  0  0  0  0  0  0  0  0  0  0
   -0.4205   -7.4872    1.9666 H   0  0  0  0  0  0  0  0  0  0  0  0
  1  2  1  0
  1 37  1  0
  1 38  1  0
  1 39  1  0
  2  3  1  0
  2 40  1  0
  2 41  1  0
  3 36  1  0
  3  4  1  0
  3 42  1  6
  4  9  1  0
  4  5  1  0
  4 43  1  6
  5  6  1  0
  5  7  1  0
  5 44  1  1
  6 45  1  0
  6 46  1  0
  6 47  1  0
  7  8  1  0
  8  9  1  0
  8 48  1  0
  8 49  1  0
  9 10  1  0
  9 50  1  6
 10 31  1  0
 10 11  1  0
 10 51  1  6
 11 12  1  0
 11 28  1  0
 11 52  1  1
 12 13  2  3
 12 53  1  0
 13 14  1  0
 13 54  1  0
 14 23  1  0
 14 15  1  0
 14 55  1  1
 15 26  1  0
 15 16  1  0
 15 56  1  1
 16 17  1  0
 17 23  1  0
 17 18  1  6
 17 25  1  0
 18 19  1  0
 18 57  1  0
 18 58  1  0
 19 20  1  0
 19 21  1  0
 19 59  1  6
 20 60  1  0
 21 22  1  0
 21 61  1  0
 21 62  1  0
 22 23  1  0
 22 63  1  0
 22 64  1  0
 23 24  1  6
 24 65  1  0
 24 66  1  0
 24 67  1  0
 25 26  1  0
 25 68  1  0
 25 69  1  0
 26 27  1  0
 26 70  1  1
 27 71  1  0
 27 72  1  0
 27 73  1  0
 28 29  1  0
 28 30  1  0
 28 84  1  6
 29 74  1  0
 29 75  1  0
 29 76  1  0
 31 30  1  1
 30 77  1  0
 30 78  1  0
 31 36  1  0
 31 32  1  0
 32 33  1  0
 32 79  1  0
 32 80  1  0
 33 34  1  0
 33 81  1  0
 33 82  1  0
 34 35  2  0
 34 36  1  0
 36 83  1  1
M  CHG  1  28   1
M  END
>  <i_m_ct_stereo_status>  (111) 
1

>  <s_m_source_file>  (111) 
/var/tmp/pbs.5076255.sched01/tmp7me73ahx/0ll6f151o.sdf

>  <i_m_source_file_index>  (111) 
45

>  <i_lp_mmshare_version>  (111) 
48012

>  <i_f3d_flags>  (111) 
0

>  <s_epik_input>  (111) 
W0NIMl0xW0NIMl1DKD1PKVtDQEhdMltDQEhdKFtDSDJdW0NIM10pW0NASF0oW0NAQEhdKFtDSDNdKU9bQ0gyXTMpW0NASF0zW0NAQEhdKFtDQEBdMTI0KVtDQEhdKE4oW0NIM10pW0NIMl00KS9bQ0hdPVtDSF0vW0NASF0oW0NASF0oTzUpW0NAQEhdKFtDSDJdNilbQ0gzXSlbQ0BAXShbQ0BAXTU2NykoW0NIM10pW0NIMl1bQ0gyXVtDQEBIXShbQ0gyXTcpW09IXQ==

>  <s_epik_cmdline>  (111) 
J2VwaWtfcHl0aG9uJywgJy1waHQnLCAnMi4wJywgJy1waCcsICc3LjAnLCAnLXRuJywgJzgnLCAnLW1hJywgJzIwMCcsICctaW1hZScsICc8aW5maWxlLm1hZT4nLCAnLW9tYWUnLCAnPG91dGZpbGUubWFlPic=

>  <r_lp_tautomer_probability>  (111) 
1

>  <r_epik_Ionization_Penalty>  (111) 
0.00819044

>  <r_epik_Ionization_Penalty_Charging>  (111) 
0.00818989

>  <r_epik_Ionization_Penalty_Neutral>  (111) 
5.52343e-07

>  <r_epik_State_Penalty>  (111) 
0.00615881

>  <r_epik_Charging_Adjusted_Penalty>  (111) 
0.0143487

>  <i_epik_Tot_Q>  (111) 
1

>  <i_epik_Tot_abs_Q>  (111) 
1

>  <s_lp_Force_Field>  (111) 
OPLS3e

>  <r_lp_Energy>  (111) 
47.073

>  <b_lp_Chiralities_Consistent>  (111) 
1

>  <s_lp_Variant>  (111) 
34:0-2

>  <s_i_glide_gridfile>  (111) 
pfpi4k_grid

>  <i_i_glide_lignum>  (111) 
45

>  <i_i_glide_rotatable_bonds>  (111) 
4

>  <r_i_docking_score>  (111) 
-2.5426

>  <r_i_glide_ligand_efficiency>  (111) 
-0.0706279

>  <r_i_glide_ligand_efficiency_sa>  (111) 
-0.233208

>  <r_i_glide_ligand_efficiency_ln>  (111) 
-0.554727

>  <r_i_glide_gscore>  (111) 
-2.5426

>  <r_i_glide_lipo>  (111) 
-0.36197

>  <r_i_glide_hbond>  (111) 
-0.299626

>  <r_i_glide_metal>  (111) 
-0

>  <r_i_glide_rewards>  (111) 
-0.00874691

>  <r_i_glide_evdw>  (111) 
-22.1761

>  <r_i_glide_ecoul>  (111) 
-5.28159

>  <r_i_glide_erotb>  (111) 
0.164104

>  <r_i_glide_esite>  (111) 
-0.135321

>  <r_i_glide_emodel>  (111) 
-30.1247

>  <r_i_glide_energy>  (111) 
-27.4577

>  <r_i_glide_einternal>  (111) 
3.04572

>  <r_i_glide_intrahb_reward>  (111) 
-0

>  <i_i_glide_confnum>  (111) 
4

>  <i_i_glide_posenum>  (111) 
30

>  <r_i_glide_eff_state_penalty>  (111) 
0

>  <ligand_id>  (111) 
34

>  <original_smiles>  (111) 
CCC1C2C(C)OCC2C2C(C=CC3C4OC5(CC(O)CCC35C)CC4C)N(C)CC23CCC(=O)C13

>  <smiles>  (111) 
[H]OC1([H])C([H])([H])C([H])([H])C2(C([H])([H])[H])C([H])(C([H])=C([H])C3([H])C4([H])C5([H])C([H])([H])OC([H])(C([H])([H])[H])C5([H])C([H])(C([H])([H])C([H])([H])[H])C5([H])C(=O)C([H])([H])C([H])([H])C54C([H])([H])[N+]3([H])C([H])([H])[H])C3([H])OC2(C1([H])[H])C([H])([H])C3([H])C([H])([H])[H]

$$$$
34:1:1
     RDKit          3D

 84 90  0  0  1  0  0  0  0  0999 V2000
    7.8407   -6.5239    4.2339 C   0  0  0  0  0  0  0  0  0  0  0  0
    7.6589   -7.5677    3.1199 C   0  0  0  0  0  0  0  0  0  0  0  0
    6.3226   -7.5424    2.3291 C   0  0  2  0  0  0  0  0  0  0  0  0
    6.2678   -6.4347    1.2318 C   0  0  2  0  0  0  0  0  0  0  0  0
    6.5658   -4.9726    1.6195 C   0  0  1  0  0  0  0  0  0  0  0  0
    8.0180   -4.5276    1.3715 C   0  0  0  0  0  0  0  0  0  0  0  0
    5.7235   -4.1820    0.7764 O   0  0  0  0  0  0  0  0  0  0  0  0
    5.1053   -4.9953   -0.2160 C   0  0  0  0  0  0  0  0  0  0  0  0
    4.9454   -6.3383    0.4774 C   0  0  2  0  0  0  0  0  0  0  0  0
    3.6650   -6.4513    1.3571 C   0  0  2  0  0  0  0  0  0  0  0  0
    3.2286   -5.2357    2.2327 C   0  0  1  0  0  0  0  0  0  0  0  0
    2.4713   -4.1742    1.4677 C   0  0  0  0  0  0  0  0  0  0  0  0
    2.2811   -2.8581    1.7849 C   0  0  0  0  0  0  0  0  0  0  0  0
    2.7142   -2.1297    3.0497 C   0  0  2  0  0  0  0  0  0  0  0  0
    1.7612   -2.3882    4.2350 C   0  0  2  0  0  0  0  0  0  0  0  0
    0.9127   -1.2887    4.2378 O   0  0  0  0  0  0  0  0  0  0  0  0
    1.9057   -0.2697    4.3693 C   0  0  2  0  0  0  0  0  0  0  0  0
    1.2526    1.1051    4.5222 C   0  0  0  0  0  0  0  0  0  0  0  0
    0.6476    1.6882    3.2398 C   0  0  1  0  0  0  0  0  0  0  0  0
    0.3858    3.0676    3.4350 O   0  0  0  0  0  0  0  0  0  0  0  0
    1.5762    1.5227    2.0428 C   0  0  0  0  0  0  0  0  0  0  0  0
    1.9304    0.0512    1.8503 C   0  0  0  0  0  0  0  0  0  0  0  0
    2.7014   -0.5574    3.0526 C   0  0  2  0  0  0  0  0  0  0  0  0
    4.1312    0.0346    3.1044 C   0  0  0  0  0  0  0  0  0  0  0  0
    2.5837   -0.7411    5.6696 C   0  0  0  0  0  0  0  0  0  0  0  0
    2.4789   -2.2550    5.5887 C   0  0  1  0  0  0  0  0  0  0  0  0
    1.7268   -2.9052    6.7616 C   0  0  0  0  0  0  0  0  0  0  0  0
    2.3787   -5.8320    3.3189 N   0  0  2  0  0  0  0  0  0  0  0  0
    2.7113   -5.3814    4.7089 C   0  0  0  0  0  0  0  0  0  0  0  0
    2.4270   -7.3177    3.1698 C   0  0  0  0  0  0  0  0  0  0  0  0
    3.7077   -7.6115    2.3566 C   0  0  1  0  0  0  0  0  0  0  0  0
    3.6181   -9.0578    1.8075 C   0  0  0  0  0  0  0  0  0  0  0  0
    4.1232   -9.9572    2.9331 C   0  0  0  0  0  0  0  0  0  0  0  0
    4.8740   -9.0020    3.8469 C   0  0  0  0  0  0  0  0  0  0  0  0
    5.2372   -9.2662    4.9953 O   0  0  0  0  0  0  0  0  0  0  0  0
    5.0183   -7.6345    3.1882 C   0  0  1  0  0  0  0  0  0  0  0  0
    8.7090   -6.7898    4.8514 H   0  0  0  0  0  0  0  0  0  0  0  0
    6.9754   -6.4671    4.8845 H   0  0  0  0  0  0  0  0  0  0  0  0
    8.0423   -5.5131    3.8677 H   0  0  0  0  0  0  0  0  0  0  0  0
    8.4869   -7.5093    2.4104 H   0  0  0  0  0  0  0  0  0  0  0  0
    7.7691   -8.5620    3.5704 H   0  0  0  0  0  0  0  0  0  0  0  0
    6.3422   -8.4585    1.7523 H   0  0  0  0  0  0  0  0  0  0  0  0
    7.0158   -6.7064    0.4889 H   0  0  0  0  0  0  0  0  0  0  0  0
    6.2651   -4.7823    2.6432 H   0  0  0  0  0  0  0  0  0  0  0  0
    8.7442   -5.0273    2.0303 H   0  0  0  0  0  0  0  0  0  0  0  0
    8.0971   -3.4599    1.5503 H   0  0  0  0  0  0  0  0  0  0  0  0
    8.3317   -4.7233    0.3462 H   0  0  0  0  0  0  0  0  0  0  0  0
    4.1753   -4.5695   -0.5873 H   0  0  0  0  0  0  0  0  0  0  0  0
    5.7815   -5.0783   -1.0636 H   0  0  0  0  0  0  0  0  0  0  0  0
    4.8793   -7.1361   -0.2614 H   0  0  0  0  0  0  0  0  0  0  0  0
    2.8377   -6.6536    0.6713 H   0  0  0  0  0  0  0  0  0  0  0  0
    4.0872   -4.7745    2.7154 H   0  0  0  0  0  0  0  0  0  0  0  0
    2.0578   -4.4840    0.5157 H   0  0  0  0  0  0  0  0  0  0  0  0
    1.7333   -2.3001    1.0380 H   0  0  0  0  0  0  0  0  0  0  0  0
    3.7039   -2.4973    3.2802 H   0  0  0  0  0  0  0  0  0  0  0  0
    1.2110   -3.3579    4.1413 H   0  0  0  0  0  0  0  0  0  0  0  0
    0.4770    1.0433    5.2889 H   0  0  0  0  0  0  0  0  0  0  0  0
    2.0245    1.7939    4.9184 H   0  0  0  0  0  0  0  0  0  0  0  0
   -0.3049    1.1892    3.0218 H   0  0  0  0  0  0  0  0  0  0  0  0
    0.2145    3.4679    2.5846 H   0  0  0  0  0  0  0  0  0  0  0  0
    1.0433    1.8701    1.1603 H   0  0  0  0  0  0  0  0  0  0  0  0
    2.4768    2.1303    2.1371 H   0  0  0  0  0  0  0  0  0  0  0  0
    0.9810   -0.4649    1.7098 H   0  0  0  0  0  0  0  0  0  0  0  0
    2.4952   -0.0842    0.9215 H   0  0  0  0  0  0  0  0  0  0  0  0
    4.1126    1.0704    3.4398 H   0  0  0  0  0  0  0  0  0  0  0  0
    4.6106    0.0060    2.1308 H   0  0  0  0  0  0  0  0  0  0  0  0
    4.7832   -0.5101    3.7980 H   0  0  0  0  0  0  0  0  0  0  0  0
    3.6110   -0.4082    5.7569 H   0  0  0  0  0  0  0  0  0  0  0  0
    2.0563   -0.3903    6.5554 H   0  0  0  0  0  0  0  0  0  0  0  0
    3.4898   -2.6528    5.5533 H   0  0  0  0  0  0  0  0  0  0  0  0
    0.7041   -2.5368    6.8361 H   0  0  0  0  0  0  0  0  0  0  0  0
    2.2359   -2.7172    7.7139 H   0  0  0  0  0  0  0  0  0  0  0  0
    1.6685   -3.9938    6.6642 H   0  0  0  0  0  0  0  0  0  0  0  0
    3.7291   -5.7068    4.9805 H   0  0  0  0  0  0  0  0  0  0  0  0
    2.0096   -5.8515    5.3920 H   0  0  0  0  0  0  0  0  0  0  0  0
    2.6509   -4.3970    4.6391 H   0  0  0  0  0  0  0  0  0  0  0  0
    2.3994   -7.7903    4.1546 H   0  0  0  0  0  0  0  0  0  0  0  0
    1.5310   -7.6093    2.6348 H   0  0  0  0  0  0  0  0  0  0  0  0
    2.6052   -9.3167    1.4799 H   0  0  0  0  0  0  0  0  0  0  0  0
    4.2702   -9.1665    0.9372 H   0  0  0  0  0  0  0  0  0  0  0  0
    3.2931  -10.4149    3.4880 H   0  0  0  0  0  0  0  0  0  0  0  0
    4.7668  -10.7515    2.5734 H   0  0  0  0  0  0  0  0  0  0  0  0
    5.0265   -6.8560    3.9552 H   0  0  0  0  0  0  0  0  0  0  0  0
    1.4258   -5.5595    3.1158 H   0  0  0  0  0  0  0  0  0  0  0  0
  1  2  1  0
  1 37  1  0
  1 38  1  0
  1 39  1  0
  2  3  1  0
  2 40  1  0
  2 41  1  0
  3 36  1  0
  3  4  1  0
  3 42  1  6
  4  9  1  0
  4  5  1  0
  4 43  1  6
  5  6  1  0
  5  7  1  0
  5 44  1  1
  6 45  1  0
  6 46  1  0
  6 47  1  0
  7  8  1  0
  8  9  1  0
  8 48  1  0
  8 49  1  0
  9 10  1  0
  9 50  1  6
 10 31  1  0
 10 11  1  0
 10 51  1  6
 11 12  1  0
 11 28  1  0
 11 52  1  1
 12 13  2  3
 12 53  1  0
 13 14  1  0
 13 54  1  0
 14 23  1  0
 14 15  1  0
 14 55  1  1
 15 26  1  0
 15 16  1  0
 15 56  1  6
 16 17  1  0
 17 23  1  0
 17 18  1  1
 17 25  1  0
 18 19  1  0
 18 57  1  0
 18 58  1  0
 19 20  1  0
 19 21  1  0
 19 59  1  6
 20 60  1  0
 21 22  1  0
 21 61  1  0
 21 62  1  0
 22 23  1  0
 22 63  1  0
 22 64  1  0
 23 24  1  1
 24 65  1  0
 24 66  1  0
 24 67  1  0
 25 26  1  0
 25 68  1  0
 25 69  1  0
 26 27  1  0
 26 70  1  6
 27 71  1  0
 27 72  1  0
 27 73  1  0
 28 29  1  0
 28 30  1  0
 28 84  1  6
 29 74  1  0
 29 75  1  0
 29 76  1  0
 31 30  1  1
 30 77  1  0
 30 78  1  0
 31 36  1  0
 31 32  1  0
 32 33  1  0
 32 79  1  0
 32 80  1  0
 33 34  1  0
 33 81  1  0
 33 82  1  0
 34 35  2  0
 34 36  1  0
 36 83  1  1
M  CHG  1  28   1
M  END
>  <i_m_ct_stereo_status>  (112) 
1

>  <s_m_source_file>  (112) 
/var/tmp/pbs.5076255.sched01/tmp7me73ahx/0ll6f151o.sdf

>  <i_m_source_file_index>  (112) 
45

>  <i_lp_mmshare_version>  (112) 
48012

>  <i_f3d_flags>  (112) 
0

>  <s_epik_input>  (112) 
W0NIMl0xW0NIMl1DKD1PKVtDQEhdMltDQEhdKFtDSDJdW0NIM10pW0NASF0oW0NAQEhdKFtDSDNdKU9bQ0gyXTMpW0NASF0zW0NAQEhdKFtDQEBdMTI0KVtDQEhdKE4oW0NIM10pW0NIMl00KS9bQ0hdPVtDSF0vW0NASF0oW0NASF0oTzUpW0NAQEhdKFtDSDJdNilbQ0gzXSlbQ0BAXShbQ0BAXTU2NykoW0NIM10pW0NIMl1bQ0gyXVtDQEBIXShbQ0gyXTcpW09IXQ==

>  <s_epik_cmdline>  (112) 
J2VwaWtfcHl0aG9uJywgJy1waHQnLCAnMi4wJywgJy1waCcsICc3LjAnLCAnLXRuJywgJzgnLCAnLW1hJywgJzIwMCcsICctaW1hZScsICc8aW5maWxlLm1hZT4nLCAnLW9tYWUnLCAnPG91dGZpbGUubWFlPic=

>  <r_lp_tautomer_probability>  (112) 
1

>  <r_epik_Ionization_Penalty>  (112) 
0.00819044

>  <r_epik_Ionization_Penalty_Charging>  (112) 
0.00818989

>  <r_epik_Ionization_Penalty_Neutral>  (112) 
5.52343e-07

>  <r_epik_State_Penalty>  (112) 
0.00615881

>  <r_epik_Charging_Adjusted_Penalty>  (112) 
0.0143487

>  <i_epik_Tot_Q>  (112) 
1

>  <i_epik_Tot_abs_Q>  (112) 
1

>  <s_lp_Force_Field>  (112) 
OPLS3e

>  <r_lp_Energy>  (112) 
47.073

>  <b_lp_Chiralities_Consistent>  (112) 
1

>  <s_lp_Variant>  (112) 
34:0-2

>  <s_i_glide_gridfile>  (112) 
pfpi4k_grid

>  <i_i_glide_lignum>  (112) 
45

>  <i_i_glide_rotatable_bonds>  (112) 
4

>  <r_i_docking_score>  (112) 
-2.2495

>  <r_i_glide_ligand_efficiency>  (112) 
-0.0624862

>  <r_i_glide_ligand_efficiency_sa>  (112) 
-0.206325

>  <r_i_glide_ligand_efficiency_ln>  (112) 
-0.490781

>  <r_i_glide_gscore>  (112) 
-2.2495

>  <r_i_glide_lipo>  (112) 
-0.579061

>  <r_i_glide_hbond>  (112) 
-0.16

>  <r_i_glide_metal>  (112) 
-0

>  <r_i_glide_rewards>  (112) 
-0.00874691

>  <r_i_glide_evdw>  (112) 
-20.7097

>  <r_i_glide_ecoul>  (112) 
-4.18757

>  <r_i_glide_erotb>  (112) 
0.164104

>  <r_i_glide_esite>  (112) 
-0.00217998

>  <r_i_glide_emodel>  (112) 
-23.362

>  <r_i_glide_energy>  (112) 
-24.8972

>  <r_i_glide_einternal>  (112) 
6.42591

>  <r_i_glide_intrahb_reward>  (112) 
-0

>  <i_i_glide_confnum>  (112) 
4

>  <i_i_glide_posenum>  (112) 
7

>  <r_i_glide_eff_state_penalty>  (112) 
0

>  <ligand_id>  (112) 
34

>  <original_smiles>  (112) 
CCC1C2C(C)OCC2C2C(C=CC3C4OC5(CC(O)CCC35C)CC4C)N(C)CC23CCC(=O)C13

>  <smiles>  (112) 
[H]OC1([H])C([H])([H])C([H])([H])C2(C([H])([H])[H])C([H])(C([H])=C([H])C3([H])C4([H])C5([H])C([H])([H])OC([H])(C([H])([H])[H])C5([H])C([H])(C([H])([H])C([H])([H])[H])C5([H])C(=O)C([H])([H])C([H])([H])C54C([H])([H])[N+]3([H])C([H])([H])[H])C3([H])OC2(C1([H])[H])C([H])([H])C3([H])C([H])([H])[H]

$$$$
34:1:2
     RDKit          3D

 84 90  0  0  1  0  0  0  0  0999 V2000
    1.0064   -6.4680    6.3937 C   0  0  0  0  0  0  0  0  0  0  0  0
    1.3285   -4.9800    6.6209 C   0  0  0  0  0  0  0  0  0  0  0  0
    2.6298   -4.4296    5.9767 C   0  0  2  0  0  0  0  0  0  0  0  0
    3.1061   -3.1560    6.7158 C   0  0  2  0  0  0  0  0  0  0  0  0
    2.1050   -2.0007    6.9161 C   0  0  1  0  0  0  0  0  0  0  0  0
    1.3200   -1.9694    8.2273 C   0  0  0  0  0  0  0  0  0  0  0  0
    2.9170   -0.8395    6.9581 O   0  0  0  0  0  0  0  0  0  0  0  0
    4.2907   -1.1449    6.8298 C   0  0  0  0  0  0  0  0  0  0  0  0
    4.3199   -2.4737    6.0908 C   0  0  2  0  0  0  0  0  0  0  0  0
    4.3336   -2.3472    4.5351 C   0  0  2  0  0  0  0  0  0  0  0  0
    3.4236   -1.2975    3.8421 C   0  0  1  0  0  0  0  0  0  0  0  0
    4.0114    0.1002    3.8115 C   0  0  0  0  0  0  0  0  0  0  0  0
    3.5270    1.2542    4.3075 C   0  0  0  0  0  0  0  0  0  0  0  0
    2.1791    1.4786    5.0561 C   0  0  2  0  0  0  0  0  0  0  0  0
    0.9606    0.9510    4.2782 C   0  0  2  0  0  0  0  0  0  0  0  0
    0.4254    2.1283    3.7020 O   0  0  0  0  0  0  0  0  0  0  0  0
    0.2529    2.8734    4.8854 C   0  0  2  0  0  0  0  0  0  0  0  0
   -0.4046    4.2385    4.6189 C   0  0  0  0  0  0  0  0  0  0  0  0
    0.5246    5.2836    3.9733 C   0  0  1  0  0  0  0  0  0  0  0  0
   -0.1061    6.5443    4.0886 O   0  0  0  0  0  0  0  0  0  0  0  0
    1.8769    5.3713    4.6804 C   0  0  0  0  0  0  0  0  0  0  0  0
    2.5436    3.9988    4.6630 C   0  0  0  0  0  0  0  0  0  0  0  0
    1.7256    2.9257    5.4021 C   0  0  2  0  0  0  0  0  0  0  0  0
    1.7892    3.1885    6.9391 C   0  0  0  0  0  0  0  0  0  0  0  0
   -0.6789    1.8903    5.6362 C   0  0  0  0  0  0  0  0  0  0  0  0
   -0.1711    0.5208    5.2122 C   0  0  1  0  0  0  0  0  0  0  0  0
   -1.2143   -0.3434    4.4732 C   0  0  0  0  0  0  0  0  0  0  0  0
    3.2250   -1.8009    2.4385 N   0  0  2  0  0  0  0  0  0  0  0  0
    1.8346   -1.7318    1.8750 C   0  0  0  0  0  0  0  0  0  0  0  0
    3.7849   -3.1779    2.3832 C   0  0  0  0  0  0  0  0  0  0  0  0
    3.9254   -3.6513    3.8389 C   0  0  1  0  0  0  0  0  0  0  0  0
    4.9417   -4.8193    3.9173 C   0  0  0  0  0  0  0  0  0  0  0  0
    4.1438   -6.0881    3.5671 C   0  0  0  0  0  0  0  0  0  0  0  0
    2.7092   -5.6390    3.7316 C   0  0  0  0  0  0  0  0  0  0  0  0
    1.7394   -6.2365    3.2315 O   0  0  0  0  0  0  0  0  0  0  0  0
    2.6223   -4.2848    4.4113 C   0  0  1  0  0  0  0  0  0  0  0  0
    0.2660   -6.8247    7.1142 H   0  0  0  0  0  0  0  0  0  0  0  0
    1.8976   -7.0908    6.5041 H   0  0  0  0  0  0  0  0  0  0  0  0
    0.5792   -6.6457    5.4070 H   0  0  0  0  0  0  0  0  0  0  0  0
    0.4657   -4.3755    6.3351 H   0  0  0  0  0  0  0  0  0  0  0  0
    1.4289   -4.8633    7.6987 H   0  0  0  0  0  0  0  0  0  0  0  0
    3.3952   -5.1755    6.2072 H   0  0  0  0  0  0  0  0  0  0  0  0
    3.3942   -3.4628    7.7199 H   0  0  0  0  0  0  0  0  0  0  0  0
    1.4181   -1.9543    6.0737 H   0  0  0  0  0  0  0  0  0  0  0  0
    0.6018   -2.7780    8.3212 H   0  0  0  0  0  0  0  0  0  0  0  0
    0.7765   -1.0291    8.2851 H   0  0  0  0  0  0  0  0  0  0  0  0
    1.9999   -1.9928    9.0719 H   0  0  0  0  0  0  0  0  0  0  0  0
    4.8333   -0.3526    6.3198 H   0  0  0  0  0  0  0  0  0  0  0  0
    4.7199   -1.2603    7.8275 H   0  0  0  0  0  0  0  0  0  0  0  0
    5.2197   -3.0199    6.3758 H   0  0  0  0  0  0  0  0  0  0  0  0
    5.3615   -2.1305    4.2376 H   0  0  0  0  0  0  0  0  0  0  0  0
    2.4725   -1.3181    4.3565 H   0  0  0  0  0  0  0  0  0  0  0  0
    4.9667    0.1812    3.3082 H   0  0  0  0  0  0  0  0  0  0  0  0
    4.1709    2.1035    4.1893 H   0  0  0  0  0  0  0  0  0  0  0  0
    2.2858    1.0191    6.0046 H   0  0  0  0  0  0  0  0  0  0  0  0
    1.1694    0.1999    3.5391 H   0  0  0  0  0  0  0  0  0  0  0  0
   -1.2530    4.0728    3.9559 H   0  0  0  0  0  0  0  0  0  0  0  0
   -0.7943    4.6053    5.5733 H   0  0  0  0  0  0  0  0  0  0  0  0
    0.6804    5.0300    2.9220 H   0  0  0  0  0  0  0  0  0  0  0  0
    0.2129    7.1392    3.3988 H   0  0  0  0  0  0  0  0  0  0  0  0
    2.5177    6.0941    4.1745 H   0  0  0  0  0  0  0  0  0  0  0  0
    1.7567    5.7234    5.7092 H   0  0  0  0  0  0  0  0  0  0  0  0
    2.6755    3.7174    3.6153 H   0  0  0  0  0  0  0  0  0  0  0  0
    3.5356    4.0959    5.1015 H   0  0  0  0  0  0  0  0  0  0  0  0
    1.1893    4.0535    7.2270 H   0  0  0  0  0  0  0  0  0  0  0  0
    2.8132    3.3660    7.2688 H   0  0  0  0  0  0  0  0  0  0  0  0
    1.4221    2.3508    7.5274 H   0  0  0  0  0  0  0  0  0  0  0  0
   -0.6519    2.0177    6.7202 H   0  0  0  0  0  0  0  0  0  0  0  0
   -1.7111    2.0110    5.3131 H   0  0  0  0  0  0  0  0  0  0  0  0
    0.1949   -0.0316    6.0722 H   0  0  0  0  0  0  0  0  0  0  0  0
   -1.5723    0.1673    3.5799 H   0  0  0  0  0  0  0  0  0  0  0  0
   -2.0805   -0.5708    5.0968 H   0  0  0  0  0  0  0  0  0  0  0  0
   -0.7861   -1.2932    4.1486 H   0  0  0  0  0  0  0  0  0  0  0  0
    1.1405   -2.2409    2.5187 H   0  0  0  0  0  0  0  0  0  0  0  0
    1.8435   -2.1975    0.9007 H   0  0  0  0  0  0  0  0  0  0  0  0
    1.5293   -0.7123    1.7158 H   0  0  0  0  0  0  0  0  0  0  0  0
    3.2159   -3.8352    1.7383 H   0  0  0  0  0  0  0  0  0  0  0  0
    4.7744   -3.0774    1.9391 H   0  0  0  0  0  0  0  0  0  0  0  0
    5.8103   -4.6879    3.2633 H   0  0  0  0  0  0  0  0  0  0  0  0
    5.3251   -4.9276    4.9382 H   0  0  0  0  0  0  0  0  0  0  0  0
    4.3050   -6.3982    2.5345 H   0  0  0  0  0  0  0  0  0  0  0  0
    4.3822   -6.9253    4.2271 H   0  0  0  0  0  0  0  0  0  0  0  0
    1.7238   -3.7520    4.0805 H   0  0  0  0  0  0  0  0  0  0  0  0
    3.7974   -1.2379    1.8192 H   0  0  0  0  0  0  0  0  0  0  0  0
  1  2  1  0
  1 37  1  0
  1 38  1  0
  1 39  1  0
  2  3  1  0
  2 40  1  0
  2 41  1  0
  3 36  1  0
  3  4  1  0
  3 42  1  6
  4  9  1  0
  4  5  1  0
  4 43  1  1
  5  6  1  0
  5  7  1  0
  5 44  1  6
  6 45  1  0
  6 46  1  0
  6 47  1  0
  7  8  1  0
  8  9  1  0
  8 48  1  0
  8 49  1  0
  9 10  1  0
  9 50  1  1
 10 31  1  0
 10 11  1  0
 10 51  1  6
 11 12  1  0
 11 28  1  0
 11 52  1  1
 12 13  2  3
 12 53  1  0
 13 14  1  0
 13 54  1  0
 14 23  1  0
 14 15  1  0
 14 55  1  1
 15 26  1  0
 15 16  1  0
 15 56  1  6
 16 17  1  0
 17 23  1  0
 17 18  1  6
 17 25  1  0
 18 19  1  0
 18 57  1  0
 18 58  1  0
 19 20  1  0
 19 21  1  0
 19 59  1  6
 20 60  1  0
 21 22  1  0
 21 61  1  0
 21 62  1  0
 22 23  1  0
 22 63  1  0
 22 64  1  0
 23 24  1  1
 24 65  1  0
 24 66  1  0
 24 67  1  0
 25 26  1  0
 25 68  1  0
 25 69  1  0
 26 27  1  0
 26 70  1  1
 27 71  1  0
 27 72  1  0
 27 73  1  0
 28 29  1  0
 28 30  1  0
 28 84  1  6
 29 74  1  0
 29 75  1  0
 29 76  1  0
 31 30  1  6
 30 77  1  0
 30 78  1  0
 31 36  1  0
 31 32  1  0
 32 33  1  0
 32 79  1  0
 32 80  1  0
 33 34  1  0
 33 81  1  0
 33 82  1  0
 34 35  2  0
 34 36  1  0
 36 83  1  6
M  CHG  1  28   1
M  END
>  <i_m_ct_stereo_status>  (113) 
1

>  <s_m_source_file>  (113) 
/var/tmp/pbs.5076255.sched01/tmp7me73ahx/0ll6f151o.sdf

>  <i_m_source_file_index>  (113) 
45

>  <i_lp_mmshare_version>  (113) 
48012

>  <i_f3d_flags>  (113) 
0

>  <s_epik_input>  (113) 
W0NIMl0xW0NIMl1DKD1PKVtDQEhdMltDQEhdKFtDSDJdW0NIM10pW0NASF0oW0NAQEhdKFtDSDNdKU9bQ0gyXTMpW0NASF0zW0NAQEhdKFtDQEBdMTI0KVtDQEhdKE4oW0NIM10pW0NIMl00KS9bQ0hdPVtDSF0vW0NASF0oW0NASF0oTzUpW0NAQEhdKFtDSDJdNilbQ0gzXSlbQ0BAXShbQ0BAXTU2NykoW0NIM10pW0NIMl1bQ0gyXVtDQEBIXShbQ0gyXTcpW09IXQ==

>  <s_epik_cmdline>  (113) 
J2VwaWtfcHl0aG9uJywgJy1waHQnLCAnMi4wJywgJy1waCcsICc3LjAnLCAnLXRuJywgJzgnLCAnLW1hJywgJzIwMCcsICctaW1hZScsICc8aW5maWxlLm1hZT4nLCAnLW9tYWUnLCAnPG91dGZpbGUubWFlPic=

>  <r_lp_tautomer_probability>  (113) 
1

>  <r_epik_Ionization_Penalty>  (113) 
0.00819044

>  <r_epik_Ionization_Penalty_Charging>  (113) 
0.00818989

>  <r_epik_Ionization_Penalty_Neutral>  (113) 
5.52343e-07

>  <r_epik_State_Penalty>  (113) 
0.00615881

>  <r_epik_Charging_Adjusted_Penalty>  (113) 
0.0143487

>  <i_epik_Tot_Q>  (113) 
1

>  <i_epik_Tot_abs_Q>  (113) 
1

>  <s_lp_Force_Field>  (113) 
OPLS3e

>  <r_lp_Energy>  (113) 
47.073

>  <b_lp_Chiralities_Consistent>  (113) 
1

>  <s_lp_Variant>  (113) 
34:0-2

>  <s_i_glide_gridfile>  (113) 
pfpi4k_grid

>  <i_i_glide_lignum>  (113) 
45

>  <i_i_glide_rotatable_bonds>  (113) 
4

>  <r_i_docking_score>  (113) 
-2.14539

>  <r_i_glide_ligand_efficiency>  (113) 
-0.059594

>  <r_i_glide_ligand_efficiency_sa>  (113) 
-0.196775

>  <r_i_glide_ligand_efficiency_ln>  (113) 
-0.468065

>  <r_i_glide_gscore>  (113) 
-2.14539

>  <r_i_glide_lipo>  (113) 
-0.0162724

>  <r_i_glide_hbond>  (113) 
-0.174586

>  <r_i_glide_metal>  (113) 
-0

>  <r_i_glide_rewards>  (113) 
-0.00874691

>  <r_i_glide_evdw>  (113) 
-14.3888

>  <r_i_glide_ecoul>  (113) 
-8.92888

>  <r_i_glide_erotb>  (113) 
0.114873

>  <r_i_glide_esite>  (113) 
-0.00188202

>  <r_i_glide_emodel>  (113) 
-23.7347

>  <r_i_glide_energy>  (113) 
-23.3177

>  <r_i_glide_einternal>  (113) 
4.68046

>  <r_i_glide_intrahb_reward>  (113) 
-0

>  <i_i_glide_confnum>  (113) 
3

>  <i_i_glide_posenum>  (113) 
9

>  <r_i_glide_eff_state_penalty>  (113) 
0

>  <ligand_id>  (113) 
34

>  <original_smiles>  (113) 
CCC1C2C(C)OCC2C2C(C=CC3C4OC5(CC(O)CCC35C)CC4C)N(C)CC23CCC(=O)C13

>  <smiles>  (113) 
[H]OC1([H])C([H])([H])C([H])([H])C2(C([H])([H])[H])C([H])(C([H])=C([H])C3([H])C4([H])C5([H])C([H])([H])OC([H])(C([H])([H])[H])C5([H])C([H])(C([H])([H])C([H])([H])[H])C5([H])C(=O)C([H])([H])C([H])([H])C54C([H])([H])[N+]3([H])C([H])([H])[H])C3([H])OC2(C1([H])[H])C([H])([H])C3([H])C([H])([H])[H]

$$$$
34:2:0
     RDKit          3D

 83 89  0  0  1  0  0  0  0  0999 V2000
    4.0108  -10.4586    3.9095 C   0  0  0  0  0  0  0  0  0  0  0  0
    3.3739  -10.2900    2.5122 C   0  0  0  0  0  0  0  0  0  0  0  0
    2.4339   -9.0781    2.3443 C   0  0  2  0  0  0  0  0  0  0  0  0
    3.1749   -7.7715    2.0317 C   0  0  2  0  0  0  0  0  0  0  0  0
    4.1330   -7.1564    3.0725 C   0  0  1  0  0  0  0  0  0  0  0  0
    5.6125   -7.5664    2.9339 C   0  0  0  0  0  0  0  0  0  0  0  0
    4.0226   -5.7446    2.8566 O   0  0  0  0  0  0  0  0  0  0  0  0
    3.2013   -5.4863    1.7174 C   0  0  0  0  0  0  0  0  0  0  0  0
    2.2123   -6.6307    1.7397 C   0  0  2  0  0  0  0  0  0  0  0  0
    1.0296   -6.4351    2.7493 C   0  0  2  0  0  0  0  0  0  0  0  0
    1.2112   -5.6095    4.0525 C   0  0  1  0  0  0  0  0  0  0  0  0
    1.3099   -4.1133    3.8280 C   0  0  0  0  0  0  0  0  0  0  0  0
    2.0765   -3.2614    4.5535 C   0  0  0  0  0  0  0  0  0  0  0  0
    2.1673   -1.7521    4.3517 C   0  0  2  0  0  0  0  0  0  0  0  0
    1.0984   -1.1682    3.3957 C   0  0  2  0  0  0  0  0  0  0  0  0
    1.8289   -1.0567    2.1842 O   0  0  0  0  0  0  0  0  0  0  0  0
    2.9047   -0.2604    2.6529 C   0  0  2  0  0  0  0  0  0  0  0  0
    3.8715    0.1454    1.5271 C   0  0  0  0  0  0  0  0  0  0  0  0
    4.7221   -0.9902    0.9425 C   0  0  1  0  0  0  0  0  0  0  0  0
    5.7406   -0.4574    0.1195 O   0  0  0  0  0  0  0  0  0  0  0  0
    5.3853   -1.8164    2.0433 C   0  0  0  0  0  0  0  0  0  0  0  0
    4.3165   -2.3294    3.0192 C   0  0  0  0  0  0  0  0  0  0  0  0
    3.4965   -1.2142    3.7330 C   0  0  2  0  0  0  0  0  0  0  0  0
    4.4004   -0.5142    4.7757 C   0  0  0  0  0  0  0  0  0  0  0  0
    2.1090    0.9443    3.2065 C   0  0  0  0  0  0  0  0  0  0  0  0
    0.8054    0.3078    3.6781 C   0  0  1  0  0  0  0  0  0  0  0  0
   -0.4341    0.8013    2.9066 C   0  0  0  0  0  0  0  0  0  0  0  0
   -0.0357   -5.9114    4.7520 N   0  0  0  0  0  0  0  0  0  0  0  0
   -0.0227   -5.5017    6.1516 C   0  0  0  0  0  0  0  0  0  0  0  0
   -0.2252   -7.3436    4.6197 C   0  0  0  0  0  0  0  0  0  0  0  0
    0.3866   -7.7353    3.2535 C   0  0  1  0  0  0  0  0  0  0  0  0
   -0.6935   -8.3081    2.3126 C   0  0  0  0  0  0  0  0  0  0  0  0
   -0.8843   -9.7640    2.7386 C   0  0  0  0  0  0  0  0  0  0  0  0
    0.3993  -10.0895    3.4659 C   0  0  0  0  0  0  0  0  0  0  0  0
    0.6331  -11.1809    4.0146 O   0  0  0  0  0  0  0  0  0  0  0  0
    1.3675   -8.9209    3.4591 C   0  0  1  0  0  0  0  0  0  0  0  0
    4.7200  -11.2897    3.8804 H   0  0  0  0  0  0  0  0  0  0  0  0
    3.2476  -10.7719    4.6404 H   0  0  0  0  0  0  0  0  0  0  0  0
    4.5370   -9.5804    4.2550 H   0  0  0  0  0  0  0  0  0  0  0  0
    4.1397  -10.2313    1.7458 H   0  0  0  0  0  0  0  0  0  0  0  0
    2.8263  -11.2021    2.2767 H   0  0  0  0  0  0  0  0  0  0  0  0
    1.8740   -9.2914    1.4307 H   0  0  0  0  0  0  0  0  0  0  0  0
    3.7544   -7.9371    1.1210 H   0  0  0  0  0  0  0  0  0  0  0  0
    3.7797   -7.3480    4.0819 H   0  0  0  0  0  0  0  0  0  0  0  0
    5.7713   -8.6268    3.1096 H   0  0  0  0  0  0  0  0  0  0  0  0
    6.2150   -6.9956    3.6482 H   0  0  0  0  0  0  0  0  0  0  0  0
    5.9925   -7.2853    1.9425 H   0  0  0  0  0  0  0  0  0  0  0  0
    2.6996   -4.5195    1.7182 H   0  0  0  0  0  0  0  0  0  0  0  0
    3.8338   -5.5357    0.8285 H   0  0  0  0  0  0  0  0  0  0  0  0
    1.7886   -6.7468    0.7399 H   0  0  0  0  0  0  0  0  0  0  0  0
    0.2565   -5.9162    2.1834 H   0  0  0  0  0  0  0  0  0  0  0  0
    2.0572   -5.9704    4.6387 H   0  0  0  0  0  0  0  0  0  0  0  0
    0.7050   -3.7371    3.0220 H   0  0  0  0  0  0  0  0  0  0  0  0
    2.6813   -3.6545    5.3519 H   0  0  0  0  0  0  0  0  0  0  0  0
    2.0121   -1.3218    5.3386 H   0  0  0  0  0  0  0  0  0  0  0  0
    0.1697   -1.7333    3.3210 H   0  0  0  0  0  0  0  0  0  0  0  0
    3.3129    0.6359    0.7301 H   0  0  0  0  0  0  0  0  0  0  0  0
    4.5282    0.8916    1.9547 H   0  0  0  0  0  0  0  0  0  0  0  0
    4.0724   -1.6226    0.3317 H   0  0  0  0  0  0  0  0  0  0  0  0
    5.4152    0.3260   -0.3175 H   0  0  0  0  0  0  0  0  0  0  0  0
    5.8822   -2.6707    1.5914 H   0  0  0  0  0  0  0  0  0  0  0  0
    6.1638   -1.2445    2.5533 H   0  0  0  0  0  0  0  0  0  0  0  0
    3.6189   -2.9163    2.4191 H   0  0  0  0  0  0  0  0  0  0  0  0
    4.7730   -3.0036    3.7500 H   0  0  0  0  0  0  0  0  0  0  0  0
    5.2255    0.0134    4.2992 H   0  0  0  0  0  0  0  0  0  0  0  0
    4.8350   -1.2502    5.4513 H   0  0  0  0  0  0  0  0  0  0  0  0
    3.8566    0.2019    5.3894 H   0  0  0  0  0  0  0  0  0  0  0  0
    2.6303    1.4646    4.0073 H   0  0  0  0  0  0  0  0  0  0  0  0
    1.9082    1.6744    2.4219 H   0  0  0  0  0  0  0  0  0  0  0  0
    0.6445    0.4660    4.7464 H   0  0  0  0  0  0  0  0  0  0  0  0
   -0.3277    0.6374    1.8330 H   0  0  0  0  0  0  0  0  0  0  0  0
   -0.6020    1.8653    3.0649 H   0  0  0  0  0  0  0  0  0  0  0  0
   -1.3322    0.2749    3.2296 H   0  0  0  0  0  0  0  0  0  0  0  0
   -0.9484   -5.7891    6.6482 H   0  0  0  0  0  0  0  0  0  0  0  0
    0.0823   -4.4222    6.2454 H   0  0  0  0  0  0  0  0  0  0  0  0
    0.8083   -5.9670    6.6800 H   0  0  0  0  0  0  0  0  0  0  0  0
    0.2889   -7.8561    5.4390 H   0  0  0  0  0  0  0  0  0  0  0  0
   -1.2853   -7.5960    4.6995 H   0  0  0  0  0  0  0  0  0  0  0  0
   -1.6356   -7.7588    2.3436 H   0  0  0  0  0  0  0  0  0  0  0  0
   -0.3457   -8.2677    1.2804 H   0  0  0  0  0  0  0  0  0  0  0  0
   -1.7170   -9.8405    3.4279 H   0  0  0  0  0  0  0  0  0  0  0  0
   -1.0588  -10.4446    1.9073 H   0  0  0  0  0  0  0  0  0  0  0  0
    1.8771   -8.8362    4.4264 H   0  0  0  0  0  0  0  0  0  0  0  0
  1  2  1  0
  1 37  1  0
  1 38  1  0
  1 39  1  0
  2  3  1  0
  2 40  1  0
  2 41  1  0
  3 36  1  0
  3  4  1  0
  3 42  1  6
  4  9  1  0
  4  5  1  0
  4 43  1  6
  5  6  1  0
  5  7  1  0
  5 44  1  1
  6 45  1  0
  6 46  1  0
  6 47  1  0
  7  8  1  0
  8  9  1  0
  8 48  1  0
  8 49  1  0
  9 10  1  0
  9 50  1  6
 10 31  1  0
 10 11  1  0
 10 51  1  6
 11 12  1  0
 11 28  1  0
 11 52  1  1
 12 13  2  3
 12 53  1  0
 13 14  1  0
 13 54  1  0
 14 23  1  0
 14 15  1  0
 14 55  1  1
 15 26  1  0
 15 16  1  0
 15 56  1  6
 16 17  1  0
 17 23  1  0
 17 18  1  6
 17 25  1  0
 18 19  1  0
 18 57  1  0
 18 58  1  0
 19 20  1  0
 19 21  1  0
 19 59  1  6
 20 60  1  0
 21 22  1  0
 21 61  1  0
 21 62  1  0
 22 23  1  0
 22 63  1  0
 22 64  1  0
 23 24  1  1
 24 65  1  0
 24 66  1  0
 24 67  1  0
 25 26  1  0
 25 68  1  0
 25 69  1  0
 26 27  1  0
 26 70  1  1
 27 71  1  0
 27 72  1  0
 27 73  1  0
 28 29  1  0
 28 30  1  0
 29 74  1  0
 29 75  1  0
 29 76  1  0
 31 30  1  1
 30 77  1  0
 30 78  1  0
 31 36  1  0
 31 32  1  0
 32 33  1  0
 32 79  1  0
 32 80  1  0
 33 34  1  0
 33 81  1  0
 33 82  1  0
 34 35  2  0
 34 36  1  0
 36 83  1  1
M  END
>  <i_m_ct_stereo_status>  (114) 
1

>  <s_m_source_file>  (114) 
/var/tmp/pbs.5076255.sched01/tmpck0ladl8/45htcshi4i.sdf

>  <i_m_source_file_index>  (114) 
1

>  <i_lp_mmshare_version>  (114) 
48012

>  <i_f3d_flags>  (114) 
0

>  <s_epik_input>  (114) 
W0NIMl0xW0NIMl1DKD1PKVtDQEhdMltDQEhdKFtDSDJdW0NIM10pW0NASF0oW0NAQEhdKFtDSDNdKU9bQ0gyXTMpW0NASF0zW0NAQEhdKFtDQEBdMTI0KVtDQEhdKE4oW0NIM10pW0NIMl00KS9bQ0hdPVtDSF0vW0NASF0oW0NASF0oTzUpW0NAQEhdKFtDSDJdNilbQ0gzXSlbQ0BAXShbQ0BAXTU2NykoW0NIM10pW0NIMl1bQ0gyXVtDQEBIXShbQ0gyXTcpW09IXQ==

>  <s_epik_cmdline>  (114) 
J2VwaWtfcHl0aG9uJywgJy1waHQnLCAnMi4wJywgJy1waCcsICc3LjAnLCAnLXRuJywgJzgnLCAnLW1hJywgJzIwMCcsICctaW1hZScsICc8aW5maWxlLm1hZT4nLCAnLW9tYWUnLCAnPG91dGZpbGUubWFlPic=

>  <r_lp_tautomer_probability>  (114) 
1

>  <r_epik_Ionization_Penalty>  (114) 
2.54078

>  <r_epik_Ionization_Penalty_Charging>  (114) 
0

>  <r_epik_Ionization_Penalty_Neutral>  (114) 
2.54078

>  <r_epik_State_Penalty>  (114) 
2.70863

>  <r_epik_Charging_Adjusted_Penalty>  (114) 
2.70863

>  <i_epik_Tot_Q>  (114) 
0

>  <i_epik_Tot_abs_Q>  (114) 
0

>  <s_lp_Force_Field>  (114) 
OPLS3e

>  <r_lp_Energy>  (114) 
40.8905

>  <b_lp_Chiralities_Consistent>  (114) 
1

>  <s_lp_Variant>  (114) 
34:0-3

>  <s_i_glide_gridfile>  (114) 
pfpi4k_grid

>  <i_i_glide_lignum>  (114) 
1

>  <i_i_glide_rotatable_bonds>  (114) 
4

>  <r_i_docking_score>  (114) 
-2.14299

>  <r_i_glide_ligand_efficiency>  (114) 
-0.0595275

>  <r_i_glide_ligand_efficiency_sa>  (114) 
-0.196556

>  <r_i_glide_ligand_efficiency_ln>  (114) 
-0.467543

>  <r_i_glide_gscore>  (114) 
-2.14299

>  <r_i_glide_lipo>  (114) 
-0.245612

>  <r_i_glide_hbond>  (114) 
-0.32

>  <r_i_glide_metal>  (114) 
-0

>  <r_i_glide_rewards>  (114) 
-0.0156192

>  <r_i_glide_evdw>  (114) 
-25.59

>  <r_i_glide_ecoul>  (114) 
-2.81691

>  <r_i_glide_erotb>  (114) 
0.164714

>  <r_i_glide_esite>  (114) 
-0.0244365

>  <r_i_glide_emodel>  (114) 
-28.474

>  <r_i_glide_energy>  (114) 
-28.4069

>  <r_i_glide_einternal>  (114) 
5.59773

>  <r_i_glide_intrahb_reward>  (114) 
-0

>  <i_i_glide_confnum>  (114) 
2

>  <i_i_glide_posenum>  (114) 
11

>  <r_i_glide_eff_state_penalty>  (114) 
0

>  <ligand_id>  (114) 
34

>  <original_smiles>  (114) 
CCC1C2C(C)OCC2C2C(C=CC3C4OC5(CC(O)CCC35C)CC4C)N(C)CC23CCC(=O)C13

>  <smiles>  (114) 
[H]OC1([H])C([H])([H])C([H])([H])C2(C([H])([H])[H])C([H])(C([H])=C([H])C3([H])N(C([H])([H])[H])C([H])([H])C45C([H])([H])C([H])([H])C(=O)C4([H])C([H])(C([H])([H])C([H])([H])[H])C4([H])C([H])(C([H])([H])[H])OC([H])([H])C4([H])C35[H])C3([H])OC2(C1([H])[H])C([H])([H])C3([H])C([H])([H])[H]

$$$$
34:2:1
     RDKit          3D

 83 89  0  0  1  0  0  0  0  0999 V2000
    4.1642   -9.9500    2.5171 C   0  0  0  0  0  0  0  0  0  0  0  0
    3.2627   -9.4293    1.3734 C   0  0  0  0  0  0  0  0  0  0  0  0
    2.3921   -8.1890    1.7192 C   0  0  2  0  0  0  0  0  0  0  0  0
    3.1695   -6.8474    1.6328 C   0  0  2  0  0  0  0  0  0  0  0  0
    4.3623   -6.5971    2.5785 C   0  0  1  0  0  0  0  0  0  0  0  0
    5.7570   -6.9841    2.0338 C   0  0  0  0  0  0  0  0  0  0  0  0
    4.3837   -5.1893    2.7225 O   0  0  0  0  0  0  0  0  0  0  0  0
    3.4233   -4.5559    1.8816 C   0  0  0  0  0  0  0  0  0  0  0  0
    2.2998   -5.6155    1.8455 C   0  0  2  0  0  0  0  0  0  0  0  0
    1.3029   -5.7016    3.0746 C   0  0  2  0  0  0  0  0  0  0  0  0
    1.7362   -5.2442    4.4728 C   0  0  1  0  0  0  0  0  0  0  0  0
    1.9276   -3.7528    4.6842 C   0  0  0  0  0  0  0  0  0  0  0  0
    1.7156   -2.7997    3.7389 C   0  0  0  0  0  0  0  0  0  0  0  0
    1.9974   -1.3267    3.8912 C   0  0  2  0  0  0  0  0  0  0  0  0
    2.8725   -0.9505    5.1019 C   0  0  2  0  0  0  0  0  0  0  0  0
    1.8833   -0.5603    6.0446 O   0  0  0  0  0  0  0  0  0  0  0  0
    1.2097    0.4196    5.2689 C   0  0  2  0  0  0  0  0  0  0  0  0
    0.0848    1.1377    6.0373 C   0  0  0  0  0  0  0  0  0  0  0  0
   -1.1241    0.2398    6.3548 C   0  0  1  0  0  0  0  0  0  0  0  0
   -2.1777    1.0022    6.8854 O   0  0  0  0  0  0  0  0  0  0  0  0
   -1.6337   -0.5163    5.1238 C   0  0  0  0  0  0  0  0  0  0  0  0
   -0.4872   -1.3231    4.5256 C   0  0  0  0  0  0  0  0  0  0  0  0
    0.7301   -0.4638    4.0807 C   0  0  2  0  0  0  0  0  0  0  0  0
    0.3704    0.3402    2.8040 C   0  0  0  0  0  0  0  0  0  0  0  0
    2.4132    1.3429    4.9541 C   0  0  0  0  0  0  0  0  0  0  0  0
    3.6006    0.3808    4.8938 C   0  0  1  0  0  0  0  0  0  0  0  0
    4.6529    0.6361    5.9869 C   0  0  0  0  0  0  0  0  0  0  0  0
    0.6613   -5.7342    5.3373 N   0  0  0  0  0  0  0  0  0  0  0  0
    0.9887   -5.7251    6.7599 C   0  0  0  0  0  0  0  0  0  0  0  0
    0.3631   -7.0787    4.8656 C   0  0  0  0  0  0  0  0  0  0  0  0
    0.6796   -7.0950    3.3411 C   0  0  1  0  0  0  0  0  0  0  0  0
   -0.6099   -7.3949    2.5273 C   0  0  0  0  0  0  0  0  0  0  0  0
   -0.8287   -8.9139    2.6102 C   0  0  0  0  0  0  0  0  0  0  0  0
    0.5521   -9.4494    2.9556 C   0  0  0  0  0  0  0  0  0  0  0  0
    0.7948  -10.6287    3.1578 O   0  0  0  0  0  0  0  0  0  0  0  0
    1.5841   -8.3182    3.0343 C   0  0  1  0  0  0  0  0  0  0  0  0
    4.7931  -10.7514    2.1247 H   0  0  0  0  0  0  0  0  0  0  0  0
    3.5482  -10.4201    3.2951 H   0  0  0  0  0  0  0  0  0  0  0  0
    4.7972   -9.2131    2.9480 H   0  0  0  0  0  0  0  0  0  0  0  0
    3.8611   -9.1963    0.4930 H   0  0  0  0  0  0  0  0  0  0  0  0
    2.6126  -10.2311    1.0403 H   0  0  0  0  0  0  0  0  0  0  0  0
    1.6537   -8.1324    0.9118 H   0  0  0  0  0  0  0  0  0  0  0  0
    3.5466   -6.7906    0.6051 H   0  0  0  0  0  0  0  0  0  0  0  0
    4.1757   -7.0374    3.5627 H   0  0  0  0  0  0  0  0  0  0  0  0
    5.8914   -8.0401    1.8824 H   0  0  0  0  0  0  0  0  0  0  0  0
    6.5066   -6.6163    2.7416 H   0  0  0  0  0  0  0  0  0  0  0  0
    5.9415   -6.4356    1.1008 H   0  0  0  0  0  0  0  0  0  0  0  0
    3.1939   -3.5729    2.1919 H   0  0  0  0  0  0  0  0  0  0  0  0
    3.8648   -4.5190    0.8737 H   0  0  0  0  0  0  0  0  0  0  0  0
    1.6841   -5.4651    0.9636 H   0  0  0  0  0  0  0  0  0  0  0  0
    0.4480   -5.0711    2.8272 H   0  0  0  0  0  0  0  0  0  0  0  0
    2.6656   -5.7293    4.7531 H   0  0  0  0  0  0  0  0  0  0  0  0
    2.2492   -3.4646    5.6585 H   0  0  0  0  0  0  0  0  0  0  0  0
    1.3804   -3.0786    2.7480 H   0  0  0  0  0  0  0  0  0  0  0  0
    2.5245   -1.0449    2.9787 H   0  0  0  0  0  0  0  0  0  0  0  0
    3.5642   -1.7283    5.4177 H   0  0  0  0  0  0  0  0  0  0  0  0
    0.4924    1.5279    6.9724 H   0  0  0  0  0  0  0  0  0  0  0  0
   -0.2343    1.9981    5.4467 H   0  0  0  0  0  0  0  0  0  0  0  0
   -0.8231   -0.4814    7.1135 H   0  0  0  0  0  0  0  0  0  0  0  0
   -2.3572    1.7165    6.2819 H   0  0  0  0  0  0  0  0  0  0  0  0
   -2.4389   -1.1980    5.4111 H   0  0  0  0  0  0  0  0  0  0  0  0
   -2.0523    0.1620    4.3780 H   0  0  0  0  0  0  0  0  0  0  0  0
   -0.1888   -2.0383    5.2954 H   0  0  0  0  0  0  0  0  0  0  0  0
   -0.8455   -1.9284    3.6942 H   0  0  0  0  0  0  0  0  0  0  0  0
   -0.4061    1.0819    2.9913 H   0  0  0  0  0  0  0  0  0  0  0  0
    0.0032   -0.3127    2.0113 H   0  0  0  0  0  0  0  0  0  0  0  0
    1.2276    0.8605    2.3725 H   0  0  0  0  0  0  0  0  0  0  0  0
    2.2911    1.9039    4.0274 H   0  0  0  0  0  0  0  0  0  0  0  0
    2.5588    2.0696    5.7589 H   0  0  0  0  0  0  0  0  0  0  0  0
    4.0942    0.4160    3.9205 H   0  0  0  0  0  0  0  0  0  0  0  0
    4.2131    0.5820    6.9850 H   0  0  0  0  0  0  0  0  0  0  0  0
    5.1117    1.6203    5.8767 H   0  0  0  0  0  0  0  0  0  0  0  0
    5.4530   -0.1053    5.9458 H   0  0  0  0  0  0  0  0  0  0  0  0
    0.1546   -6.1200    7.3425 H   0  0  0  0  0  0  0  0  0  0  0  0
    1.1837   -4.7157    7.1226 H   0  0  0  0  0  0  0  0  0  0  0  0
    1.8714   -6.3323    6.9737 H   0  0  0  0  0  0  0  0  0  0  0  0
    0.9830   -7.8045    5.4020 H   0  0  0  0  0  0  0  0  0  0  0  0
   -0.6801   -7.3167    5.0927 H   0  0  0  0  0  0  0  0  0  0  0  0
   -1.4830   -6.8478    2.8857 H   0  0  0  0  0  0  0  0  0  0  0  0
   -0.4646   -7.1255    1.4814 H   0  0  0  0  0  0  0  0  0  0  0  0
   -1.5152   -9.1795    3.4154 H   0  0  0  0  0  0  0  0  0  0  0  0
   -1.2054   -9.3444    1.6849 H   0  0  0  0  0  0  0  0  0  0  0  0
    2.2666   -8.5039    3.8567 H   0  0  0  0  0  0  0  0  0  0  0  0
  1  2  1  0
  1 37  1  0
  1 38  1  0
  1 39  1  0
  2  3  1  0
  2 40  1  0
  2 41  1  0
  3 36  1  0
  3  4  1  0
  3 42  1  6
  4  9  1  0
  4  5  1  0
  4 43  1  6
  5  6  1  0
  5  7  1  0
  5 44  1  1
  6 45  1  0
  6 46  1  0
  6 47  1  0
  7  8  1  0
  8  9  1  0
  8 48  1  0
  8 49  1  0
  9 10  1  0
  9 50  1  6
 10 31  1  0
 10 11  1  0
 10 51  1  6
 11 12  1  0
 11 28  1  0
 11 52  1  1
 12 13  2  3
 12 53  1  0
 13 14  1  0
 13 54  1  0
 14 23  1  0
 14 15  1  0
 14 55  1  6
 15 26  1  0
 15 16  1  0
 15 56  1  1
 16 17  1  0
 17 23  1  0
 17 18  1  1
 17 25  1  0
 18 19  1  0
 18 57  1  0
 18 58  1  0
 19 20  1  0
 19 21  1  0
 19 59  1  1
 20 60  1  0
 21 22  1  0
 21 61  1  0
 21 62  1  0
 22 23  1  0
 22 63  1  0
 22 64  1  0
 23 24  1  6
 24 65  1  0
 24 66  1  0
 24 67  1  0
 25 26  1  0
 25 68  1  0
 25 69  1  0
 26 27  1  0
 26 70  1  6
 27 71  1  0
 27 72  1  0
 27 73  1  0
 28 29  1  0
 28 30  1  0
 29 74  1  0
 29 75  1  0
 29 76  1  0
 31 30  1  1
 30 77  1  0
 30 78  1  0
 31 36  1  0
 31 32  1  0
 32 33  1  0
 32 79  1  0
 32 80  1  0
 33 34  1  0
 33 81  1  0
 33 82  1  0
 34 35  2  0
 34 36  1  0
 36 83  1  1
M  END
>  <i_m_ct_stereo_status>  (115) 
1

>  <s_m_source_file>  (115) 
/var/tmp/pbs.5076255.sched01/tmpck0ladl8/45htcshi4i.sdf

>  <i_m_source_file_index>  (115) 
1

>  <i_lp_mmshare_version>  (115) 
48012

>  <i_f3d_flags>  (115) 
0

>  <s_epik_input>  (115) 
W0NIMl0xW0NIMl1DKD1PKVtDQEhdMltDQEhdKFtDSDJdW0NIM10pW0NASF0oW0NAQEhdKFtDSDNdKU9bQ0gyXTMpW0NASF0zW0NAQEhdKFtDQEBdMTI0KVtDQEhdKE4oW0NIM10pW0NIMl00KS9bQ0hdPVtDSF0vW0NASF0oW0NASF0oTzUpW0NAQEhdKFtDSDJdNilbQ0gzXSlbQ0BAXShbQ0BAXTU2NykoW0NIM10pW0NIMl1bQ0gyXVtDQEBIXShbQ0gyXTcpW09IXQ==

>  <s_epik_cmdline>  (115) 
J2VwaWtfcHl0aG9uJywgJy1waHQnLCAnMi4wJywgJy1waCcsICc3LjAnLCAnLXRuJywgJzgnLCAnLW1hJywgJzIwMCcsICctaW1hZScsICc8aW5maWxlLm1hZT4nLCAnLW9tYWUnLCAnPG91dGZpbGUubWFlPic=

>  <r_lp_tautomer_probability>  (115) 
1

>  <r_epik_Ionization_Penalty>  (115) 
2.54078

>  <r_epik_Ionization_Penalty_Charging>  (115) 
0

>  <r_epik_Ionization_Penalty_Neutral>  (115) 
2.54078

>  <r_epik_State_Penalty>  (115) 
2.70863

>  <r_epik_Charging_Adjusted_Penalty>  (115) 
2.70863

>  <i_epik_Tot_Q>  (115) 
0

>  <i_epik_Tot_abs_Q>  (115) 
0

>  <s_lp_Force_Field>  (115) 
OPLS3e

>  <r_lp_Energy>  (115) 
40.8905

>  <b_lp_Chiralities_Consistent>  (115) 
1

>  <s_lp_Variant>  (115) 
34:0-3

>  <s_i_glide_gridfile>  (115) 
pfpi4k_grid

>  <i_i_glide_lignum>  (115) 
1

>  <i_i_glide_rotatable_bonds>  (115) 
4

>  <r_i_docking_score>  (115) 
-2.02306

>  <r_i_glide_ligand_efficiency>  (115) 
-0.0561962

>  <r_i_glide_ligand_efficiency_sa>  (115) 
-0.185556

>  <r_i_glide_ligand_efficiency_ln>  (115) 
-0.441378

>  <r_i_glide_gscore>  (115) 
-2.02306

>  <r_i_glide_lipo>  (115) 
-0.129168

>  <r_i_glide_hbond>  (115) 
-0.16

>  <r_i_glide_metal>  (115) 
-0

>  <r_i_glide_rewards>  (115) 
-0.0156192

>  <r_i_glide_evdw>  (115) 
-26.5595

>  <r_i_glide_ecoul>  (115) 
-3.61181

>  <r_i_glide_erotb>  (115) 
0.164714

>  <r_i_glide_esite>  (115) 
-0.0132444

>  <r_i_glide_emodel>  (115) 
-29.4469

>  <r_i_glide_energy>  (115) 
-30.1713

>  <r_i_glide_einternal>  (115) 
5.90705

>  <r_i_glide_intrahb_reward>  (115) 
-0

>  <i_i_glide_confnum>  (115) 
2

>  <i_i_glide_posenum>  (115) 
39

>  <r_i_glide_eff_state_penalty>  (115) 
0

>  <ligand_id>  (115) 
34

>  <original_smiles>  (115) 
CCC1C2C(C)OCC2C2C(C=CC3C4OC5(CC(O)CCC35C)CC4C)N(C)CC23CCC(=O)C13

>  <smiles>  (115) 
[H]OC1([H])C([H])([H])C([H])([H])C2(C([H])([H])[H])C([H])(C([H])=C([H])C3([H])N(C([H])([H])[H])C([H])([H])C45C([H])([H])C([H])([H])C(=O)C4([H])C([H])(C([H])([H])C([H])([H])[H])C4([H])C([H])(C([H])([H])[H])OC([H])([H])C4([H])C35[H])C3([H])OC2(C1([H])[H])C([H])([H])C3([H])C([H])([H])[H]

$$$$
34:2:2
     RDKit          3D

 83 89  0  0  1  0  0  0  0  0999 V2000
    1.7974  -10.4774    5.0091 C   0  0  0  0  0  0  0  0  0  0  0  0
    0.4797   -9.6775    5.1508 C   0  0  0  0  0  0  0  0  0  0  0  0
    0.6440   -8.1548    5.3774 C   0  0  2  0  0  0  0  0  0  0  0  0
    0.8899   -7.3491    4.0789 C   0  0  2  0  0  0  0  0  0  0  0  0
    2.1662   -7.5847    3.2490 C   0  0  1  0  0  0  0  0  0  0  0  0
    2.0513   -8.6378    2.1208 C   0  0  0  0  0  0  0  0  0  0  0  0
    2.4454   -6.3235    2.6450 O   0  0  0  0  0  0  0  0  0  0  0  0
    1.4130   -5.3947    2.9437 C   0  0  0  0  0  0  0  0  0  0  0  0
    0.9165   -5.8395    4.3156 C   0  0  2  0  0  0  0  0  0  0  0  0
    1.7783   -5.3399    5.5276 C   0  0  2  0  0  0  0  0  0  0  0  0
    3.2930   -5.0621    5.3492 C   0  0  1  0  0  0  0  0  0  0  0  0
    3.6321   -3.8098    4.5536 C   0  0  0  0  0  0  0  0  0  0  0  0
    4.3969   -3.7936    3.4494 C   0  0  0  0  0  0  0  0  0  0  0  0
    4.7030   -2.5543    2.6052 C   0  0  2  0  0  0  0  0  0  0  0  0
    3.4809   -1.6261    2.3921 C   0  0  2  0  0  0  0  0  0  0  0  0
    3.0757   -1.9633    1.0725 O   0  0  0  0  0  0  0  0  0  0  0  0
    4.2968   -1.7394    0.3907 C   0  0  2  0  0  0  0  0  0  0  0  0
    4.1872   -1.9155   -1.1426 C   0  0  0  0  0  0  0  0  0  0  0  0
    3.9420   -3.3631   -1.5900 C   0  0  1  0  0  0  0  0  0  0  0  0
    4.0965   -3.4780   -2.9926 O   0  0  0  0  0  0  0  0  0  0  0  0
    4.9135   -4.3377   -0.9214 C   0  0  0  0  0  0  0  0  0  0  0  0
    4.8311   -4.2101    0.6027 C   0  0  0  0  0  0  0  0  0  0  0  0
    5.1752   -2.7884    1.1353 C   0  0  2  0  0  0  0  0  0  0  0  0
    6.6921   -2.5330    0.9756 C   0  0  0  0  0  0  0  0  0  0  0  0
    4.5504   -0.2680    0.7989 C   0  0  0  0  0  0  0  0  0  0  0  0
    3.9101   -0.1705    2.1839 C   0  0  1  0  0  0  0  0  0  0  0  0
    2.7158    0.8038    2.2404 C   0  0  0  0  0  0  0  0  0  0  0  0
    3.7193   -4.8880    6.7280 N   0  0  0  0  0  0  0  0  0  0  0  0
    5.1680   -4.9020    6.8926 C   0  0  0  0  0  0  0  0  0  0  0  0
    3.0831   -5.9540    7.4850 C   0  0  0  0  0  0  0  0  0  0  0  0
    1.7345   -6.2439    6.7778 C   0  0  1  0  0  0  0  0  0  0  0  0
    0.5440   -5.9623    7.7264 C   0  0  0  0  0  0  0  0  0  0  0  0
    0.4471   -7.1829    8.6520 C   0  0  0  0  0  0  0  0  0  0  0  0
    1.1471   -8.2584    7.8666 C   0  0  0  0  0  0  0  0  0  0  0  0
    1.3314   -9.4028    8.3170 O   0  0  0  0  0  0  0  0  0  0  0  0
    1.6320   -7.7719    6.5101 C   0  0  1  0  0  0  0  0  0  0  0  0
    1.5640  -11.5214    4.7535 H   0  0  0  0  0  0  0  0  0  0  0  0
    2.3170  -10.5357    5.9861 H   0  0  0  0  0  0  0  0  0  0  0  0
    2.4722  -10.1027    4.2921 H   0  0  0  0  0  0  0  0  0  0  0  0
   -0.1559   -9.8380    4.2819 H   0  0  0  0  0  0  0  0  0  0  0  0
   -0.0919  -10.1020    5.9706 H   0  0  0  0  0  0  0  0  0  0  0  0
   -0.3420   -7.8248    5.7041 H   0  0  0  0  0  0  0  0  0  0  0  0
    0.0425   -7.5490    3.4180 H   0  0  0  0  0  0  0  0  0  0  0  0
    3.0023   -7.8120    3.9053 H   0  0  0  0  0  0  0  0  0  0  0  0
    1.8628   -9.6316    2.4491 H   0  0  0  0  0  0  0  0  0  0  0  0
    2.9840   -8.6354    1.5378 H   0  0  0  0  0  0  0  0  0  0  0  0
    1.2562   -8.3435    1.4158 H   0  0  0  0  0  0  0  0  0  0  0  0
    1.7332   -4.3536    2.8843 H   0  0  0  0  0  0  0  0  0  0  0  0
    0.6200   -5.5197    2.2076 H   0  0  0  0  0  0  0  0  0  0  0  0
   -0.1026   -5.4782    4.4738 H   0  0  0  0  0  0  0  0  0  0  0  0
    1.3461   -4.3790    5.8183 H   0  0  0  0  0  0  0  0  0  0  0  0
    3.7928   -5.9296    4.9138 H   0  0  0  0  0  0  0  0  0  0  0  0
    3.2103   -2.8888    4.9302 H   0  0  0  0  0  0  0  0  0  0  0  0
    4.8293   -4.7321    3.1319 H   0  0  0  0  0  0  0  0  0  0  0  0
    5.4723   -2.0191    3.1622 H   0  0  0  0  0  0  0  0  0  0  0  0
    2.6792   -1.7193    3.1205 H   0  0  0  0  0  0  0  0  0  0  0  0
    3.3761   -1.2916   -1.5207 H   0  0  0  0  0  0  0  0  0  0  0  0
    5.1036   -1.5442   -1.6036 H   0  0  0  0  0  0  0  0  0  0  0  0
    2.9197   -3.6487   -1.3386 H   0  0  0  0  0  0  0  0  0  0  0  0
    3.7894   -4.3330   -3.2365 H   0  0  0  0  0  0  0  0  0  0  0  0
    4.6622   -5.3626   -1.1972 H   0  0  0  0  0  0  0  0  0  0  0  0
    5.9325   -4.1709   -1.2709 H   0  0  0  0  0  0  0  0  0  0  0  0
    3.8164   -4.4807    0.8982 H   0  0  0  0  0  0  0  0  0  0  0  0
    5.4932   -4.9572    1.0369 H   0  0  0  0  0  0  0  0  0  0  0  0
    6.9976   -2.4963   -0.0706 H   0  0  0  0  0  0  0  0  0  0  0  0
    7.2701   -3.3252    1.4522 H   0  0  0  0  0  0  0  0  0  0  0  0
    7.0033   -1.5950    1.4350 H   0  0  0  0  0  0  0  0  0  0  0  0
    5.6042    0.0037    0.8022 H   0  0  0  0  0  0  0  0  0  0  0  0
    4.0583    0.4103    0.1077 H   0  0  0  0  0  0  0  0  0  0  0  0
    4.6420    0.1352    2.9339 H   0  0  0  0  0  0  0  0  0  0  0  0
    1.9424    0.5361    1.5180 H   0  0  0  0  0  0  0  0  0  0  0  0
    3.0196    1.8308    2.0357 H   0  0  0  0  0  0  0  0  0  0  0  0
    2.2568    0.8018    3.2295 H   0  0  0  0  0  0  0  0  0  0  0  0
    5.4366   -4.7990    7.9451 H   0  0  0  0  0  0  0  0  0  0  0  0
    5.6395   -4.0782    6.3511 H   0  0  0  0  0  0  0  0  0  0  0  0
    5.5989   -5.8347    6.5226 H   0  0  0  0  0  0  0  0  0  0  0  0
    3.7264   -6.8370    7.4788 H   0  0  0  0  0  0  0  0  0  0  0  0
    2.9613   -5.6425    8.5237 H   0  0  0  0  0  0  0  0  0  0  0  0
    0.6569   -5.0312    8.2917 H   0  0  0  0  0  0  0  0  0  0  0  0
   -0.3867   -5.8826    7.1598 H   0  0  0  0  0  0  0  0  0  0  0  0
    0.9785   -7.0228    9.5920 H   0  0  0  0  0  0  0  0  0  0  0  0
   -0.5702   -7.4775    8.8741 H   0  0  0  0  0  0  0  0  0  0  0  0
    2.6094   -8.1920    6.2844 H   0  0  0  0  0  0  0  0  0  0  0  0
  1  2  1  0
  1 37  1  0
  1 38  1  0
  1 39  1  0
  2  3  1  0
  2 40  1  0
  2 41  1  0
  3 36  1  0
  3  4  1  0
  3 42  1  1
  4  9  1  0
  4  5  1  0
  4 43  1  6
  5  6  1  0
  5  7  1  0
  5 44  1  1
  6 45  1  0
  6 46  1  0
  6 47  1  0
  7  8  1  0
  8  9  1  0
  8 48  1  0
  8 49  1  0
  9 10  1  0
  9 50  1  1
 10 31  1  0
 10 11  1  0
 10 51  1  1
 11 12  1  0
 11 28  1  0
 11 52  1  6
 12 13  2  3
 12 53  1  0
 13 14  1  0
 13 54  1  0
 14 23  1  0
 14 15  1  0
 14 55  1  1
 15 26  1  0
 15 16  1  0
 15 56  1  1
 16 17  1  0
 17 23  1  0
 17 18  1  6
 17 25  1  0
 18 19  1  0
 18 57  1  0
 18 58  1  0
 19 20  1  0
 19 21  1  0
 19 59  1  6
 20 60  1  0
 21 22  1  0
 21 61  1  0
 21 62  1  0
 22 23  1  0
 22 63  1  0
 22 64  1  0
 23 24  1  1
 24 65  1  0
 24 66  1  0
 24 67  1  0
 25 26  1  0
 25 68  1  0
 25 69  1  0
 26 27  1  0
 26 70  1  1
 27 71  1  0
 27 72  1  0
 27 73  1  0
 28 29  1  0
 28 30  1  0
 29 74  1  0
 29 75  1  0
 29 76  1  0
 31 30  1  1
 30 77  1  0
 30 78  1  0
 31 36  1  0
 31 32  1  0
 32 33  1  0
 32 79  1  0
 32 80  1  0
 33 34  1  0
 33 81  1  0
 33 82  1  0
 34 35  2  0
 34 36  1  0
 36 83  1  6
M  END
>  <i_m_ct_stereo_status>  (116) 
1

>  <s_m_source_file>  (116) 
/var/tmp/pbs.5076255.sched01/tmpck0ladl8/45htcshi4i.sdf

>  <i_m_source_file_index>  (116) 
1

>  <i_lp_mmshare_version>  (116) 
48012

>  <i_f3d_flags>  (116) 
0

>  <s_epik_input>  (116) 
W0NIMl0xW0NIMl1DKD1PKVtDQEhdMltDQEhdKFtDSDJdW0NIM10pW0NASF0oW0NAQEhdKFtDSDNdKU9bQ0gyXTMpW0NASF0zW0NAQEhdKFtDQEBdMTI0KVtDQEhdKE4oW0NIM10pW0NIMl00KS9bQ0hdPVtDSF0vW0NASF0oW0NASF0oTzUpW0NAQEhdKFtDSDJdNilbQ0gzXSlbQ0BAXShbQ0BAXTU2NykoW0NIM10pW0NIMl1bQ0gyXVtDQEBIXShbQ0gyXTcpW09IXQ==

>  <s_epik_cmdline>  (116) 
J2VwaWtfcHl0aG9uJywgJy1waHQnLCAnMi4wJywgJy1waCcsICc3LjAnLCAnLXRuJywgJzgnLCAnLW1hJywgJzIwMCcsICctaW1hZScsICc8aW5maWxlLm1hZT4nLCAnLW9tYWUnLCAnPG91dGZpbGUubWFlPic=

>  <r_lp_tautomer_probability>  (116) 
1

>  <r_epik_Ionization_Penalty>  (116) 
2.54078

>  <r_epik_Ionization_Penalty_Charging>  (116) 
0

>  <r_epik_Ionization_Penalty_Neutral>  (116) 
2.54078

>  <r_epik_State_Penalty>  (116) 
2.70863

>  <r_epik_Charging_Adjusted_Penalty>  (116) 
2.70863

>  <i_epik_Tot_Q>  (116) 
0

>  <i_epik_Tot_abs_Q>  (116) 
0

>  <s_lp_Force_Field>  (116) 
OPLS3e

>  <r_lp_Energy>  (116) 
40.8905

>  <b_lp_Chiralities_Consistent>  (116) 
1

>  <s_lp_Variant>  (116) 
34:0-3

>  <s_i_glide_gridfile>  (116) 
pfpi4k_grid

>  <i_i_glide_lignum>  (116) 
1

>  <i_i_glide_rotatable_bonds>  (116) 
4

>  <r_i_docking_score>  (116) 
-2.00361

>  <r_i_glide_ligand_efficiency>  (116) 
-0.055656

>  <r_i_glide_ligand_efficiency_sa>  (116) 
-0.183772

>  <r_i_glide_ligand_efficiency_ln>  (116) 
-0.437135

>  <r_i_glide_gscore>  (116) 
-2.00361

>  <r_i_glide_lipo>  (116) 
-0.404073

>  <r_i_glide_hbond>  (116) 
-0.306681

>  <r_i_glide_metal>  (116) 
-0

>  <r_i_glide_rewards>  (116) 
-0.0156192

>  <r_i_glide_evdw>  (116) 
-25.5257

>  <r_i_glide_ecoul>  (116) 
-0.933067

>  <r_i_glide_erotb>  (116) 
0.164714

>  <r_i_glide_esite>  (116) 
-0.0257118

>  <r_i_glide_emodel>  (116) 
-27.5391

>  <r_i_glide_energy>  (116) 
-26.4587

>  <r_i_glide_einternal>  (116) 
4.45391

>  <r_i_glide_intrahb_reward>  (116) 
-0

>  <i_i_glide_confnum>  (116) 
2

>  <i_i_glide_posenum>  (116) 
3

>  <r_i_glide_eff_state_penalty>  (116) 
0

>  <ligand_id>  (116) 
34

>  <original_smiles>  (116) 
CCC1C2C(C)OCC2C2C(C=CC3C4OC5(CC(O)CCC35C)CC4C)N(C)CC23CCC(=O)C13

>  <smiles>  (116) 
[H]OC1([H])C([H])([H])C([H])([H])C2(C([H])([H])[H])C([H])(C([H])=C([H])C3([H])N(C([H])([H])[H])C([H])([H])C45C([H])([H])C([H])([H])C(=O)C4([H])C([H])(C([H])([H])C([H])([H])[H])C4([H])C([H])(C([H])([H])[H])OC([H])([H])C4([H])C35[H])C3([H])OC2(C1([H])[H])C([H])([H])C3([H])C([H])([H])[H]

$$$$
35:0:0
     RDKit          3D

 56 59  0  0  1  0  0  0  0  0999 V2000
    3.1635   -3.1046    4.2611 C   0  0  0  0  0  0  0  0  0  0  0  0
    3.9942   -3.7243    3.1279 C   0  0  0  0  0  0  0  0  0  0  0  0
    3.9713   -3.2850    1.8375 C   0  0  0  0  0  0  0  0  0  0  0  0
    3.0424   -2.2372    1.3746 C   0  0  0  0  0  0  0  0  0  0  0  0
    1.8557   -2.1985    1.6950 O   0  0  0  0  0  0  0  0  0  0  0  0
    3.5899   -1.1583    0.4417 C   0  0  0  0  0  0  0  0  0  0  0  0
    4.5121   -1.6982   -0.6836 C   0  0  2  0  0  0  0  0  0  0  0  0
    3.7662   -2.0914   -2.0293 C   0  0  0  0  0  0  0  0  0  0  0  0
    2.5693   -3.0559   -1.8594 C   0  0  0  0  0  0  0  0  0  0  0  0
    3.2569   -0.8203   -2.7442 C   0  0  0  0  0  0  0  0  0  0  0  0
    4.7370   -2.7224   -3.0324 C   0  0  0  0  0  0  0  0  0  0  0  0
    5.5697   -3.8277   -2.4139 C   0  0  0  0  0  0  0  0  0  0  0  0
    6.4273   -3.2931   -1.2597 C   0  0  1  0  0  0  0  0  0  0  0  0
    7.3574   -2.3577   -1.7912 O   0  0  0  0  0  0  0  0  0  0  0  0
    5.5703   -2.7070   -0.1028 C   0  0  1  0  0  0  0  0  0  0  0  0
    6.5277   -1.9379    0.8559 C   0  0  0  0  0  0  0  0  0  0  0  0
    4.8618   -3.8500    0.7159 C   0  0  1  0  0  0  0  0  0  0  0  0
    5.7953   -4.9862    1.2120 C   0  0  0  0  0  0  0  0  0  0  0  0
    5.1530   -5.8313    2.3237 C   0  0  1  0  0  0  0  0  0  0  0  0
    3.9142   -6.6129    1.8436 C   0  0  0  0  0  0  0  0  0  0  0  0
    6.0974   -6.8295    2.6442 O   0  0  0  0  0  0  0  0  0  0  0  0
    4.8313   -4.9161    3.5241 C   0  0  0  0  0  0  0  0  0  0  0  0
    4.7377   -5.5198    4.9274 C   0  0  0  0  0  0  0  0  0  0  0  0
    5.9141   -4.6609    4.5546 C   0  0  0  0  0  0  0  0  0  0  0  0
    3.7895   -2.8825    5.1236 H   0  0  0  0  0  0  0  0  0  0  0  0
    2.3701   -3.7860    4.5640 H   0  0  0  0  0  0  0  0  0  0  0  0
    2.7086   -2.1572    3.9923 H   0  0  0  0  0  0  0  0  0  0  0  0
    2.7510   -0.6082    0.0246 H   0  0  0  0  0  0  0  0  0  0  0  0
    4.1439   -0.4573    1.0666 H   0  0  0  0  0  0  0  0  0  0  0  0
    5.1022   -0.8269   -0.9746 H   0  0  0  0  0  0  0  0  0  0  0  0
    2.0385   -3.1916   -2.8051 H   0  0  0  0  0  0  0  0  0  0  0  0
    1.8349   -2.6764   -1.1567 H   0  0  0  0  0  0  0  0  0  0  0  0
    2.8537   -4.0490   -1.5245 H   0  0  0  0  0  0  0  0  0  0  0  0
    2.8331   -1.0414   -3.7270 H   0  0  0  0  0  0  0  0  0  0  0  0
    4.0577   -0.0888   -2.8842 H   0  0  0  0  0  0  0  0  0  0  0  0
    2.4566   -0.3385   -2.1927 H   0  0  0  0  0  0  0  0  0  0  0  0
    4.1829   -3.1228   -3.8799 H   0  0  0  0  0  0  0  0  0  0  0  0
    5.3925   -1.9550   -3.4417 H   0  0  0  0  0  0  0  0  0  0  0  0
    4.9376   -4.6486   -2.0823 H   0  0  0  0  0  0  0  0  0  0  0  0
    6.2049   -4.2573   -3.1812 H   0  0  0  0  0  0  0  0  0  0  0  0
    7.0439   -4.0914   -0.8564 H   0  0  0  0  0  0  0  0  0  0  0  0
    7.8786   -2.8045   -2.4511 H   0  0  0  0  0  0  0  0  0  0  0  0
    7.4012   -2.5366    1.1173 H   0  0  0  0  0  0  0  0  0  0  0  0
    6.0474   -1.6451    1.7901 H   0  0  0  0  0  0  0  0  0  0  0  0
    6.9051   -1.0187    0.4036 H   0  0  0  0  0  0  0  0  0  0  0  0
    4.1607   -4.3550    0.0651 H   0  0  0  0  0  0  0  0  0  0  0  0
    6.1005   -5.6390    0.3897 H   0  0  0  0  0  0  0  0  0  0  0  0
    6.7190   -4.5763    1.6178 H   0  0  0  0  0  0  0  0  0  0  0  0
    3.1000   -5.9554    1.5371 H   0  0  0  0  0  0  0  0  0  0  0  0
    3.5275   -7.2611    2.6326 H   0  0  0  0  0  0  0  0  0  0  0  0
    4.1666   -7.2444    0.9897 H   0  0  0  0  0  0  0  0  0  0  0  0
    5.6956   -7.4261    3.2606 H   0  0  0  0  0  0  0  0  0  0  0  0
    4.0850   -5.0987    5.6854 H   0  0  0  0  0  0  0  0  0  0  0  0
    4.9431   -6.5772    5.0535 H   0  0  0  0  0  0  0  0  0  0  0  0
    6.8731   -5.1549    4.4006 H   0  0  0  0  0  0  0  0  0  0  0  0
    5.9845   -3.6586    4.9768 H   0  0  0  0  0  0  0  0  0  0  0  0
  1  2  1  0
  1 25  1  0
  1 26  1  0
  1 27  1  0
  2 22  1  0
  2  3  2  0
  3 17  1  0
  3  4  1  0
  4  5  2  0
  4  6  1  0
  6  7  1  0
  6 28  1  0
  6 29  1  0
  7 15  1  0
  7  8  1  0
  7 30  1  6
  8  9  1  0
  8 10  1  0
  8 11  1  0
  9 31  1  0
  9 32  1  0
  9 33  1  0
 10 34  1  0
 10 35  1  0
 10 36  1  0
 11 12  1  0
 11 37  1  0
 11 38  1  0
 12 13  1  0
 12 39  1  0
 12 40  1  0
 13 14  1  0
 13 15  1  0
 13 41  1  1
 14 42  1  0
 15 16  1  1
 15 17  1  0
 16 43  1  0
 16 44  1  0
 16 45  1  0
 17 18  1  0
 17 46  1  6
 18 19  1  0
 18 47  1  0
 18 48  1  0
 19 20  1  0
 19 21  1  1
 19 22  1  0
 20 49  1  0
 20 50  1  0
 20 51  1  0
 21 52  1  0
 22 24  1  0
 22 23  1  0
 23 24  1  0
 23 53  1  0
 23 54  1  0
 24 55  1  0
 24 56  1  0
M  END
>  <i_m_ct_stereo_status>  (117) 
1

>  <s_m_source_file>  (117) 
/var/tmp/pbs.5076255.sched01/tmpck0ladl8/45htcshi4i.sdf

>  <i_m_source_file_index>  (117) 
3

>  <i_lp_mmshare_version>  (117) 
48012

>  <i_f3d_flags>  (117) 
0

>  <s_epik_input>  (117) 
W0NIMl0xW0NIMl1DMTJDKFtDSDNdKT1DM1tDQEhdKFtDSDJdW0NAQF0yKFtDSDNdKVtPSF0pW0NAXTQoW0NIM10pW0NASF0oW0NIMl1DMz1PKUMoW0NIM10pKFtDSDNdKVtDSDJdW0NIMl1bQ0BIXTRbT0hd

>  <s_epik_cmdline>  (117) 
J2VwaWtfcHl0aG9uJywgJy1waHQnLCAnMi4wJywgJy1waCcsICc3LjAnLCAnLXRuJywgJzgnLCAnLW1hJywgJzIwMCcsICctaW1hZScsICc8aW5maWxlLm1hZT4nLCAnLW9tYWUnLCAnPG91dGZpbGUubWFlPic=

>  <r_lp_tautomer_probability>  (117) 
1

>  <r_epik_Ionization_Penalty>  (117) 
1.0428e-06

>  <r_epik_Ionization_Penalty_Charging>  (117) 
0

>  <r_epik_Ionization_Penalty_Neutral>  (117) 
1.0428e-06

>  <r_epik_State_Penalty>  (117) 
-0

>  <r_epik_Charging_Adjusted_Penalty>  (117) 
0

>  <i_epik_Tot_Q>  (117) 
0

>  <i_epik_Tot_abs_Q>  (117) 
0

>  <s_lp_Force_Field>  (117) 
OPLS3e

>  <r_lp_Energy>  (117) 
51.4831

>  <b_lp_Chiralities_Consistent>  (117) 
1

>  <s_lp_Variant>  (117) 
35:0-1

>  <s_i_glide_gridfile>  (117) 
pfpi4k_grid

>  <i_i_glide_lignum>  (117) 
3

>  <i_i_glide_rotatable_bonds>  (117) 
2

>  <r_i_docking_score>  (117) 
-3.70161

>  <r_i_glide_ligand_efficiency>  (117) 
-0.154234

>  <r_i_glide_ligand_efficiency_sa>  (117) 
-0.444887

>  <r_i_glide_ligand_efficiency_ln>  (117) 
-0.885965

>  <r_i_glide_gscore>  (117) 
-3.70161

>  <r_i_glide_lipo>  (117) 
-0.601478

>  <r_i_glide_hbond>  (117) 
-0.419535

>  <r_i_glide_metal>  (117) 
-0

>  <r_i_glide_rewards>  (117) 
-1.1422

>  <r_i_glide_evdw>  (117) 
-17.5819

>  <r_i_glide_ecoul>  (117) 
-4.25838

>  <r_i_glide_erotb>  (117) 
0

>  <r_i_glide_esite>  (117) 
-0.020539

>  <r_i_glide_emodel>  (117) 
-26.4148

>  <r_i_glide_energy>  (117) 
-21.8403

>  <r_i_glide_einternal>  (117) 
0.444978

>  <r_i_glide_intrahb_reward>  (117) 
-0

>  <i_i_glide_confnum>  (117) 
1

>  <i_i_glide_posenum>  (117) 
13

>  <r_i_glide_eff_state_penalty>  (117) 
0

>  <ligand_id>  (117) 
35

>  <original_smiles>  (117) 
CC1=C2C(=O)CC3C(C)(C)CCC(O)C3(C)C2CC(C)(O)C12CC2

>  <smiles>  (117) 
[H]OC1([H])C([H])([H])C([H])([H])C(C([H])([H])[H])(C([H])([H])[H])C2([H])C([H])([H])C(=O)C3=C(C([H])([H])[H])C4(C([H])([H])C4([H])[H])C(O[H])(C([H])([H])[H])C([H])([H])C3([H])C12C([H])([H])[H]

$$$$
35:0:1
     RDKit          3D

 56 59  0  0  1  0  0  0  0  0999 V2000
    3.0887   -3.0903    4.2970 C   0  0  0  0  0  0  0  0  0  0  0  0
    3.9461   -3.7051    3.1808 C   0  0  0  0  0  0  0  0  0  0  0  0
    3.9461   -3.2690    1.8921 C   0  0  0  0  0  0  0  0  0  0  0  0
    3.0284   -2.2195    1.4128 C   0  0  0  0  0  0  0  0  0  0  0  0
    1.8334   -2.1818    1.7138 O   0  0  0  0  0  0  0  0  0  0  0  0
    3.5877   -1.1458    0.4843 C   0  0  0  0  0  0  0  0  0  0  0  0
    4.5194   -1.6926   -0.6309 C   0  0  2  0  0  0  0  0  0  0  0  0
    3.7860   -2.0898   -1.9846 C   0  0  0  0  0  0  0  0  0  0  0  0
    2.5897   -3.0582   -1.8254 C   0  0  0  0  0  0  0  0  0  0  0  0
    3.2840   -0.8267   -2.7165 C   0  0  0  0  0  0  0  0  0  0  0  0
    4.7645   -2.7200   -2.9720 C   0  0  0  0  0  0  0  0  0  0  0  0
    5.6009   -3.8141   -2.3410 C   0  0  0  0  0  0  0  0  0  0  0  0
    6.4425   -3.2896   -1.1700 C   0  0  1  0  0  0  0  0  0  0  0  0
    7.3786   -2.3534   -1.6841 O   0  0  0  0  0  0  0  0  0  0  0  0
    5.5666   -2.7018   -0.0315 C   0  0  1  0  0  0  0  0  0  0  0  0
    6.5031   -1.9280    0.9394 C   0  0  0  0  0  0  0  0  0  0  0  0
    4.8460   -3.8387    0.7806 C   0  0  1  0  0  0  0  0  0  0  0  0
    5.7701   -4.9757    1.2949 C   0  0  0  0  0  0  0  0  0  0  0  0
    5.1138   -5.8212    2.3988 C   0  0  1  0  0  0  0  0  0  0  0  0
    3.8807   -6.6032    1.9055 C   0  0  0  0  0  0  0  0  0  0  0  0
    6.0554   -6.8214    2.7382 O   0  0  0  0  0  0  0  0  0  0  0  0
    4.7739   -4.9066    3.5924 C   0  0  0  0  0  0  0  0  0  0  0  0
    4.6537   -5.5043    4.9935 C   0  0  0  0  0  0  0  0  0  0  0  0
    5.8358   -4.6469    4.6401 C   0  0  0  0  0  0  0  0  0  0  0  0
    3.6955   -2.8634    5.1699 H   0  0  0  0  0  0  0  0  0  0  0  0
    2.2900   -3.7700    4.5918 H   0  0  0  0  0  0  0  0  0  0  0  0
    2.6307   -2.1466    4.0202 H   0  0  0  0  0  0  0  0  0  0  0  0
    2.7508   -0.6049    0.0538 H   0  0  0  0  0  0  0  0  0  0  0  0
    4.1321   -0.4356    1.1102 H   0  0  0  0  0  0  0  0  0  0  0  0
    5.1117   -0.8227   -0.9203 H   0  0  0  0  0  0  0  0  0  0  0  0
    2.0669   -3.1954   -2.7758 H   0  0  0  0  0  0  0  0  0  0  0  0
    1.8509   -2.6748   -1.1265 H   0  0  0  0  0  0  0  0  0  0  0  0
    2.8675   -4.0478   -1.4885 H   0  0  0  0  0  0  0  0  0  0  0  0
    2.8755   -1.0499   -3.7043 H   0  0  0  0  0  0  0  0  0  0  0  0
    4.0842   -0.0932   -2.8343 H   0  0  0  0  0  0  0  0  0  0  0  0
    2.4753   -0.3503   -2.1735 H   0  0  0  0  0  0  0  0  0  0  0  0
    4.2210   -3.1376   -3.8198 H   0  0  0  0  0  0  0  0  0  0  0  0
    5.4165   -1.9470   -3.3758 H   0  0  0  0  0  0  0  0  0  0  0  0
    4.9846   -4.6536   -2.0289 H   0  0  0  0  0  0  0  0  0  0  0  0
    6.2430   -4.2146   -3.1184 H   0  0  0  0  0  0  0  0  0  0  0  0
    7.0490   -4.0960   -0.7606 H   0  0  0  0  0  0  0  0  0  0  0  0
    7.8919   -2.7939   -2.3557 H   0  0  0  0  0  0  0  0  0  0  0  0
    7.3715   -2.5229    1.2210 H   0  0  0  0  0  0  0  0  0  0  0  0
    6.0082   -1.6328    1.8647 H   0  0  0  0  0  0  0  0  0  0  0  0
    6.8824   -1.0094    0.4898 H   0  0  0  0  0  0  0  0  0  0  0  0
    4.1514   -4.3490    0.1261 H   0  0  0  0  0  0  0  0  0  0  0  0
    6.0860   -5.6310    0.4766 H   0  0  0  0  0  0  0  0  0  0  0  0
    6.6861   -4.5556    1.7097 H   0  0  0  0  0  0  0  0  0  0  0  0
    3.0659   -5.9506    1.5869 H   0  0  0  0  0  0  0  0  0  0  0  0
    3.4926   -7.2484    2.6950 H   0  0  0  0  0  0  0  0  0  0  0  0
    4.1436   -7.2376    1.0595 H   0  0  0  0  0  0  0  0  0  0  0  0
    6.8353   -6.3982    3.0663 H   0  0  0  0  0  0  0  0  0  0  0  0
    3.9875   -5.0844    5.7423 H   0  0  0  0  0  0  0  0  0  0  0  0
    4.8499   -6.5648    5.1174 H   0  0  0  0  0  0  0  0  0  0  0  0
    6.7981   -5.1382    4.5116 H   0  0  0  0  0  0  0  0  0  0  0  0
    5.8975   -3.6429    5.0607 H   0  0  0  0  0  0  0  0  0  0  0  0
  1  2  1  0
  1 25  1  0
  1 26  1  0
  1 27  1  0
  2 22  1  0
  2  3  2  0
  3 17  1  0
  3  4  1  0
  4  5  2  0
  4  6  1  0
  6  7  1  0
  6 28  1  0
  6 29  1  0
  7 15  1  0
  7  8  1  0
  7 30  1  6
  8  9  1  0
  8 10  1  0
  8 11  1  0
  9 31  1  0
  9 32  1  0
  9 33  1  0
 10 34  1  0
 10 35  1  0
 10 36  1  0
 11 12  1  0
 11 37  1  0
 11 38  1  0
 12 13  1  0
 12 39  1  0
 12 40  1  0
 13 14  1  0
 13 15  1  0
 13 41  1  1
 14 42  1  0
 15 16  1  1
 15 17  1  0
 16 43  1  0
 16 44  1  0
 16 45  1  0
 17 18  1  0
 17 46  1  6
 18 19  1  0
 18 47  1  0
 18 48  1  0
 19 20  1  0
 19 21  1  1
 19 22  1  0
 20 49  1  0
 20 50  1  0
 20 51  1  0
 21 52  1  0
 22 24  1  0
 22 23  1  0
 23 24  1  0
 23 53  1  0
 23 54  1  0
 24 55  1  0
 24 56  1  0
M  END
>  <i_m_ct_stereo_status>  (118) 
1

>  <s_m_source_file>  (118) 
/var/tmp/pbs.5076255.sched01/tmpck0ladl8/45htcshi4i.sdf

>  <i_m_source_file_index>  (118) 
3

>  <i_lp_mmshare_version>  (118) 
48012

>  <i_f3d_flags>  (118) 
0

>  <s_epik_input>  (118) 
W0NIMl0xW0NIMl1DMTJDKFtDSDNdKT1DM1tDQEhdKFtDSDJdW0NAQF0yKFtDSDNdKVtPSF0pW0NAXTQoW0NIM10pW0NASF0oW0NIMl1DMz1PKUMoW0NIM10pKFtDSDNdKVtDSDJdW0NIMl1bQ0BIXTRbT0hd

>  <s_epik_cmdline>  (118) 
J2VwaWtfcHl0aG9uJywgJy1waHQnLCAnMi4wJywgJy1waCcsICc3LjAnLCAnLXRuJywgJzgnLCAnLW1hJywgJzIwMCcsICctaW1hZScsICc8aW5maWxlLm1hZT4nLCAnLW9tYWUnLCAnPG91dGZpbGUubWFlPic=

>  <r_lp_tautomer_probability>  (118) 
1

>  <r_epik_Ionization_Penalty>  (118) 
1.0428e-06

>  <r_epik_Ionization_Penalty_Charging>  (118) 
0

>  <r_epik_Ionization_Penalty_Neutral>  (118) 
1.0428e-06

>  <r_epik_State_Penalty>  (118) 
-0

>  <r_epik_Charging_Adjusted_Penalty>  (118) 
0

>  <i_epik_Tot_Q>  (118) 
0

>  <i_epik_Tot_abs_Q>  (118) 
0

>  <s_lp_Force_Field>  (118) 
OPLS3e

>  <r_lp_Energy>  (118) 
51.4831

>  <b_lp_Chiralities_Consistent>  (118) 
1

>  <s_lp_Variant>  (118) 
35:0-1

>  <s_i_glide_gridfile>  (118) 
pfpi4k_grid

>  <i_i_glide_lignum>  (118) 
3

>  <i_i_glide_rotatable_bonds>  (118) 
2

>  <r_i_docking_score>  (118) 
-3.64271

>  <r_i_glide_ligand_efficiency>  (118) 
-0.15178

>  <r_i_glide_ligand_efficiency_sa>  (118) 
-0.437808

>  <r_i_glide_ligand_efficiency_ln>  (118) 
-0.871867

>  <r_i_glide_gscore>  (118) 
-3.64271

>  <r_i_glide_lipo>  (118) 
-0.598043

>  <r_i_glide_hbond>  (118) 
-0.350267

>  <r_i_glide_metal>  (118) 
-0

>  <r_i_glide_rewards>  (118) 
-1.1422

>  <r_i_glide_evdw>  (118) 
-18.8306

>  <r_i_glide_ecoul>  (118) 
-3.93344

>  <r_i_glide_erotb>  (118) 
0

>  <r_i_glide_esite>  (118) 
-0.0206521

>  <r_i_glide_emodel>  (118) 
-27.2844

>  <r_i_glide_energy>  (118) 
-22.764

>  <r_i_glide_einternal>  (118) 
0.353725

>  <r_i_glide_intrahb_reward>  (118) 
-0

>  <i_i_glide_confnum>  (118) 
2

>  <i_i_glide_posenum>  (118) 
36

>  <r_i_glide_eff_state_penalty>  (118) 
0

>  <ligand_id>  (118) 
35

>  <original_smiles>  (118) 
CC1=C2C(=O)CC3C(C)(C)CCC(O)C3(C)C2CC(C)(O)C12CC2

>  <smiles>  (118) 
[H]OC1([H])C([H])([H])C([H])([H])C(C([H])([H])[H])(C([H])([H])[H])C2([H])C([H])([H])C(=O)C3=C(C([H])([H])[H])C4(C([H])([H])C4([H])[H])C(O[H])(C([H])([H])[H])C([H])([H])C3([H])C12C([H])([H])[H]

$$$$
36:0:0
     RDKit          3D

 47 51  0  0  1  0  0  0  0  0999 V2000
    4.7206   -0.0356    3.9401 C   0  0  0  0  0  0  0  0  0  0  0  0
    4.3299   -0.8966    2.7182 C   0  0  2  0  0  0  0  0  0  0  0  0
    5.5362   -1.4902    2.1749 N   0  0  0  0  0  0  0  0  0  0  0  0
    5.4849   -2.7658    1.6216 C   0  0  0  0  0  0  0  0  0  0  0  0
    6.5656   -3.5791    1.6684 C   0  0  0  0  0  0  0  0  0  0  0  0
    7.5731   -3.2158    0.5798 C   0  0  0  0  0  0  0  0  0  0  0  0
    6.8006   -3.2342   -0.7715 C   0  0  0  0  0  0  0  0  0  0  0  0
    5.4176   -3.7615   -0.6285 N   0  0  0  0  0  0  0  0  0  0  0  0
    5.5022   -5.0893   -0.0043 C   0  0  0  0  0  0  0  0  0  0  0  0
    6.2368   -5.0309    1.3553 C   0  0  0  0  0  0  0  0  0  0  0  0
    4.6478   -2.8921    0.3260 C   0  0  2  0  0  0  0  0  0  0  0  0
    4.2246   -1.5458   -0.3365 C   0  0  1  0  0  0  0  0  0  0  0  0
    3.6786   -1.7400   -1.7105 C   0  0  0  0  0  0  0  0  0  0  0  0
    2.9481   -2.7240   -2.3077 C   0  0  0  0  0  0  0  0  0  0  0  0
    2.6615   -2.2787   -3.6320 C   0  0  0  0  0  0  0  0  0  0  0  0
    3.2301   -1.0381   -3.7354 C   0  0  0  0  0  0  0  0  0  0  0  0
    3.8623   -0.6948   -2.5758 O   0  0  0  0  0  0  0  0  0  0  0  0
    3.1845   -0.9026    0.4812 N   0  0  0  0  0  0  0  0  0  0  0  0
    3.5354   -0.0840    1.6516 C   0  0  1  0  0  0  0  0  0  0  0  0
    2.2895    0.5283    2.2170 C   0  0  0  0  0  0  0  0  0  0  0  0
    1.0812   -0.0801    2.4534 C   0  0  0  0  0  0  0  0  0  0  0  0
    0.0880    0.8095    2.9799 C   0  0  0  0  0  0  0  0  0  0  0  0
    0.5570    2.0878    3.1467 C   0  0  0  0  0  0  0  0  0  0  0  0
    2.2305    2.2139    2.6607 S   0  0  0  0  0  0  0  0  0  0  0  0
    3.8356    0.3474    4.4465 H   0  0  0  0  0  0  0  0  0  0  0  0
    5.3191    0.8256    3.6391 H   0  0  0  0  0  0  0  0  0  0  0  0
    5.3010   -0.6035    4.6672 H   0  0  0  0  0  0  0  0  0  0  0  0
    3.6872   -1.7111    3.0786 H   0  0  0  0  0  0  0  0  0  0  0  0
    8.4155   -3.9267    0.5756 H   0  0  0  0  0  0  0  0  0  0  0  0
    7.9915   -2.2198    0.7636 H   0  0  0  0  0  0  0  0  0  0  0  0
    6.8039   -2.2261   -1.1964 H   0  0  0  0  0  0  0  0  0  0  0  0
    7.3554   -3.8459   -1.4793 H   0  0  0  0  0  0  0  0  0  0  0  0
    4.4961   -5.5003    0.1230 H   0  0  0  0  0  0  0  0  0  0  0  0
    6.0246   -5.7667   -0.6715 H   0  0  0  0  0  0  0  0  0  0  0  0
    5.5720   -5.4152    2.1329 H   0  0  0  0  0  0  0  0  0  0  0  0
    7.1432   -5.6562    1.3503 H   0  0  0  0  0  0  0  0  0  0  0  0
    3.7368   -3.4129    0.6000 H   0  0  0  0  0  0  0  0  0  0  0  0
    5.1009   -0.8975   -0.4341 H   0  0  0  0  0  0  0  0  0  0  0  0
    2.6270   -3.6400   -1.8332 H   0  0  0  0  0  0  0  0  0  0  0  0
    2.0782   -2.7757   -4.3858 H   0  0  0  0  0  0  0  0  0  0  0  0
    3.2450   -0.2963   -4.5166 H   0  0  0  0  0  0  0  0  0  0  0  0
    2.4214   -0.5079   -0.1075 H   0  0  0  0  0  0  0  0  0  0  0  0
    4.1819    0.7457    1.3336 H   0  0  0  0  0  0  0  0  0  0  0  0
    0.8759   -1.1128    2.2509 H   0  0  0  0  0  0  0  0  0  0  0  0
   -0.9142    0.4875    3.1822 H   0  0  0  0  0  0  0  0  0  0  0  0
    0.0251    2.9572    3.4815 H   0  0  0  0  0  0  0  0  0  0  0  0
    6.3276   -1.3372    2.7803 H   0  0  0  0  0  0  0  0  0  0  0  0
  1  2  1  0
  1 25  1  0
  1 26  1  0
  1 27  1  0
  2 19  1  0
  2 28  1  1
  2  3  1  0
  3  4  1  0
  3 47  1  0
  4  5  2  0
  4 11  1  0
  5 10  1  0
  5  6  1  0
  6  7  1  0
  6 29  1  0
  6 30  1  0
  7  8  1  0
  7 31  1  0
  7 32  1  0
  8  9  1  0
  8 11  1  0
  9 10  1  0
  9 33  1  0
  9 34  1  0
 10 35  1  0
 10 36  1  0
 11 12  1  0
 11 37  1  1
 12 13  1  0
 12 18  1  0
 12 38  1  6
 13 17  1  0
 13 14  2  0
 14 15  1  0
 14 39  1  0
 15 16  2  0
 15 40  1  0
 16 17  1  0
 16 41  1  0
 18 19  1  0
 18 42  1  0
 19 20  1  0
 19 43  1  6
 20 24  1  0
 20 21  2  0
 21 22  1  0
 21 44  1  0
 22 23  2  0
 22 45  1  0
 23 24  1  0
 23 46  1  0
M  END
>  <i_m_ct_stereo_status>  (119) 
1

>  <s_m_source_file>  (119) 
/var/tmp/pbs.5076255.sched01/tmpck0ladl8/45htcshi4i.sdf

>  <i_m_source_file_index>  (119) 
4

>  <i_lp_mmshare_version>  (119) 
48012

>  <i_f3d_flags>  (119) 
0

>  <s_epik_input>  (119) 
czFbY0hdW2NIXVtjSF1jMVtDQEBIXShbQ0BASF0oTj0yKVtDSDNdKVtOSF1bQ0BIXShjM1tjSF1bY0hdW2NIXW8zKVtDQEhdNE4oW0NIMl1bQ0gyXTUpW0NIMl1bQ0gyXVtDSF01QzI0

>  <s_epik_cmdline>  (119) 
J2VwaWtfcHl0aG9uJywgJy1waHQnLCAnMi4wJywgJy1waCcsICc3LjAnLCAnLXRuJywgJzgnLCAnLW1hJywgJzIwMCcsICctaW1hZScsICc8aW5maWxlLm1hZT4nLCAnLW9tYWUnLCAnPG91dGZpbGUubWFlPic=

>  <r_lp_tautomer_probability>  (119) 
1

>  <r_epik_Ionization_Penalty>  (119) 
0.193362

>  <r_epik_Ionization_Penalty_Charging>  (119) 
0.000310244

>  <r_epik_Ionization_Penalty_Neutral>  (119) 
0.193051

>  <r_epik_State_Penalty>  (119) 
-0

>  <r_epik_Charging_Adjusted_Penalty>  (119) 
0.000310244

>  <i_epik_Tot_Q>  (119) 
0

>  <i_epik_Tot_abs_Q>  (119) 
0

>  <s_epik_Chemistry_Notes>  (119) 
This compound has an imine and may undergo hydrolysis.

>  <s_lp_Force_Field>  (119) 
OPLS3e

>  <r_lp_Energy>  (119) 
85.3697

>  <b_lp_Chiralities_Consistent>  (119) 
1

>  <s_lp_Variant>  (119) 
36:0-1

>  <s_i_glide_gridfile>  (119) 
pfpi4k_grid

>  <i_i_glide_lignum>  (119) 
4

>  <i_i_glide_rotatable_bonds>  (119) 
2

>  <r_i_docking_score>  (119) 
-3.69111

>  <r_i_glide_ligand_efficiency>  (119) 
-0.153796

>  <r_i_glide_ligand_efficiency_sa>  (119) 
-0.443625

>  <r_i_glide_ligand_efficiency_ln>  (119) 
-0.883452

>  <r_i_glide_gscore>  (119) 
-3.69111

>  <r_i_glide_lipo>  (119) 
-1.12354

>  <r_i_glide_hbond>  (119) 
-0.130463

>  <r_i_glide_metal>  (119) 
-0

>  <r_i_glide_rewards>  (119) 
-1.08088

>  <r_i_glide_evdw>  (119) 
-29.3061

>  <r_i_glide_ecoul>  (119) 
-1.43973

>  <r_i_glide_erotb>  (119) 
0.325042

>  <r_i_glide_esite>  (119) 
0

>  <r_i_glide_emodel>  (119) 
-37.4056

>  <r_i_glide_energy>  (119) 
-30.7459

>  <r_i_glide_einternal>  (119) 
0.945476

>  <r_i_glide_intrahb_reward>  (119) 
-0

>  <i_i_glide_confnum>  (119) 
5

>  <i_i_glide_posenum>  (119) 
40

>  <r_i_glide_eff_state_penalty>  (119) 
0

>  <ligand_id>  (119) 
36

>  <original_smiles>  (119) 
CC1N=C2C3CCN(CC3)C2C(c2ccco2)NC1c1cccs1

>  <smiles>  (119) 
[H]c1oc(C2([H])N([H])C([H])(c3sc([H])c([H])c3[H])C([H])(C([H])([H])[H])N([H])C3=C4C([H])([H])C([H])([H])N(C([H])([H])C4([H])[H])C32[H])c([H])c1[H]

$$$$
36:0:1
     RDKit          3D

 47 51  0  0  1  0  0  0  0  0999 V2000
    4.7440   -0.0861    4.0164 C   0  0  0  0  0  0  0  0  0  0  0  0
    4.3356   -0.9053    2.7731 C   0  0  2  0  0  0  0  0  0  0  0  0
    5.5349   -1.5210    2.2265 N   0  0  0  0  0  0  0  0  0  0  0  0
    5.4617   -2.7702    1.6387 C   0  0  0  0  0  0  0  0  0  0  0  0
    6.5158   -3.6253    1.6872 C   0  0  0  0  0  0  0  0  0  0  0  0
    7.5442   -3.2650    0.6099 C   0  0  0  0  0  0  0  0  0  0  0  0
    6.7977   -3.2305   -0.7505 C   0  0  0  0  0  0  0  0  0  0  0  0
    5.3990   -3.7186   -0.6278 N   0  0  0  0  0  0  0  0  0  0  0  0
    5.4293   -5.0668   -0.0429 C   0  0  0  0  0  0  0  0  0  0  0  0
    6.1452   -5.0581    1.3256 C   0  0  0  0  0  0  0  0  0  0  0  0
    4.6365   -2.8508    0.3342 C   0  0  2  0  0  0  0  0  0  0  0  0
    4.2425   -1.4820   -0.2901 C   0  0  1  0  0  0  0  0  0  0  0  0
    3.7272   -1.6333   -1.6849 C   0  0  0  0  0  0  0  0  0  0  0  0
    3.8479   -0.8864   -2.8162 C   0  0  0  0  0  0  0  0  0  0  0  0
    3.0717   -1.5459   -3.8222 C   0  0  0  0  0  0  0  0  0  0  0  0
    2.5259   -2.6387   -3.2164 C   0  0  0  0  0  0  0  0  0  0  0  0
    2.8997   -2.7033   -1.9053 O   0  0  0  0  0  0  0  0  0  0  0  0
    3.2146   -0.8199    0.5208 N   0  0  0  0  0  0  0  0  0  0  0  0
    3.5771   -0.0468    1.7215 C   0  0  1  0  0  0  0  0  0  0  0  0
    2.3384    0.5898    2.2857 C   0  0  0  0  0  0  0  0  0  0  0  0
    1.0961    0.0412    2.4149 C   0  0  0  0  0  0  0  0  0  0  0  0
    0.1293    0.9432    2.9776 C   0  0  0  0  0  0  0  0  0  0  0  0
    0.6582    2.1594    3.2862 C   0  0  0  0  0  0  0  0  0  0  0  0
    2.3573    2.2397    2.8745 S   0  0  0  0  0  0  0  0  0  0  0  0
    3.8688    0.3079    4.5350 H   0  0  0  0  0  0  0  0  0  0  0  0
    5.3631    0.7656    3.7272 H   0  0  0  0  0  0  0  0  0  0  0  0
    5.3055   -0.6801    4.7371 H   0  0  0  0  0  0  0  0  0  0  0  0
    3.6692   -1.7088    3.1124 H   0  0  0  0  0  0  0  0  0  0  0  0
    8.3668   -3.9935    0.6006 H   0  0  0  0  0  0  0  0  0  0  0  0
    7.9856   -2.2869    0.8236 H   0  0  0  0  0  0  0  0  0  0  0  0
    6.8245   -2.2155   -1.1486 H   0  0  0  0  0  0  0  0  0  0  0  0
    7.3360   -3.8389   -1.4703 H   0  0  0  0  0  0  0  0  0  0  0  0
    4.4073   -5.4440    0.0660 H   0  0  0  0  0  0  0  0  0  0  0  0
    5.9240   -5.7479   -0.7181 H   0  0  0  0  0  0  0  0  0  0  0  0
    5.4619   -5.4266    2.0892 H   0  0  0  0  0  0  0  0  0  0  0  0
    7.0288   -5.7074    1.3232 H   0  0  0  0  0  0  0  0  0  0  0  0
    3.7132   -3.3517    0.5881 H   0  0  0  0  0  0  0  0  0  0  0  0
    5.1345   -0.8544   -0.3576 H   0  0  0  0  0  0  0  0  0  0  0  0
    4.3865    0.0443   -2.8802 H   0  0  0  0  0  0  0  0  0  0  0  0
    2.8803   -1.2251   -4.8294 H   0  0  0  0  0  0  0  0  0  0  0  0
    1.8431   -3.4125   -3.5382 H   0  0  0  0  0  0  0  0  0  0  0  0
    2.4646   -0.4063   -0.0549 H   0  0  0  0  0  0  0  0  0  0  0  0
    4.2336    0.7780    1.4290 H   0  0  0  0  0  0  0  0  0  0  0  0
    0.8391   -0.9528    2.1065 H   0  0  0  0  0  0  0  0  0  0  0  0
   -0.9012    0.6581    3.1051 H   0  0  0  0  0  0  0  0  0  0  0  0
    0.1629    3.0268    3.6905 H   0  0  0  0  0  0  0  0  0  0  0  0
    6.3193   -1.4046    2.8467 H   0  0  0  0  0  0  0  0  0  0  0  0
  1  2  1  0
  1 25  1  0
  1 26  1  0
  1 27  1  0
  2 19  1  0
  2 28  1  1
  2  3  1  0
  3  4  1  0
  3 47  1  0
  4  5  2  0
  4 11  1  0
  5 10  1  0
  5  6  1  0
  6  7  1  0
  6 29  1  0
  6 30  1  0
  7  8  1  0
  7 31  1  0
  7 32  1  0
  8  9  1  0
  8 11  1  0
  9 10  1  0
  9 33  1  0
  9 34  1  0
 10 35  1  0
 10 36  1  0
 11 12  1  0
 11 37  1  1
 12 13  1  0
 12 18  1  0
 12 38  1  6
 13 17  1  0
 13 14  2  0
 14 15  1  0
 14 39  1  0
 15 16  2  0
 15 40  1  0
 16 17  1  0
 16 41  1  0
 18 19  1  0
 18 42  1  0
 19 20  1  0
 19 43  1  6
 20 24  1  0
 20 21  2  0
 21 22  1  0
 21 44  1  0
 22 23  2  0
 22 45  1  0
 23 24  1  0
 23 46  1  0
M  END
>  <i_m_ct_stereo_status>  (120) 
1

>  <s_m_source_file>  (120) 
/var/tmp/pbs.5076255.sched01/tmpck0ladl8/45htcshi4i.sdf

>  <i_m_source_file_index>  (120) 
4

>  <i_lp_mmshare_version>  (120) 
48012

>  <i_f3d_flags>  (120) 
0

>  <s_epik_input>  (120) 
czFbY0hdW2NIXVtjSF1jMVtDQEBIXShbQ0BASF0oTj0yKVtDSDNdKVtOSF1bQ0BIXShjM1tjSF1bY0hdW2NIXW8zKVtDQEhdNE4oW0NIMl1bQ0gyXTUpW0NIMl1bQ0gyXVtDSF01QzI0

>  <s_epik_cmdline>  (120) 
J2VwaWtfcHl0aG9uJywgJy1waHQnLCAnMi4wJywgJy1waCcsICc3LjAnLCAnLXRuJywgJzgnLCAnLW1hJywgJzIwMCcsICctaW1hZScsICc8aW5maWxlLm1hZT4nLCAnLW9tYWUnLCAnPG91dGZpbGUubWFlPic=

>  <r_lp_tautomer_probability>  (120) 
1

>  <r_epik_Ionization_Penalty>  (120) 
0.193362

>  <r_epik_Ionization_Penalty_Charging>  (120) 
0.000310244

>  <r_epik_Ionization_Penalty_Neutral>  (120) 
0.193051

>  <r_epik_State_Penalty>  (120) 
-0

>  <r_epik_Charging_Adjusted_Penalty>  (120) 
0.000310244

>  <i_epik_Tot_Q>  (120) 
0

>  <i_epik_Tot_abs_Q>  (120) 
0

>  <s_epik_Chemistry_Notes>  (120) 
This compound has an imine and may undergo hydrolysis.

>  <s_lp_Force_Field>  (120) 
OPLS3e

>  <r_lp_Energy>  (120) 
85.3697

>  <b_lp_Chiralities_Consistent>  (120) 
1

>  <s_lp_Variant>  (120) 
36:0-1

>  <s_i_glide_gridfile>  (120) 
pfpi4k_grid

>  <i_i_glide_lignum>  (120) 
4

>  <i_i_glide_rotatable_bonds>  (120) 
2

>  <r_i_docking_score>  (120) 
-3.4108

>  <r_i_glide_ligand_efficiency>  (120) 
-0.142117

>  <r_i_glide_ligand_efficiency_sa>  (120) 
-0.409936

>  <r_i_glide_ligand_efficiency_ln>  (120) 
-0.816361

>  <r_i_glide_gscore>  (120) 
-3.4108

>  <r_i_glide_lipo>  (120) 
-0.922642

>  <r_i_glide_hbond>  (120) 
-0.120641

>  <r_i_glide_metal>  (120) 
-0

>  <r_i_glide_rewards>  (120) 
-1.08088

>  <r_i_glide_evdw>  (120) 
-29.7338

>  <r_i_glide_ecoul>  (120) 
-0.833292

>  <r_i_glide_erotb>  (120) 
0.325042

>  <r_i_glide_esite>  (120) 
0

>  <r_i_glide_emodel>  (120) 
-36.5322

>  <r_i_glide_energy>  (120) 
-30.5671

>  <r_i_glide_einternal>  (120) 
0.920328

>  <r_i_glide_intrahb_reward>  (120) 
-0

>  <i_i_glide_confnum>  (120) 
2

>  <i_i_glide_posenum>  (120) 
30

>  <r_i_glide_eff_state_penalty>  (120) 
0

>  <ligand_id>  (120) 
36

>  <original_smiles>  (120) 
CC1N=C2C3CCN(CC3)C2C(c2ccco2)NC1c1cccs1

>  <smiles>  (120) 
[H]c1oc(C2([H])N([H])C([H])(c3sc([H])c([H])c3[H])C([H])(C([H])([H])[H])N([H])C3=C4C([H])([H])C([H])([H])N(C([H])([H])C4([H])[H])C32[H])c([H])c1[H]

$$$$
36:0:2
     RDKit          3D

 47 51  0  0  1  0  0  0  0  0999 V2000
    4.2155   -7.2666    0.8583 C   0  0  0  0  0  0  0  0  0  0  0  0
    3.6736   -5.8345    0.6696 C   0  0  2  0  0  0  0  0  0  0  0  0
    4.7499   -4.9797    0.1971 N   0  0  0  0  0  0  0  0  0  0  0  0
    4.4704   -3.9367   -0.6692 C   0  0  0  0  0  0  0  0  0  0  0  0
    5.3758   -3.5456   -1.5923 C   0  0  0  0  0  0  0  0  0  0  0  0
    6.4327   -2.6483   -0.9575 C   0  0  0  0  0  0  0  0  0  0  0  0
    5.6662   -1.4841   -0.2488 C   0  0  0  0  0  0  0  0  0  0  0  0
    4.2131   -1.5080   -0.5570 N   0  0  0  0  0  0  0  0  0  0  0  0
    4.0790   -1.4536   -2.0212 C   0  0  0  0  0  0  0  0  0  0  0  0
    4.7888   -2.6601   -2.6884 C   0  0  0  0  0  0  0  0  0  0  0  0
    3.5967   -2.7893   -0.0878 C   0  0  2  0  0  0  0  0  0  0  0  0
    3.3639   -2.8386    1.4598 C   0  0  1  0  0  0  0  0  0  0  0  0
    2.7696   -1.5700    2.0193 C   0  0  0  0  0  0  0  0  0  0  0  0
    1.5229   -1.2252    2.4715 C   0  0  0  0  0  0  0  0  0  0  0  0
    1.5900    0.1379    2.8759 C   0  0  0  0  0  0  0  0  0  0  0  0
    2.8810    0.5285    2.6471 C   0  0  0  0  0  0  0  0  0  0  0  0
    3.6148   -0.5049    2.1472 O   0  0  0  0  0  0  0  0  0  0  0  0
    2.4866   -3.9484    1.8597 N   0  0  0  0  0  0  0  0  0  0  0  0
    3.0161   -5.3096    1.9699 C   0  0  1  0  0  0  0  0  0  0  0  0
    1.8885   -6.1962    2.4286 C   0  0  0  0  0  0  0  0  0  0  0  0
    1.6565   -6.6691    3.6936 C   0  0  0  0  0  0  0  0  0  0  0  0
    0.4874   -7.4825    3.7903 C   0  0  0  0  0  0  0  0  0  0  0  0
   -0.1707   -7.6166    2.5987 C   0  0  0  0  0  0  0  0  0  0  0  0
    0.6322   -6.7320    1.3295 S   0  0  0  0  0  0  0  0  0  0  0  0
    3.4226   -7.9695    1.1151 H   0  0  0  0  0  0  0  0  0  0  0  0
    4.9566   -7.3068    1.6589 H   0  0  0  0  0  0  0  0  0  0  0  0
    4.6784   -7.6402   -0.0556 H   0  0  0  0  0  0  0  0  0  0  0  0
    2.9225   -5.8634   -0.1236 H   0  0  0  0  0  0  0  0  0  0  0  0
    7.1271   -2.2753   -1.7163 H   0  0  0  0  0  0  0  0  0  0  0  0
    7.0301   -3.2074   -0.2353 H   0  0  0  0  0  0  0  0  0  0  0  0
    5.8274   -1.5428    0.8280 H   0  0  0  0  0  0  0  0  0  0  0  0
    6.0844   -0.5262   -0.5532 H   0  0  0  0  0  0  0  0  0  0  0  0
    3.0203   -1.4538   -2.2863 H   0  0  0  0  0  0  0  0  0  0  0  0
    4.4864   -0.5146   -2.3993 H   0  0  0  0  0  0  0  0  0  0  0  0
    4.0720   -3.2431   -3.2639 H   0  0  0  0  0  0  0  0  0  0  0  0
    5.5616   -2.3310   -3.3825 H   0  0  0  0  0  0  0  0  0  0  0  0
    2.6137   -2.8728   -0.5524 H   0  0  0  0  0  0  0  0  0  0  0  0
    4.3281   -2.9603    1.9506 H   0  0  0  0  0  0  0  0  0  0  0  0
    0.6632   -1.8761    2.4897 H   0  0  0  0  0  0  0  0  0  0  0  0
    0.8023    0.7611    3.2711 H   0  0  0  0  0  0  0  0  0  0  0  0
    3.4118    1.4597    2.7794 H   0  0  0  0  0  0  0  0  0  0  0  0
    2.0386   -3.6957    2.7333 H   0  0  0  0  0  0  0  0  0  0  0  0
    3.7847   -5.3202    2.7460 H   0  0  0  0  0  0  0  0  0  0  0  0
    2.2803   -6.4657    4.5490 H   0  0  0  0  0  0  0  0  0  0  0  0
    0.1802   -7.9416    4.7189 H   0  0  0  0  0  0  0  0  0  0  0  0
   -1.0573   -8.2015    2.3886 H   0  0  0  0  0  0  0  0  0  0  0  0
    5.5299   -5.5457   -0.1047 H   0  0  0  0  0  0  0  0  0  0  0  0
  1  2  1  0
  1 25  1  0
  1 26  1  0
  1 27  1  0
  2 19  1  0
  2 28  1  6
  2  3  1  0
  3  4  1  0
  3 47  1  0
  4  5  2  0
  4 11  1  0
  5 10  1  0
  5  6  1  0
  6  7  1  0
  6 29  1  0
  6 30  1  0
  7  8  1  0
  7 31  1  0
  7 32  1  0
  8  9  1  0
  8 11  1  0
  9 10  1  0
  9 33  1  0
  9 34  1  0
 10 35  1  0
 10 36  1  0
 11 12  1  0
 11 37  1  6
 12 13  1  0
 12 18  1  0
 12 38  1  1
 13 17  1  0
 13 14  2  0
 14 15  1  0
 14 39  1  0
 15 16  2  0
 15 40  1  0
 16 17  1  0
 16 41  1  0
 18 19  1  0
 18 42  1  0
 19 20  1  0
 19 43  1  1
 20 24  1  0
 20 21  2  0
 21 22  1  0
 21 44  1  0
 22 23  2  0
 22 45  1  0
 23 24  1  0
 23 46  1  0
M  END
>  <i_m_ct_stereo_status>  (121) 
1

>  <s_m_source_file>  (121) 
/var/tmp/pbs.5076255.sched01/tmpck0ladl8/45htcshi4i.sdf

>  <i_m_source_file_index>  (121) 
4

>  <i_lp_mmshare_version>  (121) 
48012

>  <i_f3d_flags>  (121) 
0

>  <s_epik_input>  (121) 
czFbY0hdW2NIXVtjSF1jMVtDQEBIXShbQ0BASF0oTj0yKVtDSDNdKVtOSF1bQ0BIXShjM1tjSF1bY0hdW2NIXW8zKVtDQEhdNE4oW0NIMl1bQ0gyXTUpW0NIMl1bQ0gyXVtDSF01QzI0

>  <s_epik_cmdline>  (121) 
J2VwaWtfcHl0aG9uJywgJy1waHQnLCAnMi4wJywgJy1waCcsICc3LjAnLCAnLXRuJywgJzgnLCAnLW1hJywgJzIwMCcsICctaW1hZScsICc8aW5maWxlLm1hZT4nLCAnLW9tYWUnLCAnPG91dGZpbGUubWFlPic=

>  <r_lp_tautomer_probability>  (121) 
1

>  <r_epik_Ionization_Penalty>  (121) 
0.193362

>  <r_epik_Ionization_Penalty_Charging>  (121) 
0.000310244

>  <r_epik_Ionization_Penalty_Neutral>  (121) 
0.193051

>  <r_epik_State_Penalty>  (121) 
-0

>  <r_epik_Charging_Adjusted_Penalty>  (121) 
0.000310244

>  <i_epik_Tot_Q>  (121) 
0

>  <i_epik_Tot_abs_Q>  (121) 
0

>  <s_epik_Chemistry_Notes>  (121) 
This compound has an imine and may undergo hydrolysis.

>  <s_lp_Force_Field>  (121) 
OPLS3e

>  <r_lp_Energy>  (121) 
85.3697

>  <b_lp_Chiralities_Consistent>  (121) 
1

>  <s_lp_Variant>  (121) 
36:0-1

>  <s_i_glide_gridfile>  (121) 
pfpi4k_grid

>  <i_i_glide_lignum>  (121) 
4

>  <i_i_glide_rotatable_bonds>  (121) 
2

>  <r_i_docking_score>  (121) 
-2.78456

>  <r_i_glide_ligand_efficiency>  (121) 
-0.116023

>  <r_i_glide_ligand_efficiency_sa>  (121) 
-0.334669

>  <r_i_glide_ligand_efficiency_ln>  (121) 
-0.666472

>  <r_i_glide_gscore>  (121) 
-2.78456

>  <r_i_glide_lipo>  (121) 
-0.408216

>  <r_i_glide_hbond>  (121) 
0

>  <r_i_glide_metal>  (121) 
-0

>  <r_i_glide_rewards>  (121) 
-1.08088

>  <r_i_glide_evdw>  (121) 
-32.1741

>  <r_i_glide_ecoul>  (121) 
-0.078683

>  <r_i_glide_erotb>  (121) 
0.325042

>  <r_i_glide_esite>  (121) 
0

>  <r_i_glide_emodel>  (121) 
-37.1399

>  <r_i_glide_energy>  (121) 
-32.2528

>  <r_i_glide_einternal>  (121) 
0.744836

>  <r_i_glide_intrahb_reward>  (121) 
-0

>  <i_i_glide_confnum>  (121) 
2

>  <i_i_glide_posenum>  (121) 
15

>  <r_i_glide_eff_state_penalty>  (121) 
0

>  <ligand_id>  (121) 
36

>  <original_smiles>  (121) 
CC1N=C2C3CCN(CC3)C2C(c2ccco2)NC1c1cccs1

>  <smiles>  (121) 
[H]c1oc(C2([H])N([H])C([H])(c3sc([H])c([H])c3[H])C([H])(C([H])([H])[H])N([H])C3=C4C([H])([H])C([H])([H])N(C([H])([H])C4([H])[H])C32[H])c([H])c1[H]

$$$$
37:0:0
     RDKit          3D

 50 55  0  0  1  0  0  0  0  0999 V2000
    4.7704   -4.4647    3.8516 C   0  0  0  0  0  0  0  0  0  0  0  0
    5.4648   -3.6663    2.7378 C   0  0  2  0  0  0  0  0  0  0  0  0
    5.4122   -2.1155    3.0331 C   0  0  0  0  0  0  0  0  0  0  0  0
    4.3199   -1.2129    2.3487 C   0  0  0  0  0  0  0  0  0  0  0  0
    4.3505   -1.1114    0.8079 C   0  0  0  0  0  0  0  0  0  0  0  0
    3.9776   -2.1962    0.0755 C   0  0  0  0  0  0  0  0  0  0  0  0
    4.5567   -2.9459   -1.1999 C   0  0  1  0  0  0  0  0  0  0  0  0
    4.5877   -2.1581   -2.5673 C   0  0  0  0  0  0  0  0  0  0  0  0
    3.6682   -0.9292   -2.6803 C   0  0  0  0  0  0  0  0  0  0  0  0
    4.4599   -3.0281   -3.8512 C   0  0  0  0  0  0  0  0  0  0  0  0
    5.7480   -3.9533   -1.0669 C   0  0  1  0  0  0  0  0  0  0  0  0
    7.2101   -3.4185   -1.0907 C   0  0  0  0  0  0  0  0  0  0  0  0
    5.3483   -4.8906    0.1424 C   0  0  1  0  0  0  0  0  0  0  0  0
    5.0856   -3.8839    1.2496 C   0  0  1  0  0  0  0  0  0  0  0  0
    3.7543   -3.4878    0.7463 C   0  0  1  0  0  0  0  0  0  0  0  0
    2.6350   -4.3353    1.2616 C   0  0  2  0  0  0  0  0  0  0  0  0
    3.0961   -5.3480    2.0451 O   0  0  0  0  0  0  0  0  0  0  0  0
    3.6185   -6.2315    1.0306 C   0  0  0  0  0  0  0  0  0  0  0  0
    3.8829   -5.3838   -0.3098 C   0  0  2  0  0  0  0  0  0  0  0  0
    2.5409   -5.1560    0.1895 O   0  0  0  0  0  0  0  0  0  0  0  0
    3.4567   -3.9051   -0.7298 C   0  0  2  0  0  0  0  0  0  0  0  0
    2.0817   -3.6576   -1.5396 C   0  0  0  0  0  0  0  0  0  0  0  0
    3.7213   -4.1758    3.9714 H   0  0  0  0  0  0  0  0  0  0  0  0
    5.2554   -4.3121    4.8176 H   0  0  0  0  0  0  0  0  0  0  0  0
    4.8285   -5.5360    3.6395 H   0  0  0  0  0  0  0  0  0  0  0  0
    6.4866   -4.0300    2.7743 H   0  0  0  0  0  0  0  0  0  0  0  0
    5.3242   -1.9704    4.1047 H   0  0  0  0  0  0  0  0  0  0  0  0
    6.3551   -1.6587    2.7570 H   0  0  0  0  0  0  0  0  0  0  0  0
    3.3220   -1.5492    2.6273 H   0  0  0  0  0  0  0  0  0  0  0  0
    4.4013   -0.1915    2.7171 H   0  0  0  0  0  0  0  0  0  0  0  0
    4.9484   -0.3200    0.3338 H   0  0  0  0  0  0  0  0  0  0  0  0
    5.5619   -1.7009   -2.5618 H   0  0  0  0  0  0  0  0  0  0  0  0
    2.5955   -1.1624   -2.7780 H   0  0  0  0  0  0  0  0  0  0  0  0
    3.9298   -0.3002   -3.5453 H   0  0  0  0  0  0  0  0  0  0  0  0
    3.8257   -0.2804   -1.8117 H   0  0  0  0  0  0  0  0  0  0  0  0
    3.5203   -3.5140   -4.0099 H   0  0  0  0  0  0  0  0  0  0  0  0
    5.2819   -3.7666   -3.9546 H   0  0  0  0  0  0  0  0  0  0  0  0
    4.6270   -2.3246   -4.6759 H   0  0  0  0  0  0  0  0  0  0  0  0
    5.7126   -4.6207   -1.9162 H   0  0  0  0  0  0  0  0  0  0  0  0
    7.3779   -2.5424   -0.4622 H   0  0  0  0  0  0  0  0  0  0  0  0
    7.5010   -3.1483   -2.1088 H   0  0  0  0  0  0  0  0  0  0  0  0
    7.9288   -4.1765   -0.7617 H   0  0  0  0  0  0  0  0  0  0  0  0
    6.0756   -5.6827    0.3319 H   0  0  0  0  0  0  0  0  0  0  0  0
    5.8426   -3.1520    1.0138 H   0  0  0  0  0  0  0  0  0  0  0  0
    1.7613   -3.8096    1.6310 H   0  0  0  0  0  0  0  0  0  0  0  0
    4.5246   -6.7200    1.4195 H   0  0  0  0  0  0  0  0  0  0  0  0
    2.9131   -7.0641    0.8521 H   0  0  0  0  0  0  0  0  0  0  0  0
    1.1706   -4.1418   -1.1238 H   0  0  0  0  0  0  0  0  0  0  0  0
    2.1751   -3.9539   -2.5428 H   0  0  0  0  0  0  0  0  0  0  0  0
    1.7947   -2.6136   -1.5155 H   0  0  0  0  0  0  0  0  0  0  0  0
  1  2  1  0
  1 23  1  0
  1 24  1  0
  1 25  1  0
  2 14  1  0
  2  3  1  0
  2 26  1  6
  3  4  1  0
  3 27  1  0
  3 28  1  0
  4  5  1  0
  4 29  1  0
  4 30  1  0
  5  6  2  0
  5 31  1  0
 15  6  1  6
  6  7  1  0
  7 21  1  0
  7  8  1  6
  7 11  1  0
  8  9  1  0
  8 10  1  0
  8 32  1  0
  9 33  1  0
  9 34  1  0
  9 35  1  0
 10 36  1  0
 10 37  1  0
 10 38  1  0
 11 12  1  0
 11 13  1  0
 11 39  1  6
 12 40  1  0
 12 41  1  0
 12 42  1  0
 13 19  1  0
 13 14  1  0
 13 43  1  1
 14 15  1  0
 14 44  1  6
 15 21  1  0
 15 16  1  0
 16 20  1  0
 16 17  1  0
 16 45  1  1
 17 18  1  0
 19 18  1  6
 18 46  1  0
 18 47  1  0
 19 20  1  0
 19 21  1  0
 21 22  1  6
 22 48  1  0
 22 49  1  0
 22 50  1  0
M  END
>  <i_m_ct_stereo_status>  (122) 
1

>  <s_m_source_file>  (122) 
/var/tmp/pbs.5076255.sched01/tmpck0ladl8/45htcshi4i.sdf

>  <i_m_source_file_index>  (122) 
5

>  <i_lp_mmshare_version>  (122) 
48012

>  <i_f3d_flags>  (122) 
0

>  <s_epik_input>  (122) 
W0NIXT0xW0NIMl1bQ0gyXVtDQEBIXShbQ0gzXSlbQ0BIXTJbQ0BIXShbQ0BASF0zW0NIM10pQzQoW0NIMl1PW0NAQEhdNU80KVtDQF02KFtDSDNdKVtDQF0zKEMxW0NAQF0yNTYpW0NIXShbQ0gzXSlbQ0gzXQ==

>  <s_epik_cmdline>  (122) 
J2VwaWtfcHl0aG9uJywgJy1waHQnLCAnMi4wJywgJy1waCcsICc3LjAnLCAnLXRuJywgJzgnLCAnLW1hJywgJzIwMCcsICctaW1hZScsICc8aW5maWxlLm1hZT4nLCAnLW9tYWUnLCAnPG91dGZpbGUubWFlPic=

>  <r_lp_tautomer_probability>  (122) 
1

>  <r_epik_Ionization_Penalty>  (122) 
5.44125e-13

>  <r_epik_Ionization_Penalty_Charging>  (122) 
0

>  <r_epik_Ionization_Penalty_Neutral>  (122) 
5.44125e-13

>  <r_epik_State_Penalty>  (122) 
-0

>  <r_epik_Charging_Adjusted_Penalty>  (122) 
0

>  <i_epik_Tot_Q>  (122) 
0

>  <i_epik_Tot_abs_Q>  (122) 
0

>  <s_epik_Chemistry_Notes>  (122) 
This compound contains an acetal/aminal-like group ( X-CH(R)-Y where X, Y are N, S, or O) that may be acid/base labile, releasing an aldehyde.

>  <s_lp_Force_Field>  (122) 
OPLS3e

>  <r_lp_Energy>  (122) 
269.701

>  <b_lp_Chiralities_Consistent>  (122) 
1

>  <s_lp_Variant>  (122) 
37:0-1

>  <s_i_glide_gridfile>  (122) 
pfpi4k_grid

>  <i_i_glide_lignum>  (122) 
5

>  <i_i_glide_rotatable_bonds>  (122) 
1

>  <r_i_docking_score>  (122) 
-2.92658

>  <r_i_glide_ligand_efficiency>  (122) 
-0.133026

>  <r_i_glide_ligand_efficiency_sa>  (122) 
-0.372745

>  <r_i_glide_ligand_efficiency_ln>  (122) 
-0.715363

>  <r_i_glide_gscore>  (122) 
-2.92658

>  <r_i_glide_lipo>  (122) 
-0.679801

>  <r_i_glide_hbond>  (122) 
0

>  <r_i_glide_metal>  (122) 
-0

>  <r_i_glide_rewards>  (122) 
-1.36067

>  <r_i_glide_evdw>  (122) 
-16.003

>  <r_i_glide_ecoul>  (122) 
-0.449656

>  <r_i_glide_erotb>  (122) 
0

>  <r_i_glide_esite>  (122) 
-0.0185092

>  <r_i_glide_emodel>  (122) 
-17.5058

>  <r_i_glide_energy>  (122) 
-16.4527

>  <r_i_glide_einternal>  (122) 
2.55941

>  <r_i_glide_intrahb_reward>  (122) 
-0

>  <i_i_glide_confnum>  (122) 
1

>  <i_i_glide_posenum>  (122) 
25

>  <r_i_glide_eff_state_penalty>  (122) 
0

>  <ligand_id>  (122) 
37

>  <original_smiles>  (122) 
CC1CCC=C2C3(C(C)C)C(C)C4C1C21C2OCC4(O2)C31C

>  <smiles>  (122) 
[H]C1=C2C34C5([H])OC([H])([H])C6(O5)C([H])(C3([H])C([H])(C([H])([H])[H])C([H])([H])C1([H])[H])C([H])(C([H])([H])[H])C2(C([H])(C([H])([H])[H])C([H])([H])[H])C64C([H])([H])[H]

$$$$
37:0:1
     RDKit          3D

 50 55  0  0  1  0  0  0  0  0999 V2000
    5.2695   -4.2247    3.5866 C   0  0  0  0  0  0  0  0  0  0  0  0
    5.5355   -3.3393    2.3538 C   0  0  2  0  0  0  0  0  0  0  0  0
    5.1901   -1.8281    2.6605 C   0  0  0  0  0  0  0  0  0  0  0  0
    3.7953   -1.2215    2.2206 C   0  0  0  0  0  0  0  0  0  0  0  0
    3.5093   -1.1976    0.6987 C   0  0  0  0  0  0  0  0  0  0  0  0
    3.2572   -2.3620    0.0656 C   0  0  0  0  0  0  0  0  0  0  0  0
    3.7430   -3.0086   -1.3148 C   0  0  1  0  0  0  0  0  0  0  0  0
    3.2428   -2.2996   -2.6196 C   0  0  0  0  0  0  0  0  0  0  0  0
    3.2559   -3.1901   -3.8913 C   0  0  0  0  0  0  0  0  0  0  0  0
    3.9522   -0.9693   -2.9346 C   0  0  0  0  0  0  0  0  0  0  0  0
    5.1006   -3.7840   -1.4436 C   0  0  1  0  0  0  0  0  0  0  0  0
    6.3651   -2.9660   -1.7678 C   0  0  0  0  0  0  0  0  0  0  0  0
    5.1342   -4.7144   -0.1785 C   0  0  1  0  0  0  0  0  0  0  0  0
    4.9093   -3.7332    0.9834 C   0  0  1  0  0  0  0  0  0  0  0  0
    3.4372   -3.6238    0.7760 C   0  0  1  0  0  0  0  0  0  0  0  0
    2.6322   -4.7001    1.4794 C   0  0  2  0  0  0  0  0  0  0  0  0
    3.4423   -5.5471    2.1545 O   0  0  0  0  0  0  0  0  0  0  0  0
    3.9434   -6.3391    1.0526 C   0  0  0  0  0  0  0  0  0  0  0  0
    3.7374   -5.5202   -0.3061 C   0  0  2  0  0  0  0  0  0  0  0  0
    2.4907   -5.5515    0.4235 O   0  0  0  0  0  0  0  0  0  0  0  0
    2.9797   -4.1515   -0.6227 C   0  0  2  0  0  0  0  0  0  0  0  0
    1.4710   -4.1873   -1.1939 C   0  0  0  0  0  0  0  0  0  0  0  0
    4.2303   -4.1672    3.9137 H   0  0  0  0  0  0  0  0  0  0  0  0
    5.8712   -3.9280    4.4414 H   0  0  0  0  0  0  0  0  0  0  0  0
    5.5154   -5.2662    3.3754 H   0  0  0  0  0  0  0  0  0  0  0  0
    6.6129   -3.3808    2.2058 H   0  0  0  0  0  0  0  0  0  0  0  0
    5.2961   -1.6611    3.7335 H   0  0  0  0  0  0  0  0  0  0  0  0
    5.9598   -1.2012    2.2101 H   0  0  0  0  0  0  0  0  0  0  0  0
    2.9852   -1.7600    2.7254 H   0  0  0  0  0  0  0  0  0  0  0  0
    3.7294   -0.1917    2.5751 H   0  0  0  0  0  0  0  0  0  0  0  0
    3.7688   -0.3058    0.1449 H   0  0  0  0  0  0  0  0  0  0  0  0
    2.2067   -2.0082   -2.4597 H   0  0  0  0  0  0  0  0  0  0  0  0
    4.2692   -3.3714   -4.2476 H   0  0  0  0  0  0  0  0  0  0  0  0
    2.7045   -2.7071   -4.6955 H   0  0  0  0  0  0  0  0  0  0  0  0
    2.7942   -4.1649   -3.7634 H   0  0  0  0  0  0  0  0  0  0  0  0
    5.0071   -1.0909   -3.1487 H   0  0  0  0  0  0  0  0  0  0  0  0
    3.8568   -0.2557   -2.1221 H   0  0  0  0  0  0  0  0  0  0  0  0
    3.5137   -0.5060   -3.8172 H   0  0  0  0  0  0  0  0  0  0  0  0
    5.0224   -4.4774   -2.2824 H   0  0  0  0  0  0  0  0  0  0  0  0
    6.4265   -2.0420   -1.1997 H   0  0  0  0  0  0  0  0  0  0  0  0
    6.3874   -2.7166   -2.8270 H   0  0  0  0  0  0  0  0  0  0  0  0
    7.2725   -3.5405   -1.5912 H   0  0  0  0  0  0  0  0  0  0  0  0
    6.0369   -5.3196   -0.1210 H   0  0  0  0  0  0  0  0  0  0  0  0
    5.4320   -2.8728    0.5733 H   0  0  0  0  0  0  0  0  0  0  0  0
    1.7203   -4.3984    2.0054 H   0  0  0  0  0  0  0  0  0  0  0  0
    4.9883   -6.5970    1.2655 H   0  0  0  0  0  0  0  0  0  0  0  0
    3.4337   -7.3204    1.0312 H   0  0  0  0  0  0  0  0  0  0  0  0
    0.7819   -4.9146   -0.7590 H   0  0  0  0  0  0  0  0  0  0  0  0
    1.4342   -4.4729   -2.2334 H   0  0  0  0  0  0  0  0  0  0  0  0
    0.9885   -3.2162   -1.1342 H   0  0  0  0  0  0  0  0  0  0  0  0
  1  2  1  0
  1 23  1  0
  1 24  1  0
  1 25  1  0
  2 14  1  0
  2  3  1  0
  2 26  1  6
  3  4  1  0
  3 27  1  0
  3 28  1  0
  4  5  1  0
  4 29  1  0
  4 30  1  0
  5  6  2  0
  5 31  1  0
 15  6  1  1
  6  7  1  0
  7 21  1  0
  7  8  1  6
  7 11  1  0
  8  9  1  0
  8 10  1  0
  8 32  1  0
  9 33  1  0
  9 34  1  0
  9 35  1  0
 10 36  1  0
 10 37  1  0
 10 38  1  0
 11 12  1  0
 11 13  1  0
 11 39  1  6
 12 40  1  0
 12 41  1  0
 12 42  1  0
 13 19  1  0
 13 14  1  0
 13 43  1  1
 14 15  1  0
 14 44  1  6
 15 21  1  0
 15 16  1  0
 16 20  1  0
 16 17  1  0
 16 45  1  1
 17 18  1  0
 19 18  1  6
 18 46  1  0
 18 47  1  0
 19 20  1  0
 19 21  1  0
 21 22  1  1
 22 48  1  0
 22 49  1  0
 22 50  1  0
M  END
>  <i_m_ct_stereo_status>  (123) 
1

>  <s_m_source_file>  (123) 
/var/tmp/pbs.5076255.sched01/tmpck0ladl8/45htcshi4i.sdf

>  <i_m_source_file_index>  (123) 
5

>  <i_lp_mmshare_version>  (123) 
48012

>  <i_f3d_flags>  (123) 
0

>  <s_epik_input>  (123) 
W0NIXT0xW0NIMl1bQ0gyXVtDQEBIXShbQ0gzXSlbQ0BIXTJbQ0BIXShbQ0BASF0zW0NIM10pQzQoW0NIMl1PW0NAQEhdNU80KVtDQF02KFtDSDNdKVtDQF0zKEMxW0NAQF0yNTYpW0NIXShbQ0gzXSlbQ0gzXQ==

>  <s_epik_cmdline>  (123) 
J2VwaWtfcHl0aG9uJywgJy1waHQnLCAnMi4wJywgJy1waCcsICc3LjAnLCAnLXRuJywgJzgnLCAnLW1hJywgJzIwMCcsICctaW1hZScsICc8aW5maWxlLm1hZT4nLCAnLW9tYWUnLCAnPG91dGZpbGUubWFlPic=

>  <r_lp_tautomer_probability>  (123) 
1

>  <r_epik_Ionization_Penalty>  (123) 
5.44125e-13

>  <r_epik_Ionization_Penalty_Charging>  (123) 
0

>  <r_epik_Ionization_Penalty_Neutral>  (123) 
5.44125e-13

>  <r_epik_State_Penalty>  (123) 
-0

>  <r_epik_Charging_Adjusted_Penalty>  (123) 
0

>  <i_epik_Tot_Q>  (123) 
0

>  <i_epik_Tot_abs_Q>  (123) 
0

>  <s_epik_Chemistry_Notes>  (123) 
This compound contains an acetal/aminal-like group ( X-CH(R)-Y where X, Y are N, S, or O) that may be acid/base labile, releasing an aldehyde.

>  <s_lp_Force_Field>  (123) 
OPLS3e

>  <r_lp_Energy>  (123) 
269.701

>  <b_lp_Chiralities_Consistent>  (123) 
1

>  <s_lp_Variant>  (123) 
37:0-1

>  <s_i_glide_gridfile>  (123) 
pfpi4k_grid

>  <i_i_glide_lignum>  (123) 
5

>  <i_i_glide_rotatable_bonds>  (123) 
1

>  <r_i_docking_score>  (123) 
-2.86451

>  <r_i_glide_ligand_efficiency>  (123) 
-0.130205

>  <r_i_glide_ligand_efficiency_sa>  (123) 
-0.36484

>  <r_i_glide_ligand_efficiency_ln>  (123) 
-0.700192

>  <r_i_glide_gscore>  (123) 
-2.86451

>  <r_i_glide_lipo>  (123) 
-0.477929

>  <r_i_glide_hbond>  (123) 
0

>  <r_i_glide_metal>  (123) 
-0

>  <r_i_glide_rewards>  (123) 
-1.36067

>  <r_i_glide_evdw>  (123) 
-18.6588

>  <r_i_glide_ecoul>  (123) 
-0.509417

>  <r_i_glide_erotb>  (123) 
0

>  <r_i_glide_esite>  (123) 
-0.0165609

>  <r_i_glide_emodel>  (123) 
-21.938

>  <r_i_glide_energy>  (123) 
-19.1683

>  <r_i_glide_einternal>  (123) 
0.0066255

>  <r_i_glide_intrahb_reward>  (123) 
-0

>  <i_i_glide_confnum>  (123) 
1

>  <i_i_glide_posenum>  (123) 
32

>  <r_i_glide_eff_state_penalty>  (123) 
0

>  <ligand_id>  (123) 
37

>  <original_smiles>  (123) 
CC1CCC=C2C3(C(C)C)C(C)C4C1C21C2OCC4(O2)C31C

>  <smiles>  (123) 
[H]C1=C2C34C5([H])OC([H])([H])C6(O5)C([H])(C3([H])C([H])(C([H])([H])[H])C([H])([H])C1([H])[H])C([H])(C([H])([H])[H])C2(C([H])(C([H])([H])[H])C([H])([H])[H])C64C([H])([H])[H]

$$$$
37:0:2
     RDKit          3D

 50 55  0  0  1  0  0  0  0  0999 V2000
    4.2830   -1.2985   -0.6219 C   0  0  0  0  0  0  0  0  0  0  0  0
    5.0304   -1.6990    0.6643 C   0  0  2  0  0  0  0  0  0  0  0  0
    6.5870   -1.5914    0.4742 C   0  0  0  0  0  0  0  0  0  0  0  0
    7.4517   -2.8637    0.1118 C   0  0  0  0  0  0  0  0  0  0  0  0
    7.4683   -4.0055    1.1390 C   0  0  0  0  0  0  0  0  0  0  0  0
    6.3399   -4.7477    1.3343 C   0  0  0  0  0  0  0  0  0  0  0  0
    5.5557   -5.2626    2.6326 C   0  0  1  0  0  0  0  0  0  0  0  0
    6.2828   -6.3923    3.4824 C   0  0  0  0  0  0  0  0  0  0  0  0
    6.6623   -6.0342    4.9381 C   0  0  0  0  0  0  0  0  0  0  0  0
    7.5594   -7.0161    2.8530 C   0  0  0  0  0  0  0  0  0  0  0  0
    4.4970   -4.3691    3.3993 C   0  0  1  0  0  0  0  0  0  0  0  0
    4.9401   -3.3610    4.5017 C   0  0  0  0  0  0  0  0  0  0  0  0
    3.6352   -3.7079    2.2453 C   0  0  1  0  0  0  0  0  0  0  0  0
    4.7046   -3.0815    1.3327 C   0  0  1  0  0  0  0  0  0  0  0  0
    5.0994   -4.3516    0.6795 C   0  0  1  0  0  0  0  0  0  0  0  0
    4.2580   -4.7138   -0.5163 C   0  0  2  0  0  0  0  0  0  0  0  0
    3.3105   -3.7789   -0.7419 O   0  0  0  0  0  0  0  0  0  0  0  0
    2.3871   -4.1472    0.2946 C   0  0  0  0  0  0  0  0  0  0  0  0
    3.1303   -5.0042    1.4303 C   0  0  2  0  0  0  0  0  0  0  0  0
    3.3893   -5.5428    0.1044 O   0  0  0  0  0  0  0  0  0  0  0  0
    4.6095   -5.6202    1.4541 C   0  0  2  0  0  0  0  0  0  0  0  0
    4.8001   -7.1530    1.0276 C   0  0  0  0  0  0  0  0  0  0  0  0
    4.5746   -1.9176   -1.4752 H   0  0  0  0  0  0  0  0  0  0  0  0
    4.4894   -0.2660   -0.9008 H   0  0  0  0  0  0  0  0  0  0  0  0
    3.2056   -1.3745   -0.4831 H   0  0  0  0  0  0  0  0  0  0  0  0
    4.7564   -0.9172    1.3737 H   0  0  0  0  0  0  0  0  0  0  0  0
    6.7671   -0.8377   -0.2873 H   0  0  0  0  0  0  0  0  0  0  0  0
    7.0195   -1.1599    1.3763 H   0  0  0  0  0  0  0  0  0  0  0  0
    7.1397   -3.2667   -0.8483 H   0  0  0  0  0  0  0  0  0  0  0  0
    8.4856   -2.5603   -0.0369 H   0  0  0  0  0  0  0  0  0  0  0  0
    8.2550   -4.0248    1.8615 H   0  0  0  0  0  0  0  0  0  0  0  0
    5.5537   -7.1862    3.6437 H   0  0  0  0  0  0  0  0  0  0  0  0
    7.4158   -5.2452    4.9738 H   0  0  0  0  0  0  0  0  0  0  0  0
    7.0849   -6.9024    5.4478 H   0  0  0  0  0  0  0  0  0  0  0  0
    5.7896   -5.7624    5.5369 H   0  0  0  0  0  0  0  0  0  0  0  0
    8.3414   -6.2585    2.7345 H   0  0  0  0  0  0  0  0  0  0  0  0
    7.4417   -7.5078    1.8922 H   0  0  0  0  0  0  0  0  0  0  0  0
    7.9582   -7.7845    3.5146 H   0  0  0  0  0  0  0  0  0  0  0  0
    3.8118   -5.0472    3.9211 H   0  0  0  0  0  0  0  0  0  0  0  0
    5.8588   -2.8580    4.2212 H   0  0  0  0  0  0  0  0  0  0  0  0
    5.1137   -3.8127    5.4877 H   0  0  0  0  0  0  0  0  0  0  0  0
    4.1821   -2.5910    4.6659 H   0  0  0  0  0  0  0  0  0  0  0  0
    2.8492   -3.0521    2.6122 H   0  0  0  0  0  0  0  0  0  0  0  0
    5.4099   -2.7929    2.1031 H   0  0  0  0  0  0  0  0  0  0  0  0
    4.7678   -5.1116   -1.3959 H   0  0  0  0  0  0  0  0  0  0  0  0
    1.9234   -3.2294    0.6582 H   0  0  0  0  0  0  0  0  0  0  0  0
    1.5454   -4.6911   -0.1698 H   0  0  0  0  0  0  0  0  0  0  0  0
    4.2188   -7.5337    0.1854 H   0  0  0  0  0  0  0  0  0  0  0  0
    4.5080   -7.8149    1.8492 H   0  0  0  0  0  0  0  0  0  0  0  0
    5.8186   -7.3720    0.7005 H   0  0  0  0  0  0  0  0  0  0  0  0
  1  2  1  0
  1 23  1  0
  1 24  1  0
  1 25  1  0
  2 14  1  0
  2  3  1  0
  2 26  1  1
  3  4  1  0
  3 27  1  0
  3 28  1  0
  4  5  1  0
  4 29  1  0
  4 30  1  0
  5  6  2  0
  5 31  1  0
 15  6  1  6
  6  7  1  0
  7 21  1  0
  7  8  1  1
  7 11  1  0
  8  9  1  0
  8 10  1  0
  8 32  1  0
  9 33  1  0
  9 34  1  0
  9 35  1  0
 10 36  1  0
 10 37  1  0
 10 38  1  0
 11 12  1  0
 11 13  1  0
 11 39  1  1
 12 40  1  0
 12 41  1  0
 12 42  1  0
 13 19  1  0
 13 14  1  0
 13 43  1  1
 14 15  1  0
 14 44  1  1
 15 21  1  0
 15 16  1  0
 16 20  1  0
 16 17  1  0
 16 45  1  6
 17 18  1  0
 19 18  1  1
 18 46  1  0
 18 47  1  0
 19 20  1  0
 19 21  1  0
 21 22  1  6
 22 48  1  0
 22 49  1  0
 22 50  1  0
M  END
>  <i_m_ct_stereo_status>  (124) 
1

>  <s_m_source_file>  (124) 
/var/tmp/pbs.5076255.sched01/tmpck0ladl8/45htcshi4i.sdf

>  <i_m_source_file_index>  (124) 
5

>  <i_lp_mmshare_version>  (124) 
48012

>  <i_f3d_flags>  (124) 
0

>  <s_epik_input>  (124) 
W0NIXT0xW0NIMl1bQ0gyXVtDQEBIXShbQ0gzXSlbQ0BIXTJbQ0BIXShbQ0BASF0zW0NIM10pQzQoW0NIMl1PW0NAQEhdNU80KVtDQF02KFtDSDNdKVtDQF0zKEMxW0NAQF0yNTYpW0NIXShbQ0gzXSlbQ0gzXQ==

>  <s_epik_cmdline>  (124) 
J2VwaWtfcHl0aG9uJywgJy1waHQnLCAnMi4wJywgJy1waCcsICc3LjAnLCAnLXRuJywgJzgnLCAnLW1hJywgJzIwMCcsICctaW1hZScsICc8aW5maWxlLm1hZT4nLCAnLW9tYWUnLCAnPG91dGZpbGUubWFlPic=

>  <r_lp_tautomer_probability>  (124) 
1

>  <r_epik_Ionization_Penalty>  (124) 
5.44125e-13

>  <r_epik_Ionization_Penalty_Charging>  (124) 
0

>  <r_epik_Ionization_Penalty_Neutral>  (124) 
5.44125e-13

>  <r_epik_State_Penalty>  (124) 
-0

>  <r_epik_Charging_Adjusted_Penalty>  (124) 
0

>  <i_epik_Tot_Q>  (124) 
0

>  <i_epik_Tot_abs_Q>  (124) 
0

>  <s_epik_Chemistry_Notes>  (124) 
This compound contains an acetal/aminal-like group ( X-CH(R)-Y where X, Y are N, S, or O) that may be acid/base labile, releasing an aldehyde.

>  <s_lp_Force_Field>  (124) 
OPLS3e

>  <r_lp_Energy>  (124) 
269.701

>  <b_lp_Chiralities_Consistent>  (124) 
1

>  <s_lp_Variant>  (124) 
37:0-1

>  <s_i_glide_gridfile>  (124) 
pfpi4k_grid

>  <i_i_glide_lignum>  (124) 
5

>  <i_i_glide_rotatable_bonds>  (124) 
1

>  <r_i_docking_score>  (124) 
-2.67621

>  <r_i_glide_ligand_efficiency>  (124) 
-0.121646

>  <r_i_glide_ligand_efficiency_sa>  (124) 
-0.340857

>  <r_i_glide_ligand_efficiency_ln>  (124) 
-0.654164

>  <r_i_glide_gscore>  (124) 
-2.67621

>  <r_i_glide_lipo>  (124) 
-0.637158

>  <r_i_glide_hbond>  (124) 
0

>  <r_i_glide_metal>  (124) 
-0

>  <r_i_glide_rewards>  (124) 
-1.36067

>  <r_i_glide_evdw>  (124) 
-14.4817

>  <r_i_glide_ecoul>  (124) 
0.51873

>  <r_i_glide_erotb>  (124) 
0

>  <r_i_glide_esite>  (124) 
-0.0321135

>  <r_i_glide_emodel>  (124) 
-14.0563

>  <r_i_glide_energy>  (124) 
-13.9629

>  <r_i_glide_einternal>  (124) 
3.97409

>  <r_i_glide_intrahb_reward>  (124) 
-0

>  <i_i_glide_confnum>  (124) 
2

>  <i_i_glide_posenum>  (124) 
29

>  <r_i_glide_eff_state_penalty>  (124) 
0

>  <ligand_id>  (124) 
37

>  <original_smiles>  (124) 
CC1CCC=C2C3(C(C)C)C(C)C4C1C21C2OCC4(O2)C31C

>  <smiles>  (124) 
[H]C1=C2C34C5([H])OC([H])([H])C6(O5)C([H])(C3([H])C([H])(C([H])([H])[H])C([H])([H])C1([H])[H])C([H])(C([H])([H])[H])C2(C([H])(C([H])([H])[H])C([H])([H])[H])C64C([H])([H])[H]

$$$$
38:0:0
     RDKit          3D

 53 59  0  0  1  0  0  0  0  0999 V2000
    3.5470   -5.6335    0.5178 C   0  0  0  0  0  0  0  0  0  0  0  0
    2.9762   -6.0478    1.8861 C   0  0  2  0  0  0  0  0  0  0  0  0
    3.8458   -5.5436    3.0381 C   0  0  0  0  0  0  0  0  0  0  0  0
    4.8770   -6.1549    3.6558 C   0  0  0  0  0  0  0  0  0  0  0  0
    5.4957   -7.4159    3.2977 C   0  0  0  0  0  0  0  0  0  0  0  0
    5.0444   -8.4011    2.5028 C   0  0  0  0  0  0  0  0  0  0  0  0
    3.7524   -8.5609    1.7100 C   0  0  1  0  0  0  0  0  0  0  0  0
    3.0489   -9.8573    2.0786 C   0  0  0  0  0  0  0  0  0  0  0  0
    2.0871   -9.4837    3.2207 C   0  0  2  0  0  0  0  0  0  0  0  0
    2.6034   -9.7869    4.4965 O   0  0  0  0  0  0  0  0  0  0  0  0
    0.6976  -10.0616    3.0833 C   0  0  1  0  0  0  0  0  0  0  0  0
   -0.1647   -9.7577    4.2145 N   0  0  0  0  0  0  0  0  0  0  0  0
   -0.2385   -8.9221    3.0374 C   0  0  1  0  0  0  0  0  0  0  0  0
    0.5276   -7.6381    3.2316 C   0  0  0  0  0  0  0  0  0  0  0  0
    1.9546   -8.0085    3.1764 N   0  0  0  0  0  0  0  0  0  0  0  0
    2.6236   -7.5574    1.9454 C   0  0  1  0  0  0  0  0  0  0  0  0
    5.3058   -5.3129    4.7134 C   0  0  0  0  0  0  0  0  0  0  0  0
    6.2201   -5.2008    5.7208 C   0  0  0  0  0  0  0  0  0  0  0  0
    5.9359   -3.9667    6.3857 C   0  0  0  0  0  0  0  0  0  0  0  0
    4.8652   -3.3657    5.7633 C   0  0  0  0  0  0  0  0  0  0  0  0
    4.5109   -4.2084    4.7340 N   0  0  0  0  0  0  0  0  0  0  0  0
    3.5153   -4.2002    3.6940 C   0  0  1  0  0  0  0  0  0  0  0  0
    3.6291   -2.9715    2.7928 C   0  0  0  0  0  0  0  0  0  0  0  0
    2.4829   -2.2086    2.4874 C   0  0  0  0  0  0  0  0  0  0  0  0
    2.6289   -1.0685    1.6773 C   0  0  0  0  0  0  0  0  0  0  0  0
    3.9124   -0.7288    1.2106 C   0  0  0  0  0  0  0  0  0  0  0  0
    4.9960   -1.5507    1.5698 C   0  0  0  0  0  0  0  0  0  0  0  0
    4.8629   -2.6516    2.3371 N   0  0  0  0  0  0  0  0  0  0  0  0
    3.5797   -4.5523    0.4065 H   0  0  0  0  0  0  0  0  0  0  0  0
    2.9332   -6.0119   -0.2964 H   0  0  0  0  0  0  0  0  0  0  0  0
    4.5569   -6.0113    0.3729 H   0  0  0  0  0  0  0  0  0  0  0  0
    2.0270   -5.5185    1.9898 H   0  0  0  0  0  0  0  0  0  0  0  0
    6.4703   -7.5851    3.7289 H   0  0  0  0  0  0  0  0  0  0  0  0
    5.7065   -9.2477    2.3817 H   0  0  0  0  0  0  0  0  0  0  0  0
    4.0366   -8.5761    0.6574 H   0  0  0  0  0  0  0  0  0  0  0  0
    2.4784  -10.1927    1.2113 H   0  0  0  0  0  0  0  0  0  0  0  0
    3.7323  -10.6694    2.3308 H   0  0  0  0  0  0  0  0  0  0  0  0
    2.3425  -10.6678    4.7372 H   0  0  0  0  0  0  0  0  0  0  0  0
    0.4749  -11.0420    2.6756 H   0  0  0  0  0  0  0  0  0  0  0  0
   -0.9550  -10.3861    4.3835 H   0  0  0  0  0  0  0  0  0  0  0  0
   -1.2120   -8.9873    2.5620 H   0  0  0  0  0  0  0  0  0  0  0  0
    0.2513   -6.9336    2.4512 H   0  0  0  0  0  0  0  0  0  0  0  0
    0.2913   -7.2000    4.2021 H   0  0  0  0  0  0  0  0  0  0  0  0
    1.9126   -7.7411    1.1376 H   0  0  0  0  0  0  0  0  0  0  0  0
    7.0018   -5.9173    5.9469 H   0  0  0  0  0  0  0  0  0  0  0  0
    6.4610   -3.5433    7.2338 H   0  0  0  0  0  0  0  0  0  0  0  0
    4.3495   -2.4360    5.9493 H   0  0  0  0  0  0  0  0  0  0  0  0
    2.5297   -4.2527    4.1609 H   0  0  0  0  0  0  0  0  0  0  0  0
    1.5121   -2.4919    2.8632 H   0  0  0  0  0  0  0  0  0  0  0  0
    1.7699   -0.4651    1.4103 H   0  0  0  0  0  0  0  0  0  0  0  0
    4.0627    0.1383    0.5801 H   0  0  0  0  0  0  0  0  0  0  0  0
    5.9950   -1.3241    1.2332 H   0  0  0  0  0  0  0  0  0  0  0  0
    0.3201   -9.3460    4.9870 H   0  0  0  0  0  0  0  0  0  0  0  0
  1  2  1  0
  1 29  1  0
  1 30  1  0
  1 31  1  0
  2 16  1  0
  2  3  1  0
  2 32  1  1
  3 22  1  0
  3  4  2  0
  4  5  1  0
  4 17  1  0
  5  6  2  0
  5 33  1  0
  6  7  1  0
  6 34  1  0
  7 16  1  0
  7  8  1  0
  7 35  1  6
  8  9  1  0
  8 36  1  0
  8 37  1  0
  9 15  1  0
  9 10  1  1
  9 11  1  0
 10 38  1  0
 11 13  1  0
 11 12  1  0
 11 39  1  6
 12 13  1  0
 12 40  1  0
 12 53  1  0
 13 14  1  0
 13 41  1  6
 14 15  1  0
 14 42  1  0
 14 43  1  0
 15 16  1  0
 16 44  1  6
 17 21  1  0
 17 18  2  0
 18 19  1  0
 18 45  1  0
 19 20  2  0
 19 46  1  0
 20 21  1  0
 20 47  1  0
 21 22  1  0
 22 23  1  0
 22 48  1  1
 23 28  1  0
 23 24  2  0
 24 25  1  0
 24 49  1  0
 25 26  2  0
 25 50  1  0
 26 27  1  0
 26 51  1  0
 27 28  2  0
 27 52  1  0
M  CHG  1  12   1
M  END
>  <i_m_ct_stereo_status>  (125) 
1

>  <s_m_source_file>  (125) 
/var/tmp/pbs.5076255.sched01/tmpck0ladl8/45htcshi4i.sdf

>  <i_m_source_file_index>  (125) 
6

>  <i_lp_mmshare_version>  (125) 
48012

>  <i_f3d_flags>  (125) 
2

>  <s_epik_input>  (125) 
bjFbY0hdW2NIXVtjSF1bY0hdYzFbQ0BIXShuMmMzW2NIXVtjSF1bY0hdMilDKFtDQEhdNFtDSDNdKT1DM1tDSF09W0NIXVtDQEBIXShbQ0gyXTUpW0NASF00TjZbQ0gyXVtDQEBIXShbTkhdNylbQ0BIXTdbQ0BAXTU2W09IXQ==

>  <s_epik_cmdline>  (125) 
J2VwaWtfcHl0aG9uJywgJy1waHQnLCAnMi4wJywgJy1waCcsICc3LjAnLCAnLXRuJywgJzgnLCAnLW1hJywgJzIwMCcsICctaW1hZScsICc8aW5maWxlLm1hZT4nLCAnLW9tYWUnLCAnPG91dGZpbGUubWFlPic=

>  <r_epik_Ionization_Penalty>  (125) 
0.0462833

>  <r_epik_Ionization_Penalty_Charging>  (125) 
0.039476

>  <r_epik_Ionization_Penalty_Neutral>  (125) 
0.00680725

>  <r_epik_State_Penalty>  (125) 
0.0571876

>  <r_epik_Charging_Adjusted_Penalty>  (125) 
0.0966636

>  <i_epik_Tot_Q>  (125) 
1

>  <i_epik_Tot_abs_Q>  (125) 
1

>  <s_lp_Force_Field>  (125) 
OPLS3e

>  <r_lp_Energy>  (125) 
45.5869

>  <b_lp_Chiralities_Consistent>  (125) 
0

>  <s_lp_Variant>  (125) 
38:0-1

>  <s_i_glide_gridfile>  (125) 
pfpi4k_grid

>  <i_i_glide_lignum>  (125) 
6

>  <i_i_glide_rotatable_bonds>  (125) 
2

>  <r_i_docking_score>  (125) 
-3.52488

>  <r_i_glide_ligand_efficiency>  (125) 
-0.125889

>  <r_i_glide_ligand_efficiency_sa>  (125) 
-0.382272

>  <r_i_glide_ligand_efficiency_ln>  (125) 
-0.813647

>  <r_i_glide_gscore>  (125) 
-3.52488

>  <r_i_glide_lipo>  (125) 
-0.162903

>  <r_i_glide_hbond>  (125) 
-0.2

>  <r_i_glide_metal>  (125) 
-0

>  <r_i_glide_rewards>  (125) 
-0.865381

>  <r_i_glide_evdw>  (125) 
-24.1402

>  <r_i_glide_ecoul>  (125) 
-7.66929

>  <r_i_glide_erotb>  (125) 
0.138553

>  <r_i_glide_esite>  (125) 
-0.0777499

>  <r_i_glide_emodel>  (125) 
-42.4059

>  <r_i_glide_energy>  (125) 
-31.8095

>  <r_i_glide_einternal>  (125) 
0.332627

>  <r_i_glide_intrahb_reward>  (125) 
-0

>  <i_i_glide_confnum>  (125) 
4

>  <i_i_glide_posenum>  (125) 
39

>  <r_i_glide_eff_state_penalty>  (125) 
0

>  <ligand_id>  (125) 
38

>  <original_smiles>  (125) 
CC1C2=C(C=CC3CC4(O)C5NC5CN4C31)c1cccn1C2c1ccccn1

>  <smiles>  (125) 
[H]OC12N(C([H])([H])C3([H])C1([H])[N+]3([H])[H])C1([H])C([H])(C([H])([H])[H])C3=C(C([H])=C([H])C1([H])C2([H])[H])c1c([H])c([H])c([H])n1C3([H])c1nc([H])c([H])c([H])c1[H]

$$$$
38:0:1
     RDKit          3D

 53 59  0  0  1  0  0  0  0  0999 V2000
    3.3403   -5.5749    0.6465 C   0  0  0  0  0  0  0  0  0  0  0  0
    2.9351   -6.0597    2.0523 C   0  0  2  0  0  0  0  0  0  0  0  0
    3.8944   -5.5474    3.1273 C   0  0  0  0  0  0  0  0  0  0  0  0
    5.0112   -6.1311    3.6079 C   0  0  0  0  0  0  0  0  0  0  0  0
    5.6480   -7.3409    3.1339 C   0  0  0  0  0  0  0  0  0  0  0  0
    5.1562   -8.3257    2.3626 C   0  0  0  0  0  0  0  0  0  0  0  0
    3.7991   -8.5233    1.7022 C   0  0  1  0  0  0  0  0  0  0  0  0
    3.2011   -9.8618    2.0921 C   0  0  0  0  0  0  0  0  0  0  0  0
    2.3517   -9.5733    3.3441 C   0  0  2  0  0  0  0  0  0  0  0  0
    3.0116   -9.8644    4.5522 O   0  0  0  0  0  0  0  0  0  0  0  0
    0.9871  -10.2119    3.3363 C   0  0  1  0  0  0  0  0  0  0  0  0
    0.2331  -10.0138    4.5555 N   0  0  0  0  0  0  0  0  0  0  0  0
    0.0031   -9.1198    3.4458 C   0  0  1  0  0  0  0  0  0  0  0  0
    0.7249   -7.8047    3.5950 C   0  0  0  0  0  0  0  0  0  0  0  0
    2.1519   -8.1096    3.3719 N   0  0  0  0  0  0  0  0  0  0  0  0
    2.6556   -7.5885    2.0921 C   0  0  1  0  0  0  0  0  0  0  0  0
    5.5044   -5.2971    4.6454 C   0  0  0  0  0  0  0  0  0  0  0  0
    6.5176   -5.1823    5.5499 C   0  0  0  0  0  0  0  0  0  0  0  0
    6.2502   -3.9812    6.2869 C   0  0  0  0  0  0  0  0  0  0  0  0
    5.0973   -3.4104    5.8026 C   0  0  0  0  0  0  0  0  0  0  0  0
    4.6632   -4.2403    4.7897 N   0  0  0  0  0  0  0  0  0  0  0  0
    3.5629   -4.2441    3.8648 C   0  0  1  0  0  0  0  0  0  0  0  0
    3.5463   -2.9861    2.9945 C   0  0  0  0  0  0  0  0  0  0  0  0
    4.7265   -2.4982    2.3850 C   0  0  0  0  0  0  0  0  0  0  0  0
    4.6575   -1.3248    1.6165 C   0  0  0  0  0  0  0  0  0  0  0  0
    3.4115   -0.6853    1.4768 C   0  0  0  0  0  0  0  0  0  0  0  0
    2.2902   -1.2519    2.1154 C   0  0  0  0  0  0  0  0  0  0  0  0
    2.3450   -2.3775    2.8604 N   0  0  0  0  0  0  0  0  0  0  0  0
    3.3135   -4.4913    0.5772 H   0  0  0  0  0  0  0  0  0  0  0  0
    2.6570   -5.9565   -0.1080 H   0  0  0  0  0  0  0  0  0  0  0  0
    4.3436   -5.9028    0.3823 H   0  0  0  0  0  0  0  0  0  0  0  0
    1.9770   -5.5809    2.2763 H   0  0  0  0  0  0  0  0  0  0  0  0
    6.6683   -7.4792    3.4530 H   0  0  0  0  0  0  0  0  0  0  0  0
    5.8362   -9.1355    2.1392 H   0  0  0  0  0  0  0  0  0  0  0  0
    3.9734   -8.4916    0.6273 H   0  0  0  0  0  0  0  0  0  0  0  0
    2.5549  -10.2010    1.2809 H   0  0  0  0  0  0  0  0  0  0  0  0
    3.9390  -10.6526    2.2438 H   0  0  0  0  0  0  0  0  0  0  0  0
    2.8070  -10.7532    4.8180 H   0  0  0  0  0  0  0  0  0  0  0  0
    0.7501  -11.1865    2.9235 H   0  0  0  0  0  0  0  0  0  0  0  0
   -0.5489  -10.6027    4.7401 H   0  0  0  0  0  0  0  0  0  0  0  0
   -1.0181   -9.2225    3.0721 H   0  0  0  0  0  0  0  0  0  0  0  0
    0.3282   -7.1004    2.8631 H   0  0  0  0  0  0  0  0  0  0  0  0
    0.5688   -7.3988    4.5998 H   0  0  0  0  0  0  0  0  0  0  0  0
    1.8733   -7.7822    1.3547 H   0  0  0  0  0  0  0  0  0  0  0  0
    7.3459   -5.8683    5.6588 H   0  0  0  0  0  0  0  0  0  0  0  0
    6.8454   -3.5538    7.0861 H   0  0  0  0  0  0  0  0  0  0  0  0
    4.5679   -2.5063    6.0748 H   0  0  0  0  0  0  0  0  0  0  0  0
    2.6355   -4.3648    4.4322 H   0  0  0  0  0  0  0  0  0  0  0  0
    5.6647   -3.0145    2.5210 H   0  0  0  0  0  0  0  0  0  0  0  0
    5.5420   -0.9217    1.1432 H   0  0  0  0  0  0  0  0  0  0  0  0
    3.3053    0.2202    0.8905 H   0  0  0  0  0  0  0  0  0  0  0  0
    1.3210   -0.7857    2.0329 H   0  0  0  0  0  0  0  0  0  0  0  0
    0.7620   -9.5867    5.3035 H   0  0  0  0  0  0  0  0  0  0  0  0
  1  2  1  0
  1 29  1  0
  1 30  1  0
  1 31  1  0
  2 16  1  0
  2  3  1  0
  2 32  1  1
  3 22  1  0
  3  4  2  0
  4  5  1  0
  4 17  1  0
  5  6  2  0
  5 33  1  0
  6  7  1  0
  6 34  1  0
  7 16  1  0
  7  8  1  0
  7 35  1  6
  8  9  1  0
  8 36  1  0
  8 37  1  0
  9 15  1  0
  9 10  1  1
  9 11  1  0
 10 38  1  0
 11 13  1  0
 11 12  1  0
 11 39  1  6
 12 13  1  0
 12 40  1  0
 12 53  1  0
 13 14  1  0
 13 41  1  6
 14 15  1  0
 14 42  1  0
 14 43  1  0
 15 16  1  0
 16 44  1  6
 17 21  1  0
 17 18  2  0
 18 19  1  0
 18 45  1  0
 19 20  2  0
 19 46  1  0
 20 21  1  0
 20 47  1  0
 21 22  1  0
 22 23  1  0
 22 48  1  1
 23 28  1  0
 23 24  2  0
 24 25  1  0
 24 49  1  0
 25 26  2  0
 25 50  1  0
 26 27  1  0
 26 51  1  0
 27 28  2  0
 27 52  1  0
M  CHG  1  12   1
M  END
>  <i_m_ct_stereo_status>  (126) 
1

>  <s_m_source_file>  (126) 
/var/tmp/pbs.5076255.sched01/tmpck0ladl8/45htcshi4i.sdf

>  <i_m_source_file_index>  (126) 
6

>  <i_lp_mmshare_version>  (126) 
48012

>  <i_f3d_flags>  (126) 
2

>  <s_epik_input>  (126) 
bjFbY0hdW2NIXVtjSF1bY0hdYzFbQ0BIXShuMmMzW2NIXVtjSF1bY0hdMilDKFtDQEhdNFtDSDNdKT1DM1tDSF09W0NIXVtDQEBIXShbQ0gyXTUpW0NASF00TjZbQ0gyXVtDQEBIXShbTkhdNylbQ0BIXTdbQ0BAXTU2W09IXQ==

>  <s_epik_cmdline>  (126) 
J2VwaWtfcHl0aG9uJywgJy1waHQnLCAnMi4wJywgJy1waCcsICc3LjAnLCAnLXRuJywgJzgnLCAnLW1hJywgJzIwMCcsICctaW1hZScsICc8aW5maWxlLm1hZT4nLCAnLW9tYWUnLCAnPG91dGZpbGUubWFlPic=

>  <r_epik_Ionization_Penalty>  (126) 
0.0462833

>  <r_epik_Ionization_Penalty_Charging>  (126) 
0.039476

>  <r_epik_Ionization_Penalty_Neutral>  (126) 
0.00680725

>  <r_epik_State_Penalty>  (126) 
0.0571876

>  <r_epik_Charging_Adjusted_Penalty>  (126) 
0.0966636

>  <i_epik_Tot_Q>  (126) 
1

>  <i_epik_Tot_abs_Q>  (126) 
1

>  <s_lp_Force_Field>  (126) 
OPLS3e

>  <r_lp_Energy>  (126) 
45.5869

>  <b_lp_Chiralities_Consistent>  (126) 
0

>  <s_lp_Variant>  (126) 
38:0-1

>  <s_i_glide_gridfile>  (126) 
pfpi4k_grid

>  <i_i_glide_lignum>  (126) 
6

>  <i_i_glide_rotatable_bonds>  (126) 
2

>  <r_i_docking_score>  (126) 
-3.23047

>  <r_i_glide_ligand_efficiency>  (126) 
-0.115374

>  <r_i_glide_ligand_efficiency_sa>  (126) 
-0.350343

>  <r_i_glide_ligand_efficiency_ln>  (126) 
-0.745686

>  <r_i_glide_gscore>  (126) 
-3.23047

>  <r_i_glide_lipo>  (126) 
-0.208573

>  <r_i_glide_hbond>  (126) 
-0.2

>  <r_i_glide_metal>  (126) 
-0

>  <r_i_glide_rewards>  (126) 
-0.865551

>  <r_i_glide_evdw>  (126) 
-23.8382

>  <r_i_glide_ecoul>  (126) 
-5.43794

>  <r_i_glide_erotb>  (126) 
0.138553

>  <r_i_glide_esite>  (126) 
-0.0872969

>  <r_i_glide_emodel>  (126) 
-39.0046

>  <r_i_glide_energy>  (126) 
-29.2761

>  <r_i_glide_einternal>  (126) 
0.285552

>  <r_i_glide_intrahb_reward>  (126) 
-0

>  <i_i_glide_confnum>  (126) 
3

>  <i_i_glide_posenum>  (126) 
33

>  <r_i_glide_eff_state_penalty>  (126) 
0

>  <ligand_id>  (126) 
38

>  <original_smiles>  (126) 
CC1C2=C(C=CC3CC4(O)C5NC5CN4C31)c1cccn1C2c1ccccn1

>  <smiles>  (126) 
[H]OC12N(C([H])([H])C3([H])C1([H])[N+]3([H])[H])C1([H])C([H])(C([H])([H])[H])C3=C(C([H])=C([H])C1([H])C2([H])[H])c1c([H])c([H])c([H])n1C3([H])c1nc([H])c([H])c([H])c1[H]

$$$$
38:0:2
     RDKit          3D

 53 59  0  0  1  0  0  0  0  0999 V2000
    4.6142   -8.2074    0.6283 C   0  0  0  0  0  0  0  0  0  0  0  0
    3.8243   -8.0905    1.9387 C   0  0  2  0  0  0  0  0  0  0  0  0
    4.3962   -7.0117    2.8522 C   0  0  0  0  0  0  0  0  0  0  0  0
    5.3466   -7.1285    3.8034 C   0  0  0  0  0  0  0  0  0  0  0  0
    6.1361   -8.2983    4.1328 C   0  0  0  0  0  0  0  0  0  0  0  0
    5.9417   -9.5896    3.8084 C   0  0  0  0  0  0  0  0  0  0  0  0
    4.8484  -10.2805    3.0026 C   0  0  1  0  0  0  0  0  0  0  0  0
    4.2037  -11.4055    3.8066 C   0  0  0  0  0  0  0  0  0  0  0  0
    3.0131  -10.7359    4.5248 C   0  0  2  0  0  0  0  0  0  0  0  0
    3.3008  -10.4008    5.8681 O   0  0  0  0  0  0  0  0  0  0  0  0
    1.7285  -11.5272    4.4668 C   0  0  1  0  0  0  0  0  0  0  0  0
    0.6303  -10.9250    5.2045 N   0  0  0  0  0  0  0  0  0  0  0  0
    0.7330  -10.6853    3.7850 C   0  0  1  0  0  0  0  0  0  0  0  0
    1.3285   -9.3360    3.4997 C   0  0  0  0  0  0  0  0  0  0  0  0
    2.7656   -9.4585    3.8125 N   0  0  0  0  0  0  0  0  0  0  0  0
    3.6087   -9.4724    2.6094 C   0  0  1  0  0  0  0  0  0  0  0  0
    5.4832   -5.8555    4.4290 C   0  0  0  0  0  0  0  0  0  0  0  0
    6.1718   -5.1870    5.3954 C   0  0  0  0  0  0  0  0  0  0  0  0
    5.6529   -3.8523    5.4080 C   0  0  0  0  0  0  0  0  0  0  0  0
    4.6780   -3.7551    4.4396 C   0  0  0  0  0  0  0  0  0  0  0  0
    4.6015   -4.9993    3.8496 N   0  0  0  0  0  0  0  0  0  0  0  0
    3.8200   -5.5949    2.7969 C   0  0  1  0  0  0  0  0  0  0  0  0
    4.0107   -4.8557    1.4722 C   0  0  0  0  0  0  0  0  0  0  0  0
    5.2927   -4.7065    0.9000 C   0  0  0  0  0  0  0  0  0  0  0  0
    5.4158   -4.0076   -0.3149 C   0  0  0  0  0  0  0  0  0  0  0  0
    4.2585   -3.4758   -0.9060 C   0  0  0  0  0  0  0  0  0  0  0  0
    3.0236   -3.6724   -0.2624 C   0  0  0  0  0  0  0  0  0  0  0  0
    2.8925   -4.3514    0.9012 N   0  0  0  0  0  0  0  0  0  0  0  0
    4.5701   -7.2902    0.0451 H   0  0  0  0  0  0  0  0  0  0  0  0
    4.2126   -8.9990    0.0007 H   0  0  0  0  0  0  0  0  0  0  0  0
    5.6665   -8.4397    0.8134 H   0  0  0  0  0  0  0  0  0  0  0  0
    2.8312   -7.7346    1.6625 H   0  0  0  0  0  0  0  0  0  0  0  0
    7.0191   -8.1046    4.7210 H   0  0  0  0  0  0  0  0  0  0  0  0
    6.6897  -10.2797    4.1659 H   0  0  0  0  0  0  0  0  0  0  0  0
    5.3267  -10.6849    2.1094 H   0  0  0  0  0  0  0  0  0  0  0  0
    3.8420  -12.1638    3.1043 H   0  0  0  0  0  0  0  0  0  0  0  0
    4.8953  -11.9125    4.4823 H   0  0  0  0  0  0  0  0  0  0  0  0
    2.9593  -11.0881    6.4340 H   0  0  0  0  0  0  0  0  0  0  0  0
    1.6749  -12.6140    4.5233 H   0  0  0  0  0  0  0  0  0  0  0  0
   -0.0955  -11.5610    5.4898 H   0  0  0  0  0  0  0  0  0  0  0  0
   -0.1381  -11.0694    3.2576 H   0  0  0  0  0  0  0  0  0  0  0  0
    1.1439   -9.0852    2.4559 H   0  0  0  0  0  0  0  0  0  0  0  0
    0.8621   -8.5754    4.1328 H   0  0  0  0  0  0  0  0  0  0  0  0
    3.0914  -10.0958    1.8759 H   0  0  0  0  0  0  0  0  0  0  0  0
    6.9531   -5.6005    6.0192 H   0  0  0  0  0  0  0  0  0  0  0  0
    5.9624   -3.0373    6.0442 H   0  0  0  0  0  0  0  0  0  0  0  0
    4.0558   -2.9306    4.1231 H   0  0  0  0  0  0  0  0  0  0  0  0
    2.7739   -5.6080    3.1047 H   0  0  0  0  0  0  0  0  0  0  0  0
    6.1608   -5.1218    1.3866 H   0  0  0  0  0  0  0  0  0  0  0  0
    6.3815   -3.8839   -0.7818 H   0  0  0  0  0  0  0  0  0  0  0  0
    4.3050   -2.9364   -1.8426 H   0  0  0  0  0  0  0  0  0  0  0  0
    2.1139   -3.2765   -0.6880 H   0  0  0  0  0  0  0  0  0  0  0  0
    0.9119  -10.1713    5.8075 H   0  0  0  0  0  0  0  0  0  0  0  0
  1  2  1  0
  1 29  1  0
  1 30  1  0
  1 31  1  0
  2 16  1  0
  2  3  1  0
  2 32  1  6
  3 22  1  0
  3  4  2  0
  4  5  1  0
  4 17  1  0
  5  6  2  0
  5 33  1  0
  6  7  1  0
  6 34  1  0
  7 16  1  0
  7  8  1  0
  7 35  1  6
  8  9  1  0
  8 36  1  0
  8 37  1  0
  9 15  1  0
  9 10  1  1
  9 11  1  0
 10 38  1  0
 11 13  1  0
 11 12  1  0
 11 39  1  6
 12 13  1  0
 12 40  1  0
 12 53  1  0
 13 14  1  0
 13 41  1  6
 14 15  1  0
 14 42  1  0
 14 43  1  0
 15 16  1  0
 16 44  1  6
 17 21  1  0
 17 18  2  0
 18 19  1  0
 18 45  1  0
 19 20  2  0
 19 46  1  0
 20 21  1  0
 20 47  1  0
 21 22  1  0
 22 23  1  0
 22 48  1  1
 23 28  1  0
 23 24  2  0
 24 25  1  0
 24 49  1  0
 25 26  2  0
 25 50  1  0
 26 27  1  0
 26 51  1  0
 27 28  2  0
 27 52  1  0
M  CHG  1  12   1
M  END
>  <i_m_ct_stereo_status>  (127) 
1

>  <s_m_source_file>  (127) 
/var/tmp/pbs.5076255.sched01/tmpck0ladl8/45htcshi4i.sdf

>  <i_m_source_file_index>  (127) 
6

>  <i_lp_mmshare_version>  (127) 
48012

>  <i_f3d_flags>  (127) 
2

>  <s_epik_input>  (127) 
bjFbY0hdW2NIXVtjSF1bY0hdYzFbQ0BIXShuMmMzW2NIXVtjSF1bY0hdMilDKFtDQEhdNFtDSDNdKT1DM1tDSF09W0NIXVtDQEBIXShbQ0gyXTUpW0NASF00TjZbQ0gyXVtDQEBIXShbTkhdNylbQ0BIXTdbQ0BAXTU2W09IXQ==

>  <s_epik_cmdline>  (127) 
J2VwaWtfcHl0aG9uJywgJy1waHQnLCAnMi4wJywgJy1waCcsICc3LjAnLCAnLXRuJywgJzgnLCAnLW1hJywgJzIwMCcsICctaW1hZScsICc8aW5maWxlLm1hZT4nLCAnLW9tYWUnLCAnPG91dGZpbGUubWFlPic=

>  <r_epik_Ionization_Penalty>  (127) 
0.0462833

>  <r_epik_Ionization_Penalty_Charging>  (127) 
0.039476

>  <r_epik_Ionization_Penalty_Neutral>  (127) 
0.00680725

>  <r_epik_State_Penalty>  (127) 
0.0571876

>  <r_epik_Charging_Adjusted_Penalty>  (127) 
0.0966636

>  <i_epik_Tot_Q>  (127) 
1

>  <i_epik_Tot_abs_Q>  (127) 
1

>  <s_lp_Force_Field>  (127) 
OPLS3e

>  <r_lp_Energy>  (127) 
45.5869

>  <b_lp_Chiralities_Consistent>  (127) 
0

>  <s_lp_Variant>  (127) 
38:0-1

>  <s_i_glide_gridfile>  (127) 
pfpi4k_grid

>  <i_i_glide_lignum>  (127) 
6

>  <i_i_glide_rotatable_bonds>  (127) 
2

>  <r_i_docking_score>  (127) 
-3.16387

>  <r_i_glide_ligand_efficiency>  (127) 
-0.112995

>  <r_i_glide_ligand_efficiency_sa>  (127) 
-0.34312

>  <r_i_glide_ligand_efficiency_ln>  (127) 
-0.730313

>  <r_i_glide_gscore>  (127) 
-3.16387

>  <r_i_glide_lipo>  (127) 
-0.162453

>  <r_i_glide_hbond>  (127) 
-0.0754861

>  <r_i_glide_metal>  (127) 
-0

>  <r_i_glide_rewards>  (127) 
-0.864345

>  <r_i_glide_evdw>  (127) 
-23.6251

>  <r_i_glide_ecoul>  (127) 
-6.05117

>  <r_i_glide_erotb>  (127) 
0.138553

>  <r_i_glide_esite>  (127) 
-0.111203

>  <r_i_glide_emodel>  (127) 
-39.3146

>  <r_i_glide_energy>  (127) 
-29.6763

>  <r_i_glide_einternal>  (127) 
0.0698372

>  <r_i_glide_intrahb_reward>  (127) 
-0

>  <i_i_glide_confnum>  (127) 
3

>  <i_i_glide_posenum>  (127) 
10

>  <r_i_glide_eff_state_penalty>  (127) 
0

>  <ligand_id>  (127) 
38

>  <original_smiles>  (127) 
CC1C2=C(C=CC3CC4(O)C5NC5CN4C31)c1cccn1C2c1ccccn1

>  <smiles>  (127) 
[H]OC12N(C([H])([H])C3([H])C1([H])[N+]3([H])[H])C1([H])C([H])(C([H])([H])[H])C3=C(C([H])=C([H])C1([H])C2([H])[H])c1c([H])c([H])c([H])n1C3([H])c1nc([H])c([H])c([H])c1[H]

$$$$
38:1:0
     RDKit          3D

 52 58  0  0  1  0  0  0  0  0999 V2000
    4.8361   -1.1631    1.2003 C   0  0  0  0  0  0  0  0  0  0  0  0
    3.9427   -1.8685    2.2568 C   0  0  2  0  0  0  0  0  0  0  0  0
    3.7671   -3.3710    1.9771 C   0  0  0  0  0  0  0  0  0  0  0  0
    3.0499   -4.2620    2.6999 C   0  0  0  0  0  0  0  0  0  0  0  0
    2.2507   -4.0006    3.8757 C   0  0  0  0  0  0  0  0  0  0  0  0
    1.7486   -2.8366    4.3110 C   0  0  0  0  0  0  0  0  0  0  0  0
    1.8276   -1.4341    3.7389 C   0  0  1  0  0  0  0  0  0  0  0  0
    2.4271   -0.4233    4.7173 C   0  0  0  0  0  0  0  0  0  0  0  0
    2.8358    0.7448    3.8140 C   0  0  2  0  0  0  0  0  0  0  0  0
    4.2000    1.0257    4.0213 O   0  0  0  0  0  0  0  0  0  0  0  0
    2.0127    2.0028    4.0186 C   0  0  1  0  0  0  0  0  0  0  0  0
    2.1956    3.0605    3.0366 N   0  0  0  0  0  0  0  0  0  0  0  0
    1.1196    2.1063    2.8341 C   0  0  1  0  0  0  0  0  0  0  0  0
    1.4602    0.9665    1.9005 C   0  0  0  0  0  0  0  0  0  0  0  0
    2.6797    0.3157    2.4171 N   0  0  0  0  0  0  0  0  0  0  0  0
    2.5723   -1.1505    2.4146 C   0  0  1  0  0  0  0  0  0  0  0  0
    3.2572   -5.5554    2.1536 C   0  0  0  0  0  0  0  0  0  0  0  0
    2.9368   -6.8742    2.3089 C   0  0  0  0  0  0  0  0  0  0  0  0
    3.6470   -7.5815    1.2852 C   0  0  0  0  0  0  0  0  0  0  0  0
    4.3616   -6.6715    0.5433 C   0  0  0  0  0  0  0  0  0  0  0  0
    4.0980   -5.4352    1.0978 N   0  0  0  0  0  0  0  0  0  0  0  0
    4.4958   -4.0773    0.8237 C   0  0  1  0  0  0  0  0  0  0  0  0
    4.0515   -3.6729   -0.5757 C   0  0  0  0  0  0  0  0  0  0  0  0
    4.9985   -3.4732   -1.6043 C   0  0  0  0  0  0  0  0  0  0  0  0
    4.5342   -3.1099   -2.8808 C   0  0  0  0  0  0  0  0  0  0  0  0
    3.1507   -2.9558   -3.0833 C   0  0  0  0  0  0  0  0  0  0  0  0
    2.2868   -3.1763   -1.9933 C   0  0  0  0  0  0  0  0  0  0  0  0
    2.7214   -3.5236   -0.7654 N   0  0  0  0  0  0  0  0  0  0  0  0
    5.7961   -1.6617    1.0735 H   0  0  0  0  0  0  0  0  0  0  0  0
    5.0717   -0.1390    1.4962 H   0  0  0  0  0  0  0  0  0  0  0  0
    4.3476   -1.0961    0.2264 H   0  0  0  0  0  0  0  0  0  0  0  0
    4.4826   -1.7935    3.2012 H   0  0  0  0  0  0  0  0  0  0  0  0
    2.0231   -4.8609    4.4888 H   0  0  0  0  0  0  0  0  0  0  0  0
    1.1672   -2.8785    5.2178 H   0  0  0  0  0  0  0  0  0  0  0  0
    0.7881   -1.1436    3.5893 H   0  0  0  0  0  0  0  0  0  0  0  0
    1.7320   -0.1262    5.5018 H   0  0  0  0  0  0  0  0  0  0  0  0
    3.3042   -0.8474    5.2080 H   0  0  0  0  0  0  0  0  0  0  0  0
    4.4148    1.7778    3.4828 H   0  0  0  0  0  0  0  0  0  0  0  0
    1.7066    2.3742    4.9959 H   0  0  0  0  0  0  0  0  0  0  0  0
    2.9441    2.8085    2.4022 H   0  0  0  0  0  0  0  0  0  0  0  0
    0.1267    2.5570    2.8795 H   0  0  0  0  0  0  0  0  0  0  0  0
    0.6151    0.2773    1.8586 H   0  0  0  0  0  0  0  0  0  0  0  0
    1.6141    1.3424    0.8869 H   0  0  0  0  0  0  0  0  0  0  0  0
    1.9567   -1.4577    1.5673 H   0  0  0  0  0  0  0  0  0  0  0  0
    2.2803   -7.2888    3.0635 H   0  0  0  0  0  0  0  0  0  0  0  0
    3.6272   -8.6456    1.0963 H   0  0  0  0  0  0  0  0  0  0  0  0
    5.0060   -6.7868   -0.3170 H   0  0  0  0  0  0  0  0  0  0  0  0
    5.5742   -4.0035    0.9465 H   0  0  0  0  0  0  0  0  0  0  0  0
    6.0520   -3.6084   -1.4168 H   0  0  0  0  0  0  0  0  0  0  0  0
    5.2294   -2.9597   -3.6922 H   0  0  0  0  0  0  0  0  0  0  0  0
    2.7439   -2.6854   -4.0453 H   0  0  0  0  0  0  0  0  0  0  0  0
    1.2187   -3.0782   -2.1064 H   0  0  0  0  0  0  0  0  0  0  0  0
  1  2  1  0
  1 29  1  0
  1 30  1  0
  1 31  1  0
  2 16  1  0
  2  3  1  0
  2 32  1  1
  3 22  1  0
  3  4  2  0
  4  5  1  0
  4 17  1  0
  5  6  2  0
  5 33  1  0
  6  7  1  0
  6 34  1  0
  7 16  1  0
  7  8  1  0
  7 35  1  6
  8  9  1  0
  8 36  1  0
  8 37  1  0
  9 15  1  0
  9 10  1  6
  9 11  1  0
 10 38  1  0
 11 13  1  0
 11 12  1  0
 11 39  1  1
 12 13  1  0
 12 40  1  0
 13 14  1  0
 13 41  1  1
 14 15  1  0
 14 42  1  0
 14 43  1  0
 15 16  1  0
 16 44  1  6
 17 21  1  0
 17 18  2  0
 18 19  1  0
 18 45  1  0
 19 20  2  0
 19 46  1  0
 20 21  1  0
 20 47  1  0
 21 22  1  0
 22 23  1  0
 22 48  1  6
 23 28  1  0
 23 24  2  0
 24 25  1  0
 24 49  1  0
 25 26  2  0
 25 50  1  0
 26 27  1  0
 26 51  1  0
 27 28  2  0
 27 52  1  0
M  END
>  <i_m_ct_stereo_status>  (128) 
1

>  <s_m_source_file>  (128) 
/var/tmp/pbs.5076255.sched01/tmpck0ladl8/45htcshi4i.sdf

>  <i_m_source_file_index>  (128) 
7

>  <i_lp_mmshare_version>  (128) 
48012

>  <i_f3d_flags>  (128) 
2

>  <s_epik_input>  (128) 
bjFbY0hdW2NIXVtjSF1bY0hdYzFbQ0BIXShuMmMzW2NIXVtjSF1bY0hdMilDKFtDQEhdNFtDSDNdKT1DM1tDSF09W0NIXVtDQEBIXShbQ0gyXTUpW0NASF00TjZbQ0gyXVtDQEBIXShbTkhdNylbQ0BIXTdbQ0BAXTU2W09IXQ==

>  <s_epik_cmdline>  (128) 
J2VwaWtfcHl0aG9uJywgJy1waHQnLCAnMi4wJywgJy1waCcsICc3LjAnLCAnLXRuJywgJzgnLCAnLW1hJywgJzIwMCcsICctaW1hZScsICc8aW5maWxlLm1hZT4nLCAnLW9tYWUnLCAnPG91dGZpbGUubWFlPic=

>  <r_epik_Ionization_Penalty>  (128) 
1.97271

>  <r_epik_Ionization_Penalty_Charging>  (128) 
0

>  <r_epik_Ionization_Penalty_Neutral>  (128) 
1.97271

>  <r_epik_State_Penalty>  (128) 
1.74849

>  <r_epik_Charging_Adjusted_Penalty>  (128) 
1.74849

>  <i_epik_Tot_Q>  (128) 
0

>  <i_epik_Tot_abs_Q>  (128) 
0

>  <s_lp_Force_Field>  (128) 
OPLS3e

>  <r_lp_Energy>  (128) 
43.0814

>  <b_lp_Chiralities_Consistent>  (128) 
0

>  <s_lp_Variant>  (128) 
38:0-2

>  <s_i_glide_gridfile>  (128) 
pfpi4k_grid

>  <i_i_glide_lignum>  (128) 
7

>  <i_i_glide_rotatable_bonds>  (128) 
2

>  <r_i_docking_score>  (128) 
-3.45888

>  <r_i_glide_ligand_efficiency>  (128) 
-0.123531

>  <r_i_glide_ligand_efficiency_sa>  (128) 
-0.375114

>  <r_i_glide_ligand_efficiency_ln>  (128) 
-0.79841

>  <r_i_glide_gscore>  (128) 
-3.45888

>  <r_i_glide_lipo>  (128) 
-0.59014

>  <r_i_glide_hbond>  (128) 
-0.32

>  <r_i_glide_metal>  (128) 
-0

>  <r_i_glide_rewards>  (128) 
-0.916944

>  <r_i_glide_evdw>  (128) 
-30.0149

>  <r_i_glide_ecoul>  (128) 
-1.78546

>  <r_i_glide_erotb>  (128) 
0.139224

>  <r_i_glide_esite>  (128) 
-0.00245159

>  <r_i_glide_emodel>  (128) 
-38.2708

>  <r_i_glide_energy>  (128) 
-31.8004

>  <r_i_glide_einternal>  (128) 
1.05419

>  <r_i_glide_intrahb_reward>  (128) 
-0

>  <i_i_glide_confnum>  (128) 
2

>  <i_i_glide_posenum>  (128) 
17

>  <r_i_glide_eff_state_penalty>  (128) 
0

>  <ligand_id>  (128) 
38

>  <original_smiles>  (128) 
CC1C2=C(C=CC3CC4(O)C5NC5CN4C31)c1cccn1C2c1ccccn1

>  <smiles>  (128) 
[H]OC12N(C([H])([H])C3([H])N([H])C31[H])C1([H])C([H])(C([H])([H])[H])C3=C(C([H])=C([H])C1([H])C2([H])[H])c1c([H])c([H])c([H])n1C3([H])c1nc([H])c([H])c([H])c1[H]

$$$$
38:1:1
     RDKit          3D

 52 58  0  0  1  0  0  0  0  0999 V2000
    4.0187   -0.1778    1.5180 C   0  0  0  0  0  0  0  0  0  0  0  0
    3.2573   -1.2395    2.3449 C   0  0  2  0  0  0  0  0  0  0  0  0
    3.4747   -2.6729    1.8287 C   0  0  0  0  0  0  0  0  0  0  0  0
    2.9505   -3.8050    2.3523 C   0  0  0  0  0  0  0  0  0  0  0  0
    2.0292   -3.9254    3.4616 C   0  0  0  0  0  0  0  0  0  0  0  0
    1.2264   -2.9932    3.9940 C   0  0  0  0  0  0  0  0  0  0  0  0
    1.0008   -1.5384    3.6274 C   0  0  1  0  0  0  0  0  0  0  0  0
    1.2552   -0.5798    4.7886 C   0  0  0  0  0  0  0  0  0  0  0  0
    1.4302    0.7787    4.0981 C   0  0  2  0  0  0  0  0  0  0  0  0
    2.6560    1.3511    4.4892 O   0  0  0  0  0  0  0  0  0  0  0  0
    0.2991    1.7532    4.3746 C   0  0  1  0  0  0  0  0  0  0  0  0
    0.2740    2.9678    3.5776 N   0  0  0  0  0  0  0  0  0  0  0  0
   -0.4982    1.8309    3.1212 C   0  0  1  0  0  0  0  0  0  0  0  0
    0.1988    0.9836    2.0813 C   0  0  0  0  0  0  0  0  0  0  0  0
    1.4914    0.5489    2.6495 N   0  0  0  0  0  0  0  0  0  0  0  0
    1.7470   -0.8861    2.4431 C   0  0  1  0  0  0  0  0  0  0  0  0
    3.5196   -4.9192    1.6781 C   0  0  0  0  0  0  0  0  0  0  0  0
    3.5223   -6.2841    1.6249 C   0  0  0  0  0  0  0  0  0  0  0  0
    4.4568   -6.6407    0.5998 C   0  0  0  0  0  0  0  0  0  0  0  0
    4.9933   -5.4866    0.0816 C   0  0  0  0  0  0  0  0  0  0  0  0
    4.3945   -4.4456    0.7585 N   0  0  0  0  0  0  0  0  0  0  0  0
    4.4642   -3.0095    0.6964 C   0  0  1  0  0  0  0  0  0  0  0  0
    4.0816   -2.5221   -0.7018 C   0  0  0  0  0  0  0  0  0  0  0  0
    3.0157   -3.1070   -1.4198 C   0  0  0  0  0  0  0  0  0  0  0  0
    2.6849   -2.6037   -2.6889 C   0  0  0  0  0  0  0  0  0  0  0  0
    3.4154   -1.5097   -3.1853 C   0  0  0  0  0  0  0  0  0  0  0  0
    4.4580   -0.9906   -2.3952 C   0  0  0  0  0  0  0  0  0  0  0  0
    4.8194   -1.5043   -1.2025 N   0  0  0  0  0  0  0  0  0  0  0  0
    5.0780   -0.4142    1.4162 H   0  0  0  0  0  0  0  0  0  0  0  0
    3.9715    0.8065    1.9851 H   0  0  0  0  0  0  0  0  0  0  0  0
    3.5776   -0.0509    0.5281 H   0  0  0  0  0  0  0  0  0  0  0  0
    3.6879   -1.2003    3.3476 H   0  0  0  0  0  0  0  0  0  0  0  0
    1.9745   -4.8996    3.9288 H   0  0  0  0  0  0  0  0  0  0  0  0
    0.6034   -3.3102    4.8152 H   0  0  0  0  0  0  0  0  0  0  0  0
   -0.0632   -1.4780    3.4038 H   0  0  0  0  0  0  0  0  0  0  0  0
    0.4469   -0.5810    5.5181 H   0  0  0  0  0  0  0  0  0  0  0  0
    2.1673   -0.8614    5.3163 H   0  0  0  0  0  0  0  0  0  0  0  0
    3.0050    1.8193    3.7454 H   0  0  0  0  0  0  0  0  0  0  0  0
   -0.1554    1.8819    5.3540 H   0  0  0  0  0  0  0  0  0  0  0  0
    1.1007    3.0137    2.9907 H   0  0  0  0  0  0  0  0  0  0  0  0
   -1.5731    2.0160    3.1085 H   0  0  0  0  0  0  0  0  0  0  0  0
   -0.4464    0.1386    1.8498 H   0  0  0  0  0  0  0  0  0  0  0  0
    0.3259    1.5488    1.1556 H   0  0  0  0  0  0  0  0  0  0  0  0
    1.2948   -1.1952    1.4988 H   0  0  0  0  0  0  0  0  0  0  0  0
    2.9257   -6.9497    2.2335 H   0  0  0  0  0  0  0  0  0  0  0  0
    4.7049   -7.6355    0.2592 H   0  0  0  0  0  0  0  0  0  0  0  0
    5.7074   -5.3155   -0.7120 H   0  0  0  0  0  0  0  0  0  0  0  0
    5.4731   -2.7043    0.9703 H   0  0  0  0  0  0  0  0  0  0  0  0
    2.4606   -3.9338   -1.0063 H   0  0  0  0  0  0  0  0  0  0  0  0
    1.8799   -3.0448   -3.2599 H   0  0  0  0  0  0  0  0  0  0  0  0
    3.1700   -1.0670   -4.1379 H   0  0  0  0  0  0  0  0  0  0  0  0
    5.0140   -0.1267   -2.7223 H   0  0  0  0  0  0  0  0  0  0  0  0
  1  2  1  0
  1 29  1  0
  1 30  1  0
  1 31  1  0
  2 16  1  0
  2  3  1  0
  2 32  1  1
  3 22  1  0
  3  4  2  0
  4  5  1  0
  4 17  1  0
  5  6  2  0
  5 33  1  0
  6  7  1  0
  6 34  1  0
  7 16  1  0
  7  8  1  0
  7 35  1  6
  8  9  1  0
  8 36  1  0
  8 37  1  0
  9 15  1  0
  9 10  1  1
  9 11  1  0
 10 38  1  0
 11 13  1  0
 11 12  1  0
 11 39  1  1
 12 13  1  0
 12 40  1  0
 13 14  1  0
 13 41  1  1
 14 15  1  0
 14 42  1  0
 14 43  1  0
 15 16  1  0
 16 44  1  6
 17 21  1  0
 17 18  2  0
 18 19  1  0
 18 45  1  0
 19 20  2  0
 19 46  1  0
 20 21  1  0
 20 47  1  0
 21 22  1  0
 22 23  1  0
 22 48  1  1
 23 28  1  0
 23 24  2  0
 24 25  1  0
 24 49  1  0
 25 26  2  0
 25 50  1  0
 26 27  1  0
 26 51  1  0
 27 28  2  0
 27 52  1  0
M  END
>  <i_m_ct_stereo_status>  (129) 
1

>  <s_m_source_file>  (129) 
/var/tmp/pbs.5076255.sched01/tmpck0ladl8/45htcshi4i.sdf

>  <i_m_source_file_index>  (129) 
7

>  <i_lp_mmshare_version>  (129) 
48012

>  <i_f3d_flags>  (129) 
2

>  <s_epik_input>  (129) 
bjFbY0hdW2NIXVtjSF1bY0hdYzFbQ0BIXShuMmMzW2NIXVtjSF1bY0hdMilDKFtDQEhdNFtDSDNdKT1DM1tDSF09W0NIXVtDQEBIXShbQ0gyXTUpW0NASF00TjZbQ0gyXVtDQEBIXShbTkhdNylbQ0BIXTdbQ0BAXTU2W09IXQ==

>  <s_epik_cmdline>  (129) 
J2VwaWtfcHl0aG9uJywgJy1waHQnLCAnMi4wJywgJy1waCcsICc3LjAnLCAnLXRuJywgJzgnLCAnLW1hJywgJzIwMCcsICctaW1hZScsICc8aW5maWxlLm1hZT4nLCAnLW9tYWUnLCAnPG91dGZpbGUubWFlPic=

>  <r_epik_Ionization_Penalty>  (129) 
1.97271

>  <r_epik_Ionization_Penalty_Charging>  (129) 
0

>  <r_epik_Ionization_Penalty_Neutral>  (129) 
1.97271

>  <r_epik_State_Penalty>  (129) 
1.74849

>  <r_epik_Charging_Adjusted_Penalty>  (129) 
1.74849

>  <i_epik_Tot_Q>  (129) 
0

>  <i_epik_Tot_abs_Q>  (129) 
0

>  <s_lp_Force_Field>  (129) 
OPLS3e

>  <r_lp_Energy>  (129) 
43.0814

>  <b_lp_Chiralities_Consistent>  (129) 
0

>  <s_lp_Variant>  (129) 
38:0-2

>  <s_i_glide_gridfile>  (129) 
pfpi4k_grid

>  <i_i_glide_lignum>  (129) 
7

>  <i_i_glide_rotatable_bonds>  (129) 
2

>  <r_i_docking_score>  (129) 
-3.07643

>  <r_i_glide_ligand_efficiency>  (129) 
-0.109873

>  <r_i_glide_ligand_efficiency_sa>  (129) 
-0.333638

>  <r_i_glide_ligand_efficiency_ln>  (129) 
-0.710131

>  <r_i_glide_gscore>  (129) 
-3.07643

>  <r_i_glide_lipo>  (129) 
-0.414347

>  <r_i_glide_hbond>  (129) 
0

>  <r_i_glide_metal>  (129) 
-0

>  <r_i_glide_rewards>  (129) 
-0.913037

>  <r_i_glide_evdw>  (129) 
-32.9427

>  <r_i_glide_ecoul>  (129) 
-1.57367

>  <r_i_glide_erotb>  (129) 
0.139224

>  <r_i_glide_esite>  (129) 
-0.00508482

>  <r_i_glide_emodel>  (129) 
-39.4927

>  <r_i_glide_energy>  (129) 
-34.5164

>  <r_i_glide_einternal>  (129) 
1.92071

>  <r_i_glide_intrahb_reward>  (129) 
-0

>  <i_i_glide_confnum>  (129) 
1

>  <i_i_glide_posenum>  (129) 
1

>  <r_i_glide_eff_state_penalty>  (129) 
0

>  <ligand_id>  (129) 
38

>  <original_smiles>  (129) 
CC1C2=C(C=CC3CC4(O)C5NC5CN4C31)c1cccn1C2c1ccccn1

>  <smiles>  (129) 
[H]OC12N(C([H])([H])C3([H])N([H])C31[H])C1([H])C([H])(C([H])([H])[H])C3=C(C([H])=C([H])C1([H])C2([H])[H])c1c([H])c([H])c([H])n1C3([H])c1nc([H])c([H])c([H])c1[H]

$$$$
38:1:2
     RDKit          3D

 52 58  0  0  1  0  0  0  0  0999 V2000
    3.9699   -0.0687    1.4935 C   0  0  0  0  0  0  0  0  0  0  0  0
    3.2463   -1.1442    2.3361 C   0  0  2  0  0  0  0  0  0  0  0  0
    3.4957   -2.5768    1.8303 C   0  0  0  0  0  0  0  0  0  0  0  0
    3.0087   -3.7179    2.3693 C   0  0  0  0  0  0  0  0  0  0  0  0
    2.1005   -3.8498    3.4865 C   0  0  0  0  0  0  0  0  0  0  0  0
    1.2791   -2.9324    4.0163 C   0  0  0  0  0  0  0  0  0  0  0  0
    1.0126   -1.4868    3.6398 C   0  0  1  0  0  0  0  0  0  0  0  0
    1.2561   -0.5120    4.7896 C   0  0  0  0  0  0  0  0  0  0  0  0
    1.3882    0.8447    4.0867 C   0  0  2  0  0  0  0  0  0  0  0  0
    2.6030    1.4504    4.4572 O   0  0  0  0  0  0  0  0  0  0  0  0
    0.2362    1.7931    4.3675 C   0  0  1  0  0  0  0  0  0  0  0  0
    0.1672    2.9995    3.5605 N   0  0  0  0  0  0  0  0  0  0  0  0
   -0.5771    1.8375    3.1210 C   0  0  1  0  0  0  0  0  0  0  0  0
    0.1324    1.0007    2.0822 C   0  0  0  0  0  0  0  0  0  0  0  0
    1.4406    0.6037    2.6397 N   0  0  0  0  0  0  0  0  0  0  0  0
    1.7295   -0.8265    2.4432 C   0  0  1  0  0  0  0  0  0  0  0  0
    3.5999   -4.8237    1.7002 C   0  0  0  0  0  0  0  0  0  0  0  0
    3.6362   -6.1888    1.6581 C   0  0  0  0  0  0  0  0  0  0  0  0
    4.5682   -6.5307    0.6242 C   0  0  0  0  0  0  0  0  0  0  0  0
    5.0670   -5.3673    0.0890 C   0  0  0  0  0  0  0  0  0  0  0  0
    4.4501   -4.3355    0.7644 N   0  0  0  0  0  0  0  0  0  0  0  0
    4.4703   -2.8957    0.6829 C   0  0  1  0  0  0  0  0  0  0  0  0
    4.0338   -2.4337   -0.7086 C   0  0  0  0  0  0  0  0  0  0  0  0
    4.6700   -1.3505   -1.3513 C   0  0  0  0  0  0  0  0  0  0  0  0
    4.2037   -0.9440   -2.6130 C   0  0  0  0  0  0  0  0  0  0  0  0
    3.1692   -1.6780   -3.2234 C   0  0  0  0  0  0  0  0  0  0  0  0
    2.6139   -2.7582   -2.5152 C   0  0  0  0  0  0  0  0  0  0  0  0
    3.0175   -3.1181   -1.2833 N   0  0  0  0  0  0  0  0  0  0  0  0
    5.0356   -0.2767    1.3909 H   0  0  0  0  0  0  0  0  0  0  0  0
    3.8971    0.9200    1.9505 H   0  0  0  0  0  0  0  0  0  0  0  0
    3.5116    0.0364    0.5094 H   0  0  0  0  0  0  0  0  0  0  0  0
    3.6870   -1.0855    3.3340 H   0  0  0  0  0  0  0  0  0  0  0  0
    2.0753   -4.8202    3.9628 H   0  0  0  0  0  0  0  0  0  0  0  0
    0.6737   -3.2557    4.8477 H   0  0  0  0  0  0  0  0  0  0  0  0
   -0.0543   -1.4553    3.4258 H   0  0  0  0  0  0  0  0  0  0  0  0
    0.4564   -0.5279    5.5278 H   0  0  0  0  0  0  0  0  0  0  0  0
    2.1805   -0.7661    5.3101 H   0  0  0  0  0  0  0  0  0  0  0  0
    2.9423    1.8983    3.6966 H   0  0  0  0  0  0  0  0  0  0  0  0
   -0.2106    1.9184    5.3506 H   0  0  0  0  0  0  0  0  0  0  0  0
    0.9858    3.0660    2.9636 H   0  0  0  0  0  0  0  0  0  0  0  0
   -1.6563    1.9957    3.1165 H   0  0  0  0  0  0  0  0  0  0  0  0
   -0.4923    0.1366    1.8638 H   0  0  0  0  0  0  0  0  0  0  0  0
    0.2342    1.5626    1.1486 H   0  0  0  0  0  0  0  0  0  0  0  0
    1.2774   -1.1552    1.5044 H   0  0  0  0  0  0  0  0  0  0  0  0
    3.0567   -6.8613    2.2745 H   0  0  0  0  0  0  0  0  0  0  0  0
    4.8345   -7.5213    0.2850 H   0  0  0  0  0  0  0  0  0  0  0  0
    5.7664   -5.1845   -0.7168 H   0  0  0  0  0  0  0  0  0  0  0  0
    5.4744   -2.5534    0.9254 H   0  0  0  0  0  0  0  0  0  0  0  0
    5.4511   -0.8012   -0.8512 H   0  0  0  0  0  0  0  0  0  0  0  0
    4.6150   -0.0689   -3.0915 H   0  0  0  0  0  0  0  0  0  0  0  0
    2.7729   -1.3945   -4.1870 H   0  0  0  0  0  0  0  0  0  0  0  0
    1.8112   -3.3442   -2.9365 H   0  0  0  0  0  0  0  0  0  0  0  0
  1  2  1  0
  1 29  1  0
  1 30  1  0
  1 31  1  0
  2 16  1  0
  2  3  1  0
  2 32  1  1
  3 22  1  0
  3  4  2  0
  4  5  1  0
  4 17  1  0
  5  6  2  0
  5 33  1  0
  6  7  1  0
  6 34  1  0
  7 16  1  0
  7  8  1  0
  7 35  1  6
  8  9  1  0
  8 36  1  0
  8 37  1  0
  9 15  1  0
  9 10  1  1
  9 11  1  0
 10 38  1  0
 11 13  1  0
 11 12  1  0
 11 39  1  1
 12 13  1  0
 12 40  1  0
 13 14  1  0
 13 41  1  1
 14 15  1  0
 14 42  1  0
 14 43  1  0
 15 16  1  0
 16 44  1  6
 17 21  1  0
 17 18  2  0
 18 19  1  0
 18 45  1  0
 19 20  2  0
 19 46  1  0
 20 21  1  0
 20 47  1  0
 21 22  1  0
 22 23  1  0
 22 48  1  1
 23 28  1  0
 23 24  2  0
 24 25  1  0
 24 49  1  0
 25 26  2  0
 25 50  1  0
 26 27  1  0
 26 51  1  0
 27 28  2  0
 27 52  1  0
M  END
>  <i_m_ct_stereo_status>  (130) 
1

>  <s_m_source_file>  (130) 
/var/tmp/pbs.5076255.sched01/tmpck0ladl8/45htcshi4i.sdf

>  <i_m_source_file_index>  (130) 
7

>  <i_lp_mmshare_version>  (130) 
48012

>  <i_f3d_flags>  (130) 
2

>  <s_epik_input>  (130) 
bjFbY0hdW2NIXVtjSF1bY0hdYzFbQ0BIXShuMmMzW2NIXVtjSF1bY0hdMilDKFtDQEhdNFtDSDNdKT1DM1tDSF09W0NIXVtDQEBIXShbQ0gyXTUpW0NASF00TjZbQ0gyXVtDQEBIXShbTkhdNylbQ0BIXTdbQ0BAXTU2W09IXQ==

>  <s_epik_cmdline>  (130) 
J2VwaWtfcHl0aG9uJywgJy1waHQnLCAnMi4wJywgJy1waCcsICc3LjAnLCAnLXRuJywgJzgnLCAnLW1hJywgJzIwMCcsICctaW1hZScsICc8aW5maWxlLm1hZT4nLCAnLW9tYWUnLCAnPG91dGZpbGUubWFlPic=

>  <r_epik_Ionization_Penalty>  (130) 
1.97271

>  <r_epik_Ionization_Penalty_Charging>  (130) 
0

>  <r_epik_Ionization_Penalty_Neutral>  (130) 
1.97271

>  <r_epik_State_Penalty>  (130) 
1.74849

>  <r_epik_Charging_Adjusted_Penalty>  (130) 
1.74849

>  <i_epik_Tot_Q>  (130) 
0

>  <i_epik_Tot_abs_Q>  (130) 
0

>  <s_lp_Force_Field>  (130) 
OPLS3e

>  <r_lp_Energy>  (130) 
43.0814

>  <b_lp_Chiralities_Consistent>  (130) 
0

>  <s_lp_Variant>  (130) 
38:0-2

>  <s_i_glide_gridfile>  (130) 
pfpi4k_grid

>  <i_i_glide_lignum>  (130) 
7

>  <i_i_glide_rotatable_bonds>  (130) 
2

>  <r_i_docking_score>  (130) 
-2.88478

>  <r_i_glide_ligand_efficiency>  (130) 
-0.103028

>  <r_i_glide_ligand_efficiency_sa>  (130) 
-0.312853

>  <r_i_glide_ligand_efficiency_ln>  (130) 
-0.665892

>  <r_i_glide_gscore>  (130) 
-2.88478

>  <r_i_glide_lipo>  (130) 
-0.37295

>  <r_i_glide_hbond>  (130) 
0

>  <r_i_glide_metal>  (130) 
-0

>  <r_i_glide_rewards>  (130) 
-0.911847

>  <r_i_glide_evdw>  (130) 
-32.9629

>  <r_i_glide_ecoul>  (130) 
-0.568847

>  <r_i_glide_erotb>  (130) 
0.139224

>  <r_i_glide_esite>  (130) 
-0.00573335

>  <r_i_glide_emodel>  (130) 
-37.7369

>  <r_i_glide_energy>  (130) 
-33.5318

>  <r_i_glide_einternal>  (130) 
2.48929

>  <r_i_glide_intrahb_reward>  (130) 
-0

>  <i_i_glide_confnum>  (130) 
2

>  <i_i_glide_posenum>  (130) 
7

>  <r_i_glide_eff_state_penalty>  (130) 
0

>  <ligand_id>  (130) 
38

>  <original_smiles>  (130) 
CC1C2=C(C=CC3CC4(O)C5NC5CN4C31)c1cccn1C2c1ccccn1

>  <smiles>  (130) 
[H]OC12N(C([H])([H])C3([H])N([H])C31[H])C1([H])C([H])(C([H])([H])[H])C3=C(C([H])=C([H])C1([H])C2([H])[H])c1c([H])c([H])c([H])n1C3([H])c1nc([H])c([H])c([H])c1[H]

$$$$
38:2:0
     RDKit          3D

 53 59  0  0  1  0  0  0  0  0999 V2000
    4.7728   -5.4377    4.8218 C   0  0  0  0  0  0  0  0  0  0  0  0
    5.7217   -5.3820    3.6036 C   0  0  2  0  0  0  0  0  0  0  0  0
    5.1826   -4.5026    2.4541 C   0  0  0  0  0  0  0  0  0  0  0  0
    5.9152   -4.0603    1.4083 C   0  0  0  0  0  0  0  0  0  0  0  0
    7.2831   -4.4639    1.1550 C   0  0  0  0  0  0  0  0  0  0  0  0
    7.7219   -5.7192    1.3475 C   0  0  0  0  0  0  0  0  0  0  0  0
    6.8289   -6.8899    1.7374 C   0  0  1  0  0  0  0  0  0  0  0  0
    7.6123   -8.2032    1.7974 C   0  0  0  0  0  0  0  0  0  0  0  0
    8.0009   -8.3635    3.2735 C   0  0  2  0  0  0  0  0  0  0  0  0
    9.2739   -7.8197    3.5632 O   0  0  0  0  0  0  0  0  0  0  0  0
    7.8426   -9.7626    3.8377 C   0  0  2  0  0  0  0  0  0  0  0  0
    6.4775  -10.2761    3.8536 N   0  0  0  0  0  0  0  0  0  0  0  0
    7.0073   -9.6464    5.0529 C   0  0  2  0  0  0  0  0  0  0  0  0
    6.5877   -8.2076    5.2272 C   0  0  0  0  0  0  0  0  0  0  0  0
    7.1587   -7.4405    4.0754 N   0  0  2  0  0  0  0  0  0  0  0  0
    6.1794   -6.8000    3.1412 C   0  0  1  0  0  0  0  0  0  0  0  0
    5.1236   -3.1606    0.6389 C   0  0  0  0  0  0  0  0  0  0  0  0
    5.1218   -2.3687   -0.4702 C   0  0  0  0  0  0  0  0  0  0  0  0
    3.8267   -1.7550   -0.5177 C   0  0  0  0  0  0  0  0  0  0  0  0
    3.1021   -2.1821    0.5676 C   0  0  0  0  0  0  0  0  0  0  0  0
    3.9187   -3.0552    1.2555 N   0  0  0  0  0  0  0  0  0  0  0  0
    3.7836   -3.8686    2.4406 C   0  0  1  0  0  0  0  0  0  0  0  0
    2.6294   -4.8556    2.3020 C   0  0  0  0  0  0  0  0  0  0  0  0
    2.4027   -5.5603    1.0988 C   0  0  0  0  0  0  0  0  0  0  0  0
    1.3422   -6.4816    1.0443 C   0  0  0  0  0  0  0  0  0  0  0  0
    0.5575   -6.6731    2.1946 C   0  0  0  0  0  0  0  0  0  0  0  0
    0.8689   -5.9357    3.3519 C   0  0  0  0  0  0  0  0  0  0  0  0
    1.8603   -5.0235    3.3986 N   0  0  0  0  0  0  0  0  0  0  0  0
    4.4563   -4.4416    5.1323 H   0  0  0  0  0  0  0  0  0  0  0  0
    5.2454   -5.8861    5.6948 H   0  0  0  0  0  0  0  0  0  0  0  0
    3.8828   -6.0308    4.6230 H   0  0  0  0  0  0  0  0  0  0  0  0
    6.6134   -4.8690    3.9593 H   0  0  0  0  0  0  0  0  0  0  0  0
    7.9836   -3.7141    0.8188 H   0  0  0  0  0  0  0  0  0  0  0  0
    8.7556   -5.9438    1.1302 H   0  0  0  0  0  0  0  0  0  0  0  0
    6.0596   -6.9681    0.9702 H   0  0  0  0  0  0  0  0  0  0  0  0
    6.9528   -9.0220    1.4971 H   0  0  0  0  0  0  0  0  0  0  0  0
    8.4695   -8.2303    1.1253 H   0  0  0  0  0  0  0  0  0  0  0  0
    9.8054   -7.8669    2.7679 H   0  0  0  0  0  0  0  0  0  0  0  0
    8.5814  -10.5558    3.6934 H   0  0  0  0  0  0  0  0  0  0  0  0
    6.4972  -11.2846    3.9796 H   0  0  0  0  0  0  0  0  0  0  0  0
    7.0591  -10.3367    5.8965 H   0  0  0  0  0  0  0  0  0  0  0  0
    5.5052   -8.1459    5.3080 H   0  0  0  0  0  0  0  0  0  0  0  0
    7.0198   -7.8279    6.1529 H   0  0  0  0  0  0  0  0  0  0  0  0
    5.3119   -7.4563    3.0978 H   0  0  0  0  0  0  0  0  0  0  0  0
    5.9342   -2.2507   -1.1749 H   0  0  0  0  0  0  0  0  0  0  0  0
    3.4456   -1.0758   -1.2669 H   0  0  0  0  0  0  0  0  0  0  0  0
    2.0926   -1.9572    0.8826 H   0  0  0  0  0  0  0  0  0  0  0  0
    3.6479   -3.2010    3.2901 H   0  0  0  0  0  0  0  0  0  0  0  0
    3.0288   -5.3898    0.2349 H   0  0  0  0  0  0  0  0  0  0  0  0
    1.1224   -7.0202    0.1372 H   0  0  0  0  0  0  0  0  0  0  0  0
   -0.2550   -7.3847    2.1929 H   0  0  0  0  0  0  0  0  0  0  0  0
    0.3013   -6.0680    4.2611 H   0  0  0  0  0  0  0  0  0  0  0  0
    7.7968   -6.7351    4.4258 H   0  0  0  0  0  0  0  0  0  0  0  0
  1  2  1  0
  1 29  1  0
  1 30  1  0
  1 31  1  0
  2 16  1  0
  2  3  1  0
  2 32  1  1
  3 22  1  0
  3  4  2  0
  4  5  1  0
  4 17  1  0
  5  6  2  0
  5 33  1  0
  6  7  1  0
  6 34  1  0
  7 16  1  0
  7  8  1  0
  7 35  1  6
  8  9  1  0
  8 36  1  0
  8 37  1  0
  9 15  1  0
  9 10  1  6
  9 11  1  0
 10 38  1  0
 11 13  1  0
 11 12  1  0
 11 39  1  1
 12 13  1  0
 12 40  1  0
 13 14  1  0
 13 41  1  1
 14 15  1  0
 14 42  1  0
 14 43  1  0
 15 16  1  0
 15 53  1  1
 16 44  1  6
 17 21  1  0
 17 18  2  0
 18 19  1  0
 18 45  1  0
 19 20  2  0
 19 46  1  0
 20 21  1  0
 20 47  1  0
 21 22  1  0
 22 23  1  0
 22 48  1  1
 23 28  1  0
 23 24  2  0
 24 25  1  0
 24 49  1  0
 25 26  2  0
 25 50  1  0
 26 27  1  0
 26 51  1  0
 27 28  2  0
 27 52  1  0
M  CHG  1  15   1
M  END
>  <i_m_ct_stereo_status>  (131) 
1

>  <s_m_source_file>  (131) 
/var/tmp/pbs.5076255.sched01/tmpck0ladl8/45htcshi4i.sdf

>  <i_m_source_file_index>  (131) 
8

>  <i_lp_mmshare_version>  (131) 
48012

>  <i_f3d_flags>  (131) 
0

>  <s_epik_input>  (131) 
bjFbY0hdW2NIXVtjSF1bY0hdYzFbQ0BIXShuMmMzW2NIXVtjSF1bY0hdMilDKFtDQEhdNFtDSDNdKT1DM1tDSF09W0NIXVtDQEBIXShbQ0gyXTUpW0NASF00TjZbQ0gyXVtDQEBIXShbTkhdNylbQ0BIXTdbQ0BAXTU2W09IXQ==

>  <s_epik_cmdline>  (131) 
J2VwaWtfcHl0aG9uJywgJy1waHQnLCAnMi4wJywgJy1waCcsICc3LjAnLCAnLXRuJywgJzgnLCAnLW1hJywgJzIwMCcsICctaW1hZScsICc8aW5maWxlLm1hZT4nLCAnLW9tYWUnLCAnPG91dGZpbGUubWFlPic=

>  <r_epik_Ionization_Penalty>  (131) 
0.524926

>  <r_epik_Ionization_Penalty_Charging>  (131) 
0.491806

>  <r_epik_Ionization_Penalty_Neutral>  (131) 
0.0331199

>  <r_epik_State_Penalty>  (131) 
1.91119

>  <r_epik_Charging_Adjusted_Penalty>  (131) 
2.40299

>  <i_epik_Tot_Q>  (131) 
1

>  <i_epik_Tot_abs_Q>  (131) 
1

>  <s_lp_Force_Field>  (131) 
OPLS3e

>  <r_lp_Energy>  (131) 
37.8213

>  <b_lp_Chiralities_Consistent>  (131) 
1

>  <s_lp_Variant>  (131) 
38:0-3

>  <s_i_glide_gridfile>  (131) 
pfpi4k_grid

>  <i_i_glide_lignum>  (131) 
8

>  <i_i_glide_rotatable_bonds>  (131) 
2

>  <r_i_docking_score>  (131) 
-2.86771

>  <r_i_glide_ligand_efficiency>  (131) 
-0.102418

>  <r_i_glide_ligand_efficiency_sa>  (131) 
-0.311002

>  <r_i_glide_ligand_efficiency_ln>  (131) 
-0.661951

>  <r_i_glide_gscore>  (131) 
-2.86771

>  <r_i_glide_lipo>  (131) 
-0.406871

>  <r_i_glide_hbond>  (131) 
-0.16

>  <r_i_glide_metal>  (131) 
-0

>  <r_i_glide_rewards>  (131) 
-0.863496

>  <r_i_glide_evdw>  (131) 
-20.9605

>  <r_i_glide_ecoul>  (131) 
-3.43885

>  <r_i_glide_erotb>  (131) 
0.138553

>  <r_i_glide_esite>  (131) 
-0.0120414

>  <r_i_glide_emodel>  (131) 
-28.9444

>  <r_i_glide_energy>  (131) 
-24.3993

>  <r_i_glide_einternal>  (131) 
0.606318

>  <r_i_glide_intrahb_reward>  (131) 
-0

>  <i_i_glide_confnum>  (131) 
3

>  <i_i_glide_posenum>  (131) 
38

>  <r_i_glide_eff_state_penalty>  (131) 
0

>  <ligand_id>  (131) 
38

>  <original_smiles>  (131) 
CC1C2=C(C=CC3CC4(O)C5NC5CN4C31)c1cccn1C2c1ccccn1

>  <smiles>  (131) 
[H]OC12C([H])([H])C3([H])C([H])=C([H])C4=C(C([H])(c5nc([H])c([H])c([H])c5[H])n5c([H])c([H])c([H])c54)C([H])(C([H])([H])[H])C3([H])[N+]1([H])C([H])([H])C1([H])N([H])C12[H]

$$$$
38:2:1
     RDKit          3D

 53 59  0  0  1  0  0  0  0  0999 V2000
    4.8213   -5.3754    4.9235 C   0  0  0  0  0  0  0  0  0  0  0  0
    5.7414   -5.3462    3.6869 C   0  0  2  0  0  0  0  0  0  0  0  0
    5.1960   -4.4845    2.5284 C   0  0  0  0  0  0  0  0  0  0  0  0
    5.9215   -4.0554    1.4702 C   0  0  0  0  0  0  0  0  0  0  0  0
    7.2854   -4.4662    1.2060 C   0  0  0  0  0  0  0  0  0  0  0  0
    7.7271   -5.7178    1.4133 C   0  0  0  0  0  0  0  0  0  0  0  0
    6.8403   -6.8806    1.8370 C   0  0  1  0  0  0  0  0  0  0  0  0
    7.6286   -8.1921    1.9090 C   0  0  0  0  0  0  0  0  0  0  0  0
    8.0373   -8.3267    3.3808 C   0  0  2  0  0  0  0  0  0  0  0  0
    9.3179   -7.7827    3.6427 O   0  0  0  0  0  0  0  0  0  0  0  0
    7.8902   -9.7125    3.9756 C   0  0  2  0  0  0  0  0  0  0  0  0
    6.5252  -10.2273    4.0211 N   0  0  0  0  0  0  0  0  0  0  0  0
    7.0711   -9.5742    5.1992 C   0  0  2  0  0  0  0  0  0  0  0  0
    6.6531   -8.1341    5.3521 C   0  0  0  0  0  0  0  0  0  0  0  0
    7.2082   -7.3882    4.1787 N   0  0  2  0  0  0  0  0  0  0  0  0
    6.2116   -6.7680    3.2482 C   0  0  1  0  0  0  0  0  0  0  0  0
    5.1232   -3.1646    0.6979 C   0  0  0  0  0  0  0  0  0  0  0  0
    5.1095   -2.3933   -0.4252 C   0  0  0  0  0  0  0  0  0  0  0  0
    3.8135   -1.7775   -0.4651 C   0  0  0  0  0  0  0  0  0  0  0  0
    3.1015   -2.1851    0.6332 C   0  0  0  0  0  0  0  0  0  0  0  0
    3.9255   -3.0471    1.3278 N   0  0  0  0  0  0  0  0  0  0  0  0
    3.8009   -3.8531    2.5230 C   0  0  1  0  0  0  0  0  0  0  0  0
    2.6504   -4.8489    2.4070 C   0  0  0  0  0  0  0  0  0  0  0  0
    1.8087   -5.1127    3.5060 C   0  0  0  0  0  0  0  0  0  0  0  0
    0.7854   -6.0686    3.3623 C   0  0  0  0  0  0  0  0  0  0  0  0
    0.6089   -6.6809    2.1071 C   0  0  0  0  0  0  0  0  0  0  0  0
    1.4956   -6.3474    1.0684 C   0  0  0  0  0  0  0  0  0  0  0  0
    2.4956   -5.4612    1.2120 N   0  0  0  0  0  0  0  0  0  0  0  0
    4.5163   -4.3711    5.2211 H   0  0  0  0  0  0  0  0  0  0  0  0
    5.3164   -5.8042    5.7962 H   0  0  0  0  0  0  0  0  0  0  0  0
    3.9344   -5.9770    4.7511 H   0  0  0  0  0  0  0  0  0  0  0  0
    6.6131   -4.8052    4.0331 H   0  0  0  0  0  0  0  0  0  0  0  0
    7.9798   -3.7214    0.8447 H   0  0  0  0  0  0  0  0  0  0  0  0
    8.7582   -5.9450    1.1855 H   0  0  0  0  0  0  0  0  0  0  0  0
    6.0601   -6.9729    1.0837 H   0  0  0  0  0  0  0  0  0  0  0  0
    6.9651   -9.0153    1.6350 H   0  0  0  0  0  0  0  0  0  0  0  0
    8.4741   -8.2299    1.2239 H   0  0  0  0  0  0  0  0  0  0  0  0
    9.8326   -7.8551    2.8384 H   0  0  0  0  0  0  0  0  0  0  0  0
    8.6247  -10.5096    3.8335 H   0  0  0  0  0  0  0  0  0  0  0  0
    6.5459  -11.2342    4.1647 H   0  0  0  0  0  0  0  0  0  0  0  0
    7.1341  -10.2494    6.0536 H   0  0  0  0  0  0  0  0  0  0  0  0
    5.5709   -8.0709    5.4477 H   0  0  0  0  0  0  0  0  0  0  0  0
    7.0972   -7.7367    6.2659 H   0  0  0  0  0  0  0  0  0  0  0  0
    5.3458   -7.4264    3.2283 H   0  0  0  0  0  0  0  0  0  0  0  0
    5.9058   -2.2968   -1.1496 H   0  0  0  0  0  0  0  0  0  0  0  0
    3.4142   -1.1228   -1.2243 H   0  0  0  0  0  0  0  0  0  0  0  0
    2.0907   -1.9658    0.9454 H   0  0  0  0  0  0  0  0  0  0  0  0
    3.6674   -3.1800    3.3674 H   0  0  0  0  0  0  0  0  0  0  0  0
    1.9737   -4.6207    4.4552 H   0  0  0  0  0  0  0  0  0  0  0  0
    0.1498   -6.3173    4.1965 H   0  0  0  0  0  0  0  0  0  0  0  0
   -0.1693   -7.4127    1.9416 H   0  0  0  0  0  0  0  0  0  0  0  0
    1.3839   -6.7666    0.0810 H   0  0  0  0  0  0  0  0  0  0  0  0
    7.8503   -6.6742    4.5073 H   0  0  0  0  0  0  0  0  0  0  0  0
  1  2  1  0
  1 29  1  0
  1 30  1  0
  1 31  1  0
  2 16  1  0
  2  3  1  0
  2 32  1  1
  3 22  1  0
  3  4  2  0
  4  5  1  0
  4 17  1  0
  5  6  2  0
  5 33  1  0
  6  7  1  0
  6 34  1  0
  7 16  1  0
  7  8  1  0
  7 35  1  6
  8  9  1  0
  8 36  1  0
  8 37  1  0
  9 15  1  0
  9 10  1  6
  9 11  1  0
 10 38  1  0
 11 13  1  0
 11 12  1  0
 11 39  1  1
 12 13  1  0
 12 40  1  0
 13 14  1  0
 13 41  1  1
 14 15  1  0
 14 42  1  0
 14 43  1  0
 15 16  1  0
 15 53  1  1
 16 44  1  6
 17 21  1  0
 17 18  2  0
 18 19  1  0
 18 45  1  0
 19 20  2  0
 19 46  1  0
 20 21  1  0
 20 47  1  0
 21 22  1  0
 22 23  1  0
 22 48  1  1
 23 28  1  0
 23 24  2  0
 24 25  1  0
 24 49  1  0
 25 26  2  0
 25 50  1  0
 26 27  1  0
 26 51  1  0
 27 28  2  0
 27 52  1  0
M  CHG  1  15   1
M  END
>  <i_m_ct_stereo_status>  (132) 
1

>  <s_m_source_file>  (132) 
/var/tmp/pbs.5076255.sched01/tmpck0ladl8/45htcshi4i.sdf

>  <i_m_source_file_index>  (132) 
8

>  <i_lp_mmshare_version>  (132) 
48012

>  <i_f3d_flags>  (132) 
0

>  <s_epik_input>  (132) 
bjFbY0hdW2NIXVtjSF1bY0hdYzFbQ0BIXShuMmMzW2NIXVtjSF1bY0hdMilDKFtDQEhdNFtDSDNdKT1DM1tDSF09W0NIXVtDQEBIXShbQ0gyXTUpW0NASF00TjZbQ0gyXVtDQEBIXShbTkhdNylbQ0BIXTdbQ0BAXTU2W09IXQ==

>  <s_epik_cmdline>  (132) 
J2VwaWtfcHl0aG9uJywgJy1waHQnLCAnMi4wJywgJy1waCcsICc3LjAnLCAnLXRuJywgJzgnLCAnLW1hJywgJzIwMCcsICctaW1hZScsICc8aW5maWxlLm1hZT4nLCAnLW9tYWUnLCAnPG91dGZpbGUubWFlPic=

>  <r_epik_Ionization_Penalty>  (132) 
0.524926

>  <r_epik_Ionization_Penalty_Charging>  (132) 
0.491806

>  <r_epik_Ionization_Penalty_Neutral>  (132) 
0.0331199

>  <r_epik_State_Penalty>  (132) 
1.91119

>  <r_epik_Charging_Adjusted_Penalty>  (132) 
2.40299

>  <i_epik_Tot_Q>  (132) 
1

>  <i_epik_Tot_abs_Q>  (132) 
1

>  <s_lp_Force_Field>  (132) 
OPLS3e

>  <r_lp_Energy>  (132) 
37.8213

>  <b_lp_Chiralities_Consistent>  (132) 
1

>  <s_lp_Variant>  (132) 
38:0-3

>  <s_i_glide_gridfile>  (132) 
pfpi4k_grid

>  <i_i_glide_lignum>  (132) 
8

>  <i_i_glide_rotatable_bonds>  (132) 
2

>  <r_i_docking_score>  (132) 
-2.7467

>  <r_i_glide_ligand_efficiency>  (132) 
-0.0980963

>  <r_i_glide_ligand_efficiency_sa>  (132) 
-0.297878

>  <r_i_glide_ligand_efficiency_ln>  (132) 
-0.634018

>  <r_i_glide_gscore>  (132) 
-2.7467

>  <r_i_glide_lipo>  (132) 
-0.389353

>  <r_i_glide_hbond>  (132) 
-0.16

>  <r_i_glide_metal>  (132) 
-0

>  <r_i_glide_rewards>  (132) 
-0.864729

>  <r_i_glide_evdw>  (132) 
-21.0782

>  <r_i_glide_ecoul>  (132) 
-2.71389

>  <r_i_glide_erotb>  (132) 
0.138553

>  <r_i_glide_esite>  (132) 
-0.0101724

>  <r_i_glide_emodel>  (132) 
-27.7828

>  <r_i_glide_energy>  (132) 
-23.7921

>  <r_i_glide_einternal>  (132) 
1.11635

>  <r_i_glide_intrahb_reward>  (132) 
-0

>  <i_i_glide_confnum>  (132) 
3

>  <i_i_glide_posenum>  (132) 
1

>  <r_i_glide_eff_state_penalty>  (132) 
0

>  <ligand_id>  (132) 
38

>  <original_smiles>  (132) 
CC1C2=C(C=CC3CC4(O)C5NC5CN4C31)c1cccn1C2c1ccccn1

>  <smiles>  (132) 
[H]OC12C([H])([H])C3([H])C([H])=C([H])C4=C(C([H])(c5nc([H])c([H])c([H])c5[H])n5c([H])c([H])c([H])c54)C([H])(C([H])([H])[H])C3([H])[N+]1([H])C([H])([H])C1([H])N([H])C12[H]

$$$$
39:0:0
     RDKit          3D

 38 41  0  0  1  0  0  0  0  0999 V2000
    3.7888   -3.9170    1.4256 C   0  0  0  0  0  0  0  0  0  0  0  0
    2.6209   -4.5552    1.7924 N   0  0  0  0  0  0  0  0  0  0  0  0
    2.7269   -5.8996    1.8415 N   0  0  0  0  0  0  0  0  0  0  0  0
    3.9970   -6.0941    1.5134 C   0  0  0  0  0  0  0  0  0  0  0  0
    4.7130   -4.8963    1.2290 C   0  0  0  0  0  0  0  0  0  0  0  0
    6.1728   -4.8681    0.8050 C   0  0  0  0  0  0  0  0  0  0  0  0
    6.9422   -6.1481    1.2574 C   0  0  0  0  0  0  0  0  0  0  0  0
    6.0371   -7.3414    1.3237 C   0  0  0  0  0  0  0  0  0  0  0  0
    6.5346   -8.5984    1.2905 O   0  0  0  0  0  0  0  0  0  0  0  0
    5.4424   -9.4175    1.3715 C   0  0  0  0  0  0  0  0  0  0  0  0
    4.2651   -8.7274    1.5179 C   0  0  0  0  0  0  0  0  0  0  0  0
    2.8716   -9.2878    1.6951 C   0  0  0  0  0  0  0  0  0  0  0  0
    2.6225   -9.8168    3.0381 N   0  0  0  0  0  0  0  0  0  0  0  0
    3.3504  -11.0747    3.2432 C   0  0  0  0  0  0  0  0  0  0  0  0
    3.1245  -11.6329    4.6517 C   0  0  0  0  0  0  0  0  0  0  0  0
    1.6875  -11.8507    4.8801 N   0  0  0  0  0  0  0  0  0  0  0  0
    0.9283  -10.6056    4.6463 C   0  0  0  0  0  0  0  0  0  0  0  0
    1.1910  -10.0627    3.2273 C   0  0  0  0  0  0  0  0  0  0  0  0
    4.6866   -7.3700    1.4627 C   0  0  0  0  0  0  0  0  0  0  0  0
    1.7612   -4.0853    2.0302 H   0  0  0  0  0  0  0  0  0  0  0  0
    3.8562   -2.8451    1.3388 H   0  0  0  0  0  0  0  0  0  0  0  0
    6.6949   -3.9636    1.1245 H   0  0  0  0  0  0  0  0  0  0  0  0
    6.1974   -4.8538   -0.2823 H   0  0  0  0  0  0  0  0  0  0  0  0
    7.8059   -6.3454    0.6196 H   0  0  0  0  0  0  0  0  0  0  0  0
    7.3301   -5.9695    2.2597 H   0  0  0  0  0  0  0  0  0  0  0  0
    5.6694  -10.4732    1.3264 H   0  0  0  0  0  0  0  0  0  0  0  0
    2.1620   -8.4939    1.4720 H   0  0  0  0  0  0  0  0  0  0  0  0
    2.6991  -10.0667    0.9522 H   0  0  0  0  0  0  0  0  0  0  0  0
    3.0623  -11.8045    2.4856 H   0  0  0  0  0  0  0  0  0  0  0  0
    4.4173  -10.9113    3.1413 H   0  0  0  0  0  0  0  0  0  0  0  0
    3.6453  -12.5840    4.7549 H   0  0  0  0  0  0  0  0  0  0  0  0
    3.5312  -10.9533    5.4035 H   0  0  0  0  0  0  0  0  0  0  0  0
    1.3692  -12.5738    4.2494 H   0  0  0  0  0  0  0  0  0  0  0  0
   -0.1305  -10.8190    4.7642 H   0  0  0  0  0  0  0  0  0  0  0  0
    1.1921   -9.8648    5.4054 H   0  0  0  0  0  0  0  0  0  0  0  0
    0.6455   -9.1275    3.1003 H   0  0  0  0  0  0  0  0  0  0  0  0
    0.8126  -10.7511    2.4714 H   0  0  0  0  0  0  0  0  0  0  0  0
    1.5530  -12.1620    5.8444 H   0  0  0  0  0  0  0  0  0  0  0  0
  1  2  1  0
  1 21  1  0
  1  5  2  0
  2  3  1  0
  2 20  1  0
  3  4  2  0
  4 19  1  0
  4  5  1  0
  5  6  1  0
  6  7  1  0
  6 22  1  0
  6 23  1  0
  7  8  1  0
  7 24  1  0
  7 25  1  0
  8 19  2  0
  8  9  1  0
  9 10  1  0
 10 11  2  0
 10 26  1  0
 11 12  1  0
 11 19  1  0
 12 13  1  0
 12 27  1  0
 12 28  1  0
 13 18  1  0
 13 14  1  0
 14 15  1  0
 14 29  1  0
 14 30  1  0
 15 16  1  0
 15 31  1  0
 15 32  1  0
 16 17  1  0
 16 33  1  0
 16 38  1  0
 17 18  1  0
 17 34  1  0
 17 35  1  0
 18 36  1  0
 18 37  1  0
M  CHG  1  16   1
M  END
>  <i_m_ct_stereo_status>  (133) 
1

>  <s_m_source_file>  (133) 
/var/tmp/pbs.5076255.sched01/tmpck0ladl8/45htcshi4i.sdf

>  <i_m_source_file_index>  (133) 
9

>  <i_lp_mmshare_version>  (133) 
48012

>  <i_f3d_flags>  (133) 
0

>  <s_epik_input>  (133) 
W25IXTFuW2NIXWMoYzEyKVtDSDJdW0NIMl1jM2MyYyhbY0hdbzMpW0NIMl1ONFtDSDJdW0NIMl1bTkhdW0NIMl1bQ0gyXTQ=

>  <s_epik_cmdline>  (133) 
J2VwaWtfcHl0aG9uJywgJy1waHQnLCAnMi4wJywgJy1waCcsICc3LjAnLCAnLXRuJywgJzgnLCAnLW1hJywgJzIwMCcsICctaW1hZScsICc8aW5maWxlLm1hZT4nLCAnLW9tYWUnLCAnPG91dGZpbGUubWFlPic=

>  <r_lp_tautomer_probability>  (133) 
0.5

>  <r_epik_Ionization_Penalty>  (133) 
0.0142943

>  <r_epik_Ionization_Penalty_Charging>  (133) 
0.00459023

>  <r_epik_Ionization_Penalty_Neutral>  (133) 
0.00970403

>  <r_epik_State_Penalty>  (133) 
0.602377

>  <r_epik_Charging_Adjusted_Penalty>  (133) 
0.606967

>  <i_epik_Tot_Q>  (133) 
1

>  <i_epik_Tot_abs_Q>  (133) 
1

>  <s_lp_Force_Field>  (133) 
OPLS3e

>  <r_lp_Energy>  (133) 
30.6036

>  <b_lp_Chiralities_Consistent>  (133) 
1

>  <s_lp_Variant>  (133) 
39:0-1

>  <s_i_glide_gridfile>  (133) 
pfpi4k_grid

>  <i_i_glide_lignum>  (133) 
9

>  <i_i_glide_rotatable_bonds>  (133) 
2

>  <r_i_docking_score>  (133) 
-4.93035

>  <r_i_glide_ligand_efficiency>  (133) 
-0.259492

>  <r_i_glide_ligand_efficiency_sa>  (133) 
-0.69243

>  <r_i_glide_ligand_efficiency_ln>  (133) 
-1.24995

>  <r_i_glide_gscore>  (133) 
-4.93035

>  <r_i_glide_lipo>  (133) 
-0.560506

>  <r_i_glide_hbond>  (133) 
-0.210134

>  <r_i_glide_metal>  (133) 
-0

>  <r_i_glide_rewards>  (133) 
-2.17095

>  <r_i_glide_evdw>  (133) 
-20.5189

>  <r_i_glide_ecoul>  (133) 
-8.37102

>  <r_i_glide_erotb>  (133) 
0.368092

>  <r_i_glide_esite>  (133) 
-0.0752561

>  <r_i_glide_emodel>  (133) 
-41.7694

>  <r_i_glide_energy>  (133) 
-28.8899

>  <r_i_glide_einternal>  (133) 
1.51077

>  <r_i_glide_intrahb_reward>  (133) 
-0

>  <i_i_glide_confnum>  (133) 
5

>  <i_i_glide_posenum>  (133) 
33

>  <r_i_glide_eff_state_penalty>  (133) 
0

>  <ligand_id>  (133) 
39

>  <original_smiles>  (133) 
c1n[nH]c2c1CCc1occ(CN3CCNCC3)c1-2

>  <smiles>  (133) 
[H]c1oc2c(c1C([H])([H])N1C([H])([H])C([H])([H])[N+]([H])([H])C([H])([H])C1([H])[H])-c1nn([H])c([H])c1C([H])([H])C2([H])[H]

$$$$
39:0:1
     RDKit          3D

 38 41  0  0  1  0  0  0  0  0999 V2000
    4.0893   -1.8174   -1.0811 C   0  0  0  0  0  0  0  0  0  0  0  0
    3.0092   -2.6626   -0.8961 N   0  0  0  0  0  0  0  0  0  0  0  0
    3.3525   -3.8476   -0.3386 N   0  0  0  0  0  0  0  0  0  0  0  0
    4.6592   -3.7471   -0.2168 C   0  0  0  0  0  0  0  0  0  0  0  0
    5.1781   -2.4838   -0.6633 C   0  0  0  0  0  0  0  0  0  0  0  0
    6.6520   -2.1110   -0.6088 C   0  0  0  0  0  0  0  0  0  0  0  0
    7.4376   -2.9291    0.4289 C   0  0  0  0  0  0  0  0  0  0  0  0
    6.8241   -4.2655    0.6220 C   0  0  0  0  0  0  0  0  0  0  0  0
    7.5762   -5.2138    1.2038 O   0  0  0  0  0  0  0  0  0  0  0  0
    6.7484   -6.2896    1.2958 C   0  0  0  0  0  0  0  0  0  0  0  0
    5.4741   -6.0695    0.8040 C   0  0  0  0  0  0  0  0  0  0  0  0
    4.2728   -6.9965    0.6825 C   0  0  0  0  0  0  0  0  0  0  0  0
    4.2287   -8.0848    1.6648 N   0  0  0  0  0  0  0  0  0  0  0  0
    5.2602   -9.0877    1.3678 C   0  0  0  0  0  0  0  0  0  0  0  0
    5.2577  -10.1502    2.4765 C   0  0  0  0  0  0  0  0  0  0  0  0
    3.9505  -10.8285    2.5060 N   0  0  0  0  0  0  0  0  0  0  0  0
    2.8701   -9.8491    2.7409 C   0  0  0  0  0  0  0  0  0  0  0  0
    2.8967   -8.7372    1.6662 C   0  0  0  0  0  0  0  0  0  0  0  0
    5.5798   -4.6915    0.3849 C   0  0  0  0  0  0  0  0  0  0  0  0
    2.0579   -2.3883   -1.0725 H   0  0  0  0  0  0  0  0  0  0  0  0
    3.9695   -0.8149   -1.4838 H   0  0  0  0  0  0  0  0  0  0  0  0
    6.8119   -1.0526   -0.4028 H   0  0  0  0  0  0  0  0  0  0  0  0
    7.0990   -2.3549   -1.5685 H   0  0  0  0  0  0  0  0  0  0  0  0
    8.5054   -3.0202    0.2184 H   0  0  0  0  0  0  0  0  0  0  0  0
    7.3391   -2.4328    1.3840 H   0  0  0  0  0  0  0  0  0  0  0  0
    7.2680   -7.1330    1.7252 H   0  0  0  0  0  0  0  0  0  0  0  0
    3.3729   -6.3916    0.7518 H   0  0  0  0  0  0  0  0  0  0  0  0
    4.2233   -7.4254   -0.3214 H   0  0  0  0  0  0  0  0  0  0  0  0
    5.0330   -9.5552    0.3919 H   0  0  0  0  0  0  0  0  0  0  0  0
    6.2631   -8.7186    1.3635 H   0  0  0  0  0  0  0  0  0  0  0  0
    6.0307  -10.8705    2.2546 H   0  0  0  0  0  0  0  0  0  0  0  0
    5.4984   -9.6987    3.4395 H   0  0  0  0  0  0  0  0  0  0  0  0
    3.8528  -11.3093    1.6053 H   0  0  0  0  0  0  0  0  0  0  0  0
    1.9163  -10.3859    2.7109 H   0  0  0  0  0  0  0  0  0  0  0  0
    2.9666   -9.4103    3.7441 H   0  0  0  0  0  0  0  0  0  0  0  0
    2.1063   -8.0101    1.8697 H   0  0  0  0  0  0  0  0  0  0  0  0
    2.6989   -9.1708    0.6875 H   0  0  0  0  0  0  0  0  0  0  0  0
    3.9596  -11.5254    3.2377 H   0  0  0  0  0  0  0  0  0  0  0  0
  1  2  1  0
  1 21  1  0
  1  5  2  0
  2  3  1  0
  2 20  1  0
  3  4  2  0
  4 19  1  0
  4  5  1  0
  5  6  1  0
  6  7  1  0
  6 22  1  0
  6 23  1  0
  7  8  1  0
  7 24  1  0
  7 25  1  0
  8 19  2  0
  8  9  1  0
  9 10  1  0
 10 11  2  0
 10 26  1  0
 11 12  1  0
 11 19  1  0
 12 13  1  0
 12 27  1  0
 12 28  1  0
 13 18  1  0
 13 14  1  0
 14 15  1  0
 14 29  1  0
 14 30  1  0
 15 16  1  0
 15 31  1  0
 15 32  1  0
 16 17  1  0
 16 33  1  0
 16 38  1  0
 17 18  1  0
 17 34  1  0
 17 35  1  0
 18 36  1  0
 18 37  1  0
M  CHG  1  16   1
M  END
>  <i_m_ct_stereo_status>  (134) 
1

>  <s_m_source_file>  (134) 
/var/tmp/pbs.5076255.sched01/tmpck0ladl8/45htcshi4i.sdf

>  <i_m_source_file_index>  (134) 
9

>  <i_lp_mmshare_version>  (134) 
48012

>  <i_f3d_flags>  (134) 
0

>  <s_epik_input>  (134) 
W25IXTFuW2NIXWMoYzEyKVtDSDJdW0NIMl1jM2MyYyhbY0hdbzMpW0NIMl1ONFtDSDJdW0NIMl1bTkhdW0NIMl1bQ0gyXTQ=

>  <s_epik_cmdline>  (134) 
J2VwaWtfcHl0aG9uJywgJy1waHQnLCAnMi4wJywgJy1waCcsICc3LjAnLCAnLXRuJywgJzgnLCAnLW1hJywgJzIwMCcsICctaW1hZScsICc8aW5maWxlLm1hZT4nLCAnLW9tYWUnLCAnPG91dGZpbGUubWFlPic=

>  <r_lp_tautomer_probability>  (134) 
0.5

>  <r_epik_Ionization_Penalty>  (134) 
0.0142943

>  <r_epik_Ionization_Penalty_Charging>  (134) 
0.00459023

>  <r_epik_Ionization_Penalty_Neutral>  (134) 
0.00970403

>  <r_epik_State_Penalty>  (134) 
0.602377

>  <r_epik_Charging_Adjusted_Penalty>  (134) 
0.606967

>  <i_epik_Tot_Q>  (134) 
1

>  <i_epik_Tot_abs_Q>  (134) 
1

>  <s_lp_Force_Field>  (134) 
OPLS3e

>  <r_lp_Energy>  (134) 
30.6036

>  <b_lp_Chiralities_Consistent>  (134) 
1

>  <s_lp_Variant>  (134) 
39:0-1

>  <s_i_glide_gridfile>  (134) 
pfpi4k_grid

>  <i_i_glide_lignum>  (134) 
9

>  <i_i_glide_rotatable_bonds>  (134) 
2

>  <r_i_docking_score>  (134) 
-4.40191

>  <r_i_glide_ligand_efficiency>  (134) 
-0.231679

>  <r_i_glide_ligand_efficiency_sa>  (134) 
-0.618214

>  <r_i_glide_ligand_efficiency_ln>  (134) 
-1.11598

>  <r_i_glide_gscore>  (134) 
-4.40191

>  <r_i_glide_lipo>  (134) 
-0.729474

>  <r_i_glide_hbond>  (134) 
-0.347826

>  <r_i_glide_metal>  (134) 
-0

>  <r_i_glide_rewards>  (134) 
-1.64095

>  <r_i_glide_evdw>  (134) 
-21.017

>  <r_i_glide_ecoul>  (134) 
-6.73288

>  <r_i_glide_erotb>  (134) 
0.525846

>  <r_i_glide_esite>  (134) 
-0.148719

>  <r_i_glide_emodel>  (134) 
-38.3996

>  <r_i_glide_energy>  (134) 
-27.7499

>  <r_i_glide_einternal>  (134) 
1.70507

>  <r_i_glide_intrahb_reward>  (134) 
-0

>  <i_i_glide_confnum>  (134) 
5

>  <i_i_glide_posenum>  (134) 
17

>  <r_i_glide_eff_state_penalty>  (134) 
0

>  <ligand_id>  (134) 
39

>  <original_smiles>  (134) 
c1n[nH]c2c1CCc1occ(CN3CCNCC3)c1-2

>  <smiles>  (134) 
[H]c1oc2c(c1C([H])([H])N1C([H])([H])C([H])([H])[N+]([H])([H])C([H])([H])C1([H])[H])-c1nn([H])c([H])c1C([H])([H])C2([H])[H]

$$$$
39:0:2
     RDKit          3D

 38 41  0  0  1  0  0  0  0  0999 V2000
   -1.3201    6.2982    9.6484 C   0  0  0  0  0  0  0  0  0  0  0  0
   -0.5595    6.6505    8.5466 N   0  0  0  0  0  0  0  0  0  0  0  0
   -0.4763    5.6817    7.6111 N   0  0  0  0  0  0  0  0  0  0  0  0
   -1.1855    4.7069    8.1520 C   0  0  0  0  0  0  0  0  0  0  0  0
   -1.7487    5.0281    9.4220 C   0  0  0  0  0  0  0  0  0  0  0  0
   -2.5886    4.0586   10.2365 C   0  0  0  0  0  0  0  0  0  0  0  0
   -3.2562    2.9824    9.3440 C   0  0  0  0  0  0  0  0  0  0  0  0
   -2.4189    2.6565    8.1434 C   0  0  0  0  0  0  0  0  0  0  0  0
   -2.5809    1.4976    7.4699 O   0  0  0  0  0  0  0  0  0  0  0  0
   -1.6569    1.5403    6.4631 C   0  0  0  0  0  0  0  0  0  0  0  0
   -0.9556    2.7225    6.4210 C   0  0  0  0  0  0  0  0  0  0  0  0
    0.0942    3.1439    5.4185 C   0  0  0  0  0  0  0  0  0  0  0  0
    0.1735    2.2771    4.2400 N   0  0  0  0  0  0  0  0  0  0  0  0
    1.3093    2.6813    3.4049 C   0  0  0  0  0  0  0  0  0  0  0  0
    1.4310    1.7303    2.1931 C   0  0  0  0  0  0  0  0  0  0  0  0
    0.1812    1.7358    1.4078 N   0  0  0  0  0  0  0  0  0  0  0  0
   -0.9682    1.3890    2.2579 C   0  0  0  0  0  0  0  0  0  0  0  0
   -1.0540    2.3609    3.4391 C   0  0  0  0  0  0  0  0  0  0  0  0
   -1.4708    3.4245    7.5485 C   0  0  0  0  0  0  0  0  0  0  0  0
   -0.0947    7.5388    8.4304 H   0  0  0  0  0  0  0  0  0  0  0  0
   -1.4915    6.9618   10.4848 H   0  0  0  0  0  0  0  0  0  0  0  0
   -3.3355    4.5453   10.8616 H   0  0  0  0  0  0  0  0  0  0  0  0
   -1.9332    3.5335   10.9231 H   0  0  0  0  0  0  0  0  0  0  0  0
   -3.4686    2.0923    9.9276 H   0  0  0  0  0  0  0  0  0  0  0  0
   -4.2033    3.3676    8.9807 H   0  0  0  0  0  0  0  0  0  0  0  0
   -1.6374    0.6621    5.8368 H   0  0  0  0  0  0  0  0  0  0  0  0
   -0.1025    4.1696    5.1105 H   0  0  0  0  0  0  0  0  0  0  0  0
    1.0537    3.1501    5.9376 H   0  0  0  0  0  0  0  0  0  0  0  0
    1.1952    3.7156    3.0716 H   0  0  0  0  0  0  0  0  0  0  0  0
    2.2337    2.6373    3.9811 H   0  0  0  0  0  0  0  0  0  0  0  0
    2.2279    2.0665    1.5356 H   0  0  0  0  0  0  0  0  0  0  0  0
    1.6672    0.7100    2.5092 H   0  0  0  0  0  0  0  0  0  0  0  0
    0.0616    2.7003    1.0672 H   0  0  0  0  0  0  0  0  0  0  0  0
   -1.8841    1.4484    1.6763 H   0  0  0  0  0  0  0  0  0  0  0  0
   -0.8822    0.3537    2.6037 H   0  0  0  0  0  0  0  0  0  0  0  0
   -1.9306    2.0606    4.0037 H   0  0  0  0  0  0  0  0  0  0  0  0
   -1.2355    3.3858    3.1133 H   0  0  0  0  0  0  0  0  0  0  0  0
    0.2037    1.1086    0.6118 H   0  0  0  0  0  0  0  0  0  0  0  0
  1  2  1  0
  1 21  1  0
  1  5  2  0
  2  3  1  0
  2 20  1  0
  3  4  2  0
  4 19  1  0
  4  5  1  0
  5  6  1  0
  6  7  1  0
  6 22  1  0
  6 23  1  0
  7  8  1  0
  7 24  1  0
  7 25  1  0
  8 19  2  0
  8  9  1  0
  9 10  1  0
 10 11  2  0
 10 26  1  0
 11 12  1  0
 11 19  1  0
 12 13  1  0
 12 27  1  0
 12 28  1  0
 13 18  1  0
 13 14  1  0
 14 15  1  0
 14 29  1  0
 14 30  1  0
 15 16  1  0
 15 31  1  0
 15 32  1  0
 16 17  1  0
 16 33  1  0
 16 38  1  0
 17 18  1  0
 17 34  1  0
 17 35  1  0
 18 36  1  0
 18 37  1  0
M  CHG  1  16   1
M  END
>  <i_m_ct_stereo_status>  (135) 
1

>  <s_m_source_file>  (135) 
/var/tmp/pbs.5076255.sched01/tmpck0ladl8/45htcshi4i.sdf

>  <i_m_source_file_index>  (135) 
9

>  <i_lp_mmshare_version>  (135) 
48012

>  <i_f3d_flags>  (135) 
0

>  <s_epik_input>  (135) 
W25IXTFuW2NIXWMoYzEyKVtDSDJdW0NIMl1jM2MyYyhbY0hdbzMpW0NIMl1ONFtDSDJdW0NIMl1bTkhdW0NIMl1bQ0gyXTQ=

>  <s_epik_cmdline>  (135) 
J2VwaWtfcHl0aG9uJywgJy1waHQnLCAnMi4wJywgJy1waCcsICc3LjAnLCAnLXRuJywgJzgnLCAnLW1hJywgJzIwMCcsICctaW1hZScsICc8aW5maWxlLm1hZT4nLCAnLW9tYWUnLCAnPG91dGZpbGUubWFlPic=

>  <r_lp_tautomer_probability>  (135) 
0.5

>  <r_epik_Ionization_Penalty>  (135) 
0.0142943

>  <r_epik_Ionization_Penalty_Charging>  (135) 
0.00459023

>  <r_epik_Ionization_Penalty_Neutral>  (135) 
0.00970403

>  <r_epik_State_Penalty>  (135) 
0.602377

>  <r_epik_Charging_Adjusted_Penalty>  (135) 
0.606967

>  <i_epik_Tot_Q>  (135) 
1

>  <i_epik_Tot_abs_Q>  (135) 
1

>  <s_lp_Force_Field>  (135) 
OPLS3e

>  <r_lp_Energy>  (135) 
30.6036

>  <b_lp_Chiralities_Consistent>  (135) 
1

>  <s_lp_Variant>  (135) 
39:0-1

>  <s_i_glide_gridfile>  (135) 
pfpi4k_grid

>  <i_i_glide_lignum>  (135) 
9

>  <i_i_glide_rotatable_bonds>  (135) 
2

>  <r_i_docking_score>  (135) 
-3.99971

>  <r_i_glide_ligand_efficiency>  (135) 
-0.210511

>  <r_i_glide_ligand_efficiency_sa>  (135) 
-0.561728

>  <r_i_glide_ligand_efficiency_ln>  (135) 
-1.01401

>  <r_i_glide_gscore>  (135) 
-3.99971

>  <r_i_glide_lipo>  (135) 
-0.089267

>  <r_i_glide_hbond>  (135) 
-0.458122

>  <r_i_glide_metal>  (135) 
-0

>  <r_i_glide_rewards>  (135) 
-1.64095

>  <r_i_glide_evdw>  (135) 
-19.1252

>  <r_i_glide_ecoul>  (135) 
-8.64614

>  <r_i_glide_erotb>  (135) 
0.525846

>  <r_i_glide_esite>  (135) 
-0.0840337

>  <r_i_glide_emodel>  (135) 
-38.3992

>  <r_i_glide_energy>  (135) 
-27.7713

>  <r_i_glide_einternal>  (135) 
0.396253

>  <r_i_glide_intrahb_reward>  (135) 
-0

>  <i_i_glide_confnum>  (135) 
2

>  <i_i_glide_posenum>  (135) 
13

>  <r_i_glide_eff_state_penalty>  (135) 
0

>  <ligand_id>  (135) 
39

>  <original_smiles>  (135) 
c1n[nH]c2c1CCc1occ(CN3CCNCC3)c1-2

>  <smiles>  (135) 
[H]c1oc2c(c1C([H])([H])N1C([H])([H])C([H])([H])[N+]([H])([H])C([H])([H])C1([H])[H])-c1nn([H])c([H])c1C([H])([H])C2([H])[H]

$$$$
39:1:0
     RDKit          3D

 38 41  0  0  1  0  0  0  0  0999 V2000
   -6.7681  -12.8220   -9.2764 C   0  0  0  0  0  0  0  0  0  0  0  0
   -7.5895  -11.8559   -9.6665 N   0  0  0  0  0  0  0  0  0  0  0  0
   -7.2917  -10.7970   -8.8762 N   0  0  0  0  0  0  0  0  0  0  0  0
   -6.2796  -11.1085   -8.0063 C   0  0  0  0  0  0  0  0  0  0  0  0
   -5.9106  -12.4013   -8.2224 C   0  0  0  0  0  0  0  0  0  0  0  0
   -4.8187  -13.1139   -7.4349 C   0  0  0  0  0  0  0  0  0  0  0  0
   -3.8237  -12.1040   -6.7939 C   0  0  0  0  0  0  0  0  0  0  0  0
   -4.4998  -10.8094   -6.4828 C   0  0  0  0  0  0  0  0  0  0  0  0
   -3.9402   -9.9646   -5.5999 O   0  0  0  0  0  0  0  0  0  0  0  0
   -4.7473   -8.8715   -5.6129 C   0  0  0  0  0  0  0  0  0  0  0  0
   -5.8314   -8.9853   -6.4610 C   0  0  0  0  0  0  0  0  0  0  0  0
   -6.9755   -8.0137   -6.7083 C   0  0  0  0  0  0  0  0  0  0  0  0
   -6.7313   -6.6454   -6.2425 N   0  0  0  0  0  0  0  0  0  0  0  0
   -6.6035   -6.5989   -4.7818 C   0  0  0  0  0  0  0  0  0  0  0  0
   -6.2879   -5.1718   -4.3319 C   0  0  0  0  0  0  0  0  0  0  0  0
   -7.3504   -4.2444   -4.7497 N   0  0  0  0  0  0  0  0  0  0  0  0
   -7.5450   -4.2973   -6.2145 C   0  0  0  0  0  0  0  0  0  0  0  0
   -7.8221   -5.7488   -6.6816 C   0  0  0  0  0  0  0  0  0  0  0  0
   -5.6106  -10.2734   -7.0282 C   0  0  0  0  0  0  0  0  0  0  0  0
   -7.7564   -9.9051   -8.9749 H   0  0  0  0  0  0  0  0  0  0  0  0
   -6.8081  -13.7902   -9.7490 H   0  0  0  0  0  0  0  0  0  0  0  0
   -5.2863  -13.6420   -6.6080 H   0  0  0  0  0  0  0  0  0  0  0  0
   -4.2739  -13.8516   -8.0232 H   0  0  0  0  0  0  0  0  0  0  0  0
   -3.3366  -12.5034   -5.9030 H   0  0  0  0  0  0  0  0  0  0  0  0
   -3.0317  -11.8818   -7.5037 H   0  0  0  0  0  0  0  0  0  0  0  0
   -4.3885   -8.1227   -4.9305 H   0  0  0  0  0  0  0  0  0  0  0  0
   -7.1970   -8.0064   -7.7728 H   0  0  0  0  0  0  0  0  0  0  0  0
   -7.8873   -8.3923   -6.2435 H   0  0  0  0  0  0  0  0  0  0  0  0
   -7.5473   -6.9405   -4.3583 H   0  0  0  0  0  0  0  0  0  0  0  0
   -5.8408   -7.1956   -4.3645 H   0  0  0  0  0  0  0  0  0  0  0  0
   -6.2201   -5.1599   -3.2515 H   0  0  0  0  0  0  0  0  0  0  0  0
   -5.3229   -4.8502   -4.7273 H   0  0  0  0  0  0  0  0  0  0  0  0
   -8.2046   -4.5087   -4.2873 H   0  0  0  0  0  0  0  0  0  0  0  0
   -8.3786   -3.6383   -6.4827 H   0  0  0  0  0  0  0  0  0  0  0  0
   -6.6541   -3.9018   -6.7140 H   0  0  0  0  0  0  0  0  0  0  0  0
   -7.9233   -5.7594   -7.7712 H   0  0  0  0  0  0  0  0  0  0  0  0
   -8.7777   -6.0875   -6.2805 H   0  0  0  0  0  0  0  0  0  0  0  0
   -7.1007   -3.3031   -4.4622 H   0  0  0  0  0  0  0  0  0  0  0  0
  1  5  1  0
  1  2  2  0
  1 21  1  0
  2  3  1  0
  3 20  1  0
  3  4  1  0
  4 19  1  0
  4  5  2  0
  5  6  1  0
  6  7  1  0
  6 22  1  0
  6 23  1  0
  7  8  1  0
  7 24  1  0
  7 25  1  0
  8 19  2  0
  8  9  1  0
  9 10  1  0
 10 11  2  0
 10 26  1  0
 11 12  1  0
 11 19  1  0
 12 13  1  0
 12 27  1  0
 12 28  1  0
 13 18  1  0
 13 14  1  0
 14 15  1  0
 14 29  1  0
 14 30  1  0
 15 16  1  0
 15 31  1  0
 15 32  1  0
 16 17  1  0
 16 33  1  0
 16 38  1  0
 17 18  1  0
 17 34  1  0
 17 35  1  0
 18 36  1  0
 18 37  1  0
M  CHG  1  16   1
M  END
>  <i_m_ct_stereo_status>  (136) 
1

>  <s_m_source_file>  (136) 
/var/tmp/pbs.5076255.sched01/tmpck0ladl8/45htcshi4i.sdf

>  <i_m_source_file_index>  (136) 
10

>  <i_lp_mmshare_version>  (136) 
48012

>  <i_f3d_flags>  (136) 
0

>  <s_epik_input>  (136) 
W25IXTFuW2NIXWMoYzEyKVtDSDJdW0NIMl1jM2MyYyhbY0hdbzMpW0NIMl1ONFtDSDJdW0NIMl1bTkhdW0NIMl1bQ0gyXTQ=

>  <s_epik_cmdline>  (136) 
J2VwaWtfcHl0aG9uJywgJy1waHQnLCAnMi4wJywgJy1waCcsICc3LjAnLCAnLXRuJywgJzgnLCAnLW1hJywgJzIwMCcsICctaW1hZScsICc8aW5maWxlLm1hZT4nLCAnLW9tYWUnLCAnPG91dGZpbGUubWFlPic=

>  <r_lp_tautomer_probability>  (136) 
0.5

>  <r_epik_Ionization_Penalty>  (136) 
0.0143395

>  <r_epik_Ionization_Penalty_Charging>  (136) 
0.00459023

>  <r_epik_Ionization_Penalty_Neutral>  (136) 
0.00974924

>  <r_epik_State_Penalty>  (136) 
0.602377

>  <r_epik_Charging_Adjusted_Penalty>  (136) 
0.606967

>  <i_epik_Tot_Q>  (136) 
1

>  <i_epik_Tot_abs_Q>  (136) 
1

>  <s_lp_Force_Field>  (136) 
OPLS3e

>  <r_lp_Energy>  (136) 
30.7565

>  <b_lp_Chiralities_Consistent>  (136) 
1

>  <s_lp_Variant>  (136) 
39:0-2

>  <s_i_glide_gridfile>  (136) 
pfpi4k_grid

>  <i_i_glide_lignum>  (136) 
10

>  <i_i_glide_rotatable_bonds>  (136) 
2

>  <r_i_docking_score>  (136) 
-4.85653

>  <r_i_glide_ligand_efficiency>  (136) 
-0.255607

>  <r_i_glide_ligand_efficiency_sa>  (136) 
-0.682061

>  <r_i_glide_ligand_efficiency_ln>  (136) 
-1.23123

>  <r_i_glide_gscore>  (136) 
-4.85653

>  <r_i_glide_lipo>  (136) 
-2.01893

>  <r_i_glide_hbond>  (136) 
0

>  <r_i_glide_metal>  (136) 
-0

>  <r_i_glide_rewards>  (136) 
-1.96595

>  <r_i_glide_evdw>  (136) 
-25.2069

>  <r_i_glide_ecoul>  (136) 
-0.914344

>  <r_i_glide_erotb>  (136) 
0.525846

>  <r_i_glide_esite>  (136) 
0

>  <r_i_glide_emodel>  (136) 
-35.8888

>  <r_i_glide_energy>  (136) 
-26.1212

>  <r_i_glide_einternal>  (136) 
3.10545

>  <r_i_glide_intrahb_reward>  (136) 
-0

>  <i_i_glide_confnum>  (136) 
5

>  <i_i_glide_posenum>  (136) 
5

>  <r_i_glide_eff_state_penalty>  (136) 
0

>  <ligand_id>  (136) 
39

>  <original_smiles>  (136) 
c1n[nH]c2c1CCc1occ(CN3CCNCC3)c1-2

>  <smiles>  (136) 
[H]c1nn([H])c2c1C([H])([H])C([H])([H])c1oc([H])c(C([H])([H])N3C([H])([H])C([H])([H])[N+]([H])([H])C([H])([H])C3([H])[H])c1-2

$$$$
39:1:1
     RDKit          3D

 38 41  0  0  1  0  0  0  0  0999 V2000
    0.7590   -7.6070    1.6867 C   0  0  0  0  0  0  0  0  0  0  0  0
    0.5890   -6.2937    1.5846 N   0  0  0  0  0  0  0  0  0  0  0  0
    1.8380   -5.7798    1.5682 N   0  0  0  0  0  0  0  0  0  0  0  0
    2.7882   -6.7563    1.6234 C   0  0  0  0  0  0  0  0  0  0  0  0
    2.1451   -7.9557    1.7131 C   0  0  0  0  0  0  0  0  0  0  0  0
    2.9176   -9.2875    1.8250 C   0  0  0  0  0  0  0  0  0  0  0  0
    4.3702   -9.1681    1.2560 C   0  0  0  0  0  0  0  0  0  0  0  0
    4.9218   -7.7672    1.4028 C   0  0  0  0  0  0  0  0  0  0  0  0
    6.2580   -7.5119    1.3005 O   0  0  0  0  0  0  0  0  0  0  0  0
    6.3614   -6.1462    1.3923 C   0  0  0  0  0  0  0  0  0  0  0  0
    5.1579   -5.5181    1.4911 C   0  0  0  0  0  0  0  0  0  0  0  0
    4.9095   -4.0194    1.5459 C   0  0  0  0  0  0  0  0  0  0  0  0
    4.5696   -3.3801    0.2705 N   0  0  0  0  0  0  0  0  0  0  0  0
    3.3011   -3.8819   -0.2499 C   0  0  0  0  0  0  0  0  0  0  0  0
    2.8884   -3.2461   -1.5749 C   0  0  0  0  0  0  0  0  0  0  0  0
    3.9445   -3.4544   -2.5690 N   0  0  0  0  0  0  0  0  0  0  0  0
    5.2135   -2.8889   -2.0598 C   0  0  0  0  0  0  0  0  0  0  0  0
    5.6285   -3.5512   -0.7225 C   0  0  0  0  0  0  0  0  0  0  0  0
    4.2283   -6.6138    1.5333 C   0  0  0  0  0  0  0  0  0  0  0  0
    2.0416   -4.7996    1.4767 H   0  0  0  0  0  0  0  0  0  0  0  0
   -0.0968   -8.2750    1.7603 H   0  0  0  0  0  0  0  0  0  0  0  0
    3.0160   -9.4780    2.8879 H   0  0  0  0  0  0  0  0  0  0  0  0
    2.3881  -10.1161    1.3793 H   0  0  0  0  0  0  0  0  0  0  0  0
    5.0450   -9.8778    1.7062 H   0  0  0  0  0  0  0  0  0  0  0  0
    4.3153   -9.3846    0.1907 H   0  0  0  0  0  0  0  0  0  0  0  0
    7.3878   -5.7981    1.3693 H   0  0  0  0  0  0  0  0  0  0  0  0
    4.1268   -3.8384    2.2790 H   0  0  0  0  0  0  0  0  0  0  0  0
    5.8096   -3.5351    1.9348 H   0  0  0  0  0  0  0  0  0  0  0  0
    3.3667   -4.9507   -0.4280 H   0  0  0  0  0  0  0  0  0  0  0  0
    2.5232   -3.6599    0.4786 H   0  0  0  0  0  0  0  0  0  0  0  0
    1.9866   -3.7478   -1.9248 H   0  0  0  0  0  0  0  0  0  0  0  0
    2.6441   -2.1876   -1.4266 H   0  0  0  0  0  0  0  0  0  0  0  0
    4.0201   -4.4531   -2.7084 H   0  0  0  0  0  0  0  0  0  0  0  0
    6.0051   -3.0457   -2.7943 H   0  0  0  0  0  0  0  0  0  0  0  0
    5.1081   -1.8054   -1.9054 H   0  0  0  0  0  0  0  0  0  0  0  0
    6.5467   -3.1125   -0.3209 H   0  0  0  0  0  0  0  0  0  0  0  0
    5.8142   -4.6066   -0.8917 H   0  0  0  0  0  0  0  0  0  0  0  0
    3.6635   -2.9893   -3.4225 H   0  0  0  0  0  0  0  0  0  0  0  0
  1  5  1  0
  1  2  2  0
  1 21  1  0
  2  3  1  0
  3 20  1  0
  3  4  1  0
  4 19  1  0
  4  5  2  0
  5  6  1  0
  6  7  1  0
  6 22  1  0
  6 23  1  0
  7  8  1  0
  7 24  1  0
  7 25  1  0
  8 19  2  0
  8  9  1  0
  9 10  1  0
 10 11  2  0
 10 26  1  0
 11 12  1  0
 11 19  1  0
 12 13  1  0
 12 27  1  0
 12 28  1  0
 13 18  1  0
 13 14  1  0
 14 15  1  0
 14 29  1  0
 14 30  1  0
 15 16  1  0
 15 31  1  0
 15 32  1  0
 16 17  1  0
 16 33  1  0
 16 38  1  0
 17 18  1  0
 17 34  1  0
 17 35  1  0
 18 36  1  0
 18 37  1  0
M  CHG  1  16   1
M  END
>  <i_m_ct_stereo_status>  (137) 
1

>  <s_m_source_file>  (137) 
/var/tmp/pbs.5076255.sched01/tmpck0ladl8/45htcshi4i.sdf

>  <i_m_source_file_index>  (137) 
10

>  <i_lp_mmshare_version>  (137) 
48012

>  <i_f3d_flags>  (137) 
0

>  <s_epik_input>  (137) 
W25IXTFuW2NIXWMoYzEyKVtDSDJdW0NIMl1jM2MyYyhbY0hdbzMpW0NIMl1ONFtDSDJdW0NIMl1bTkhdW0NIMl1bQ0gyXTQ=

>  <s_epik_cmdline>  (137) 
J2VwaWtfcHl0aG9uJywgJy1waHQnLCAnMi4wJywgJy1waCcsICc3LjAnLCAnLXRuJywgJzgnLCAnLW1hJywgJzIwMCcsICctaW1hZScsICc8aW5maWxlLm1hZT4nLCAnLW9tYWUnLCAnPG91dGZpbGUubWFlPic=

>  <r_lp_tautomer_probability>  (137) 
0.5

>  <r_epik_Ionization_Penalty>  (137) 
0.0143395

>  <r_epik_Ionization_Penalty_Charging>  (137) 
0.00459023

>  <r_epik_Ionization_Penalty_Neutral>  (137) 
0.00974924

>  <r_epik_State_Penalty>  (137) 
0.602377

>  <r_epik_Charging_Adjusted_Penalty>  (137) 
0.606967

>  <i_epik_Tot_Q>  (137) 
1

>  <i_epik_Tot_abs_Q>  (137) 
1

>  <s_lp_Force_Field>  (137) 
OPLS3e

>  <r_lp_Energy>  (137) 
30.7565

>  <b_lp_Chiralities_Consistent>  (137) 
1

>  <s_lp_Variant>  (137) 
39:0-2

>  <s_i_glide_gridfile>  (137) 
pfpi4k_grid

>  <i_i_glide_lignum>  (137) 
10

>  <i_i_glide_rotatable_bonds>  (137) 
2

>  <r_i_docking_score>  (137) 
-4.42779

>  <r_i_glide_ligand_efficiency>  (137) 
-0.233041

>  <r_i_glide_ligand_efficiency_sa>  (137) 
-0.621848

>  <r_i_glide_ligand_efficiency_ln>  (137) 
-1.12254

>  <r_i_glide_gscore>  (137) 
-4.42779

>  <r_i_glide_lipo>  (137) 
-0.570994

>  <r_i_glide_hbond>  (137) 
-0.16

>  <r_i_glide_metal>  (137) 
-0

>  <r_i_glide_rewards>  (137) 
-1.64095

>  <r_i_glide_evdw>  (137) 
-22.0415

>  <r_i_glide_ecoul>  (137) 
-9.24475

>  <r_i_glide_erotb>  (137) 
0.525846

>  <r_i_glide_esite>  (137) 
-0.0929026

>  <r_i_glide_emodel>  (137) 
-39.5095

>  <r_i_glide_energy>  (137) 
-31.2862

>  <r_i_glide_einternal>  (137) 
4.83439

>  <r_i_glide_intrahb_reward>  (137) 
-0

>  <i_i_glide_confnum>  (137) 
6

>  <i_i_glide_posenum>  (137) 
18

>  <r_i_glide_eff_state_penalty>  (137) 
0

>  <ligand_id>  (137) 
39

>  <original_smiles>  (137) 
c1n[nH]c2c1CCc1occ(CN3CCNCC3)c1-2

>  <smiles>  (137) 
[H]c1nn([H])c2c1C([H])([H])C([H])([H])c1oc([H])c(C([H])([H])N3C([H])([H])C([H])([H])[N+]([H])([H])C([H])([H])C3([H])[H])c1-2

$$$$
39:1:2
     RDKit          3D

 38 41  0  0  1  0  0  0  0  0999 V2000
   -3.1327    3.1983   10.3766 C   0  0  0  0  0  0  0  0  0  0  0  0
   -3.7967    3.3454    9.2302 N   0  0  0  0  0  0  0  0  0  0  0  0
   -2.8852    3.0682    8.2670 N   0  0  0  0  0  0  0  0  0  0  0  0
   -1.6674    2.7491    8.8178 C   0  0  0  0  0  0  0  0  0  0  0  0
   -1.7774    2.8162   10.1700 C   0  0  0  0  0  0  0  0  0  0  0  0
   -0.6269    2.5339   11.1245 C   0  0  0  0  0  0  0  0  0  0  0  0
    0.4755    1.6616   10.4525 C   0  0  0  0  0  0  0  0  0  0  0  0
    0.5198    1.8732    8.9744 C   0  0  0  0  0  0  0  0  0  0  0  0
    1.6052    1.5199    8.2620 O   0  0  0  0  0  0  0  0  0  0  0  0
    1.3014    1.8340    6.9670 C   0  0  0  0  0  0  0  0  0  0  0  0
    0.0330    2.3457    6.8118 C   0  0  0  0  0  0  0  0  0  0  0  0
   -0.6703    2.7940    5.5438 C   0  0  0  0  0  0  0  0  0  0  0  0
   -0.2815    2.0407    4.3523 N   0  0  0  0  0  0  0  0  0  0  0  0
    0.9620    2.5791    3.7774 C   0  0  0  0  0  0  0  0  0  0  0  0
    1.3970    1.7335    2.5705 C   0  0  0  0  0  0  0  0  0  0  0  0
    0.3328    1.7388    1.5529 N   0  0  0  0  0  0  0  0  0  0  0  0
   -0.9408    1.2702    2.1135 C   0  0  0  0  0  0  0  0  0  0  0  0
   -1.3396    2.1133    3.3394 C   0  0  0  0  0  0  0  0  0  0  0  0
   -0.4484    2.3482    8.1530 C   0  0  0  0  0  0  0  0  0  0  0  0
   -3.1185    3.0773    7.2875 H   0  0  0  0  0  0  0  0  0  0  0  0
   -3.6447    3.3589   11.3105 H   0  0  0  0  0  0  0  0  0  0  0  0
   -0.1627    3.4856   11.3747 H   0  0  0  0  0  0  0  0  0  0  0  0
   -0.9528    2.0927   12.0653 H   0  0  0  0  0  0  0  0  0  0  0  0
    1.4569    1.8210   10.8963 H   0  0  0  0  0  0  0  0  0  0  0  0
    0.2204    0.6146   10.6166 H   0  0  0  0  0  0  0  0  0  0  0  0
    2.1289    1.6303    6.3045 H   0  0  0  0  0  0  0  0  0  0  0  0
   -1.7423    2.6952    5.7149 H   0  0  0  0  0  0  0  0  0  0  0  0
   -0.4862    3.8552    5.3765 H   0  0  0  0  0  0  0  0  0  0  0  0
    0.8174    3.6184    3.4892 H   0  0  0  0  0  0  0  0  0  0  0  0
    1.7762    2.5636    4.4937 H   0  0  0  0  0  0  0  0  0  0  0  0
    2.3069    2.1545    2.1444 H   0  0  0  0  0  0  0  0  0  0  0  0
    1.6290    0.7073    2.8716 H   0  0  0  0  0  0  0  0  0  0  0  0
    0.2085    2.7182    1.2426 H   0  0  0  0  0  0  0  0  0  0  0  0
   -1.7016    1.3368    1.3361 H   0  0  0  0  0  0  0  0  0  0  0  0
   -0.8435    0.2157    2.3830 H   0  0  0  0  0  0  0  0  0  0  0  0
   -2.2669    1.7078    3.7467 H   0  0  0  0  0  0  0  0  0  0  0  0
   -1.5371    3.1436    3.0521 H   0  0  0  0  0  0  0  0  0  0  0  0
    0.5802    1.1639    0.7538 H   0  0  0  0  0  0  0  0  0  0  0  0
  1  5  1  0
  1  2  2  0
  1 21  1  0
  2  3  1  0
  3 20  1  0
  3  4  1  0
  4 19  1  0
  4  5  2  0
  5  6  1  0
  6  7  1  0
  6 22  1  0
  6 23  1  0
  7  8  1  0
  7 24  1  0
  7 25  1  0
  8 19  2  0
  8  9  1  0
  9 10  1  0
 10 11  2  0
 10 26  1  0
 11 12  1  0
 11 19  1  0
 12 13  1  0
 12 27  1  0
 12 28  1  0
 13 18  1  0
 13 14  1  0
 14 15  1  0
 14 29  1  0
 14 30  1  0
 15 16  1  0
 15 31  1  0
 15 32  1  0
 16 17  1  0
 16 33  1  0
 16 38  1  0
 17 18  1  0
 17 34  1  0
 17 35  1  0
 18 36  1  0
 18 37  1  0
M  CHG  1  16   1
M  END
>  <i_m_ct_stereo_status>  (138) 
1

>  <s_m_source_file>  (138) 
/var/tmp/pbs.5076255.sched01/tmpck0ladl8/45htcshi4i.sdf

>  <i_m_source_file_index>  (138) 
10

>  <i_lp_mmshare_version>  (138) 
48012

>  <i_f3d_flags>  (138) 
0

>  <s_epik_input>  (138) 
W25IXTFuW2NIXWMoYzEyKVtDSDJdW0NIMl1jM2MyYyhbY0hdbzMpW0NIMl1ONFtDSDJdW0NIMl1bTkhdW0NIMl1bQ0gyXTQ=

>  <s_epik_cmdline>  (138) 
J2VwaWtfcHl0aG9uJywgJy1waHQnLCAnMi4wJywgJy1waCcsICc3LjAnLCAnLXRuJywgJzgnLCAnLW1hJywgJzIwMCcsICctaW1hZScsICc8aW5maWxlLm1hZT4nLCAnLW9tYWUnLCAnPG91dGZpbGUubWFlPic=

>  <r_lp_tautomer_probability>  (138) 
0.5

>  <r_epik_Ionization_Penalty>  (138) 
0.0143395

>  <r_epik_Ionization_Penalty_Charging>  (138) 
0.00459023

>  <r_epik_Ionization_Penalty_Neutral>  (138) 
0.00974924

>  <r_epik_State_Penalty>  (138) 
0.602377

>  <r_epik_Charging_Adjusted_Penalty>  (138) 
0.606967

>  <i_epik_Tot_Q>  (138) 
1

>  <i_epik_Tot_abs_Q>  (138) 
1

>  <s_lp_Force_Field>  (138) 
OPLS3e

>  <r_lp_Energy>  (138) 
30.7565

>  <b_lp_Chiralities_Consistent>  (138) 
1

>  <s_lp_Variant>  (138) 
39:0-2

>  <s_i_glide_gridfile>  (138) 
pfpi4k_grid

>  <i_i_glide_lignum>  (138) 
10

>  <i_i_glide_rotatable_bonds>  (138) 
2

>  <r_i_docking_score>  (138) 
-3.42874

>  <r_i_glide_ligand_efficiency>  (138) 
-0.18046

>  <r_i_glide_ligand_efficiency_sa>  (138) 
-0.481539

>  <r_i_glide_ligand_efficiency_ln>  (138) 
-0.869259

>  <r_i_glide_gscore>  (138) 
-3.42874

>  <r_i_glide_lipo>  (138) 
0

>  <r_i_glide_hbond>  (138) 
-0.20148

>  <r_i_glide_metal>  (138) 
-0

>  <r_i_glide_rewards>  (138) 
-1.64095

>  <r_i_glide_evdw>  (138) 
-19.0129

>  <r_i_glide_ecoul>  (138) 
-7.21665

>  <r_i_glide_erotb>  (138) 
0.525846

>  <r_i_glide_esite>  (138) 
-0.0790066

>  <r_i_glide_emodel>  (138) 
-33.8031

>  <r_i_glide_energy>  (138) 
-26.2296

>  <r_i_glide_einternal>  (138) 
1.95526

>  <r_i_glide_intrahb_reward>  (138) 
-0

>  <i_i_glide_confnum>  (138) 
5

>  <i_i_glide_posenum>  (138) 
2

>  <r_i_glide_eff_state_penalty>  (138) 
0

>  <ligand_id>  (138) 
39

>  <original_smiles>  (138) 
c1n[nH]c2c1CCc1occ(CN3CCNCC3)c1-2

>  <smiles>  (138) 
[H]c1nn([H])c2c1C([H])([H])C([H])([H])c1oc([H])c(C([H])([H])N3C([H])([H])C([H])([H])[N+]([H])([H])C([H])([H])C3([H])[H])c1-2

$$$$
39:2:0
     RDKit          3D

 38 41  0  0  1  0  0  0  0  0999 V2000
    0.8619   -7.8054    1.8537 C   0  0  0  0  0  0  0  0  0  0  0  0
    0.4444   -6.5450    1.6810 N   0  0  0  0  0  0  0  0  0  0  0  0
    1.5896   -5.8564    1.4416 N   0  0  0  0  0  0  0  0  0  0  0  0
    2.6903   -6.6736    1.4447 C   0  0  0  0  0  0  0  0  0  0  0  0
    2.2739   -7.9389    1.7043 C   0  0  0  0  0  0  0  0  0  0  0  0
    3.2315   -9.1185    1.7594 C   0  0  0  0  0  0  0  0  0  0  0  0
    4.7038   -8.6605    2.0404 C   0  0  0  0  0  0  0  0  0  0  0  0
    4.9764   -7.2815    1.5192 C   0  0  0  0  0  0  0  0  0  0  0  0
    6.2293   -6.8191    1.3115 O   0  0  0  0  0  0  0  0  0  0  0  0
    6.0763   -5.5386    0.8488 C   0  0  0  0  0  0  0  0  0  0  0  0
    4.7612   -5.1526    0.8057 C   0  0  0  0  0  0  0  0  0  0  0  0
    4.2047   -3.8312    0.3589 C   0  0  0  0  0  0  0  0  0  0  0  0
    3.9743   -3.8202   -1.1082 N   0  0  0  0  0  0  0  0  0  0  0  0
    5.1975   -3.5210   -1.8889 C   0  0  0  0  0  0  0  0  0  0  0  0
    4.9081   -3.5631   -3.3966 C   0  0  0  0  0  0  0  0  0  0  0  0
    3.8715   -2.6000   -3.7578 N   0  0  0  0  0  0  0  0  0  0  0  0
    2.6494   -2.9325   -3.0270 C   0  0  0  0  0  0  0  0  0  0  0  0
    2.9010   -2.8833   -1.5060 C   0  0  0  0  0  0  0  0  0  0  0  0
    4.0729   -6.3105    1.2526 C   0  0  0  0  0  0  0  0  0  0  0  0
    1.6239   -4.8535    1.3598 H   0  0  0  0  0  0  0  0  0  0  0  0
    0.1434   -8.5775    2.0778 H   0  0  0  0  0  0  0  0  0  0  0  0
    2.9190   -9.8858    2.4654 H   0  0  0  0  0  0  0  0  0  0  0  0
    3.2284   -9.5926    0.7793 H   0  0  0  0  0  0  0  0  0  0  0  0
    4.8345   -8.6244    3.1235 H   0  0  0  0  0  0  0  0  0  0  0  0
    5.4278   -9.3761    1.6541 H   0  0  0  0  0  0  0  0  0  0  0  0
    7.0074   -5.0539    0.5854 H   0  0  0  0  0  0  0  0  0  0  0  0
    3.2822   -3.6526    0.9111 H   0  0  0  0  0  0  0  0  0  0  0  0
    4.8826   -3.0215    0.6421 H   0  0  0  0  0  0  0  0  0  0  0  0
    5.5915   -2.5436   -1.6138 H   0  0  0  0  0  0  0  0  0  0  0  0
    5.9720   -4.2466   -1.6532 H   0  0  0  0  0  0  0  0  0  0  0  0
    5.8291   -3.3134   -3.9155 H   0  0  0  0  0  0  0  0  0  0  0  0
    4.6280   -4.5679   -3.7128 H   0  0  0  0  0  0  0  0  0  0  0  0
    4.1527   -1.6614   -3.5081 H   0  0  0  0  0  0  0  0  0  0  0  0
    1.8841   -2.2007   -3.2883 H   0  0  0  0  0  0  0  0  0  0  0  0
    2.2645   -3.9060   -3.3336 H   0  0  0  0  0  0  0  0  0  0  0  0
    1.9763   -3.1422   -0.9920 H   0  0  0  0  0  0  0  0  0  0  0  0
    3.1538   -1.8681   -1.1990 H   0  0  0  0  0  0  0  0  0  0  0  0
    3.6590   -4.7344   -1.4143 H   0  0  0  0  0  0  0  0  0  0  0  0
  1  5  1  0
  1  2  2  0
  1 21  1  0
  2  3  1  0
  3 20  1  0
  3  4  1  0
  4 19  1  0
  4  5  2  0
  5  6  1  0
  6  7  1  0
  6 22  1  0
  6 23  1  0
  7  8  1  0
  7 24  1  0
  7 25  1  0
  8 19  2  0
  8  9  1  0
  9 10  1  0
 10 11  2  0
 10 26  1  0
 11 12  1  0
 11 19  1  0
 12 13  1  0
 12 27  1  0
 12 28  1  0
 13 18  1  0
 13 14  1  0
 13 38  1  0
 14 15  1  0
 14 29  1  0
 14 30  1  0
 15 16  1  0
 15 31  1  0
 15 32  1  0
 16 17  1  0
 16 33  1  0
 17 18  1  0
 17 34  1  0
 17 35  1  0
 18 36  1  0
 18 37  1  0
M  CHG  1  13   1
M  END
>  <i_m_ct_stereo_status>  (139) 
1

>  <s_m_source_file>  (139) 
/var/tmp/pbs.5076255.sched01/tmpck0ladl8/45htcshi4i.sdf

>  <i_m_source_file_index>  (139) 
11

>  <i_lp_mmshare_version>  (139) 
48012

>  <i_f3d_flags>  (139) 
0

>  <s_epik_input>  (139) 
W25IXTFuW2NIXWMoYzEyKVtDSDJdW0NIMl1jM2MyYyhbY0hdbzMpW0NIMl1ONFtDSDJdW0NIMl1bTkhdW0NIMl1bQ0gyXTQ=

>  <s_epik_cmdline>  (139) 
J2VwaWtfcHl0aG9uJywgJy1waHQnLCAnMi4wJywgJy1waCcsICc3LjAnLCAnLXRuJywgJzgnLCAnLW1hJywgJzIwMCcsICctaW1hZScsICc8aW5maWxlLm1hZT4nLCAnLW9tYWUnLCAnPG91dGZpbGUubWFlPic=

>  <r_epik_Ionization_Penalty>  (139) 
0.0348418

>  <r_epik_Ionization_Penalty_Charging>  (139) 
0.0135773

>  <r_epik_Ionization_Penalty_Neutral>  (139) 
0.0212645

>  <r_epik_State_Penalty>  (139) 
1.2003

>  <r_epik_Charging_Adjusted_Penalty>  (139) 
1.21388

>  <i_epik_Tot_Q>  (139) 
1

>  <i_epik_Tot_abs_Q>  (139) 
1

>  <s_lp_Force_Field>  (139) 
OPLS3e

>  <r_lp_Energy>  (139) 
26.1896

>  <b_lp_Chiralities_Consistent>  (139) 
1

>  <s_lp_Variant>  (139) 
39:0-3

>  <s_i_glide_gridfile>  (139) 
pfpi4k_grid

>  <i_i_glide_lignum>  (139) 
11

>  <i_i_glide_rotatable_bonds>  (139) 
2

>  <r_i_docking_score>  (139) 
-4.78685

>  <r_i_glide_ligand_efficiency>  (139) 
-0.251939

>  <r_i_glide_ligand_efficiency_sa>  (139) 
-0.672275

>  <r_i_glide_ligand_efficiency_ln>  (139) 
-1.21357

>  <r_i_glide_gscore>  (139) 
-4.78685

>  <r_i_glide_lipo>  (139) 
-0.674865

>  <r_i_glide_hbond>  (139) 
-0.121463

>  <r_i_glide_metal>  (139) 
-0

>  <r_i_glide_rewards>  (139) 
-1.64095

>  <r_i_glide_evdw>  (139) 
-25.2581

>  <r_i_glide_ecoul>  (139) 
-10.1198

>  <r_i_glide_erotb>  (139) 
0.525846

>  <r_i_glide_esite>  (139) 
-0.0945326

>  <r_i_glide_emodel>  (139) 
-45.9531

>  <r_i_glide_energy>  (139) 
-35.3779

>  <r_i_glide_einternal>  (139) 
0.615598

>  <r_i_glide_intrahb_reward>  (139) 
-0

>  <i_i_glide_confnum>  (139) 
5

>  <i_i_glide_posenum>  (139) 
1

>  <r_i_glide_eff_state_penalty>  (139) 
0

>  <ligand_id>  (139) 
39

>  <original_smiles>  (139) 
c1n[nH]c2c1CCc1occ(CN3CCNCC3)c1-2

>  <smiles>  (139) 
[H]c1nn([H])c2c1C([H])([H])C([H])([H])c1oc([H])c(C([H])([H])[N+]3([H])C([H])([H])C([H])([H])N([H])C([H])([H])C3([H])[H])c1-2

$$$$
39:2:1
     RDKit          3D

 38 41  0  0  1  0  0  0  0  0999 V2000
    1.7591   -3.6593    3.3148 C   0  0  0  0  0  0  0  0  0  0  0  0
    1.8735   -2.4254    2.8283 N   0  0  0  0  0  0  0  0  0  0  0  0
    3.0178   -2.4521    2.1012 N   0  0  0  0  0  0  0  0  0  0  0  0
    3.6132   -3.6927    2.1576 C   0  0  0  0  0  0  0  0  0  0  0  0
    2.8278   -4.5074    2.9138 C   0  0  0  0  0  0  0  0  0  0  0  0
    3.1515   -5.9716    3.1722 C   0  0  0  0  0  0  0  0  0  0  0  0
    4.6717   -6.2764    2.9672 C   0  0  0  0  0  0  0  0  0  0  0  0
    5.2979   -5.3545    1.9640 C   0  0  0  0  0  0  0  0  0  0  0  0
    6.4627   -5.6514    1.3420 O   0  0  0  0  0  0  0  0  0  0  0  0
    6.7174   -4.5862    0.5187 C   0  0  0  0  0  0  0  0  0  0  0  0
    5.7692   -3.5994    0.6251 C   0  0  0  0  0  0  0  0  0  0  0  0
    5.7019   -2.3048   -0.1277 C   0  0  0  0  0  0  0  0  0  0  0  0
    4.7283   -2.3763   -1.2426 N   0  0  0  0  0  0  0  0  0  0  0  0
    5.1082   -3.3384   -2.3089 C   0  0  0  0  0  0  0  0  0  0  0  0
    4.0268   -3.3990   -3.3983 C   0  0  0  0  0  0  0  0  0  0  0  0
    3.7985   -2.0797   -3.9745 N   0  0  0  0  0  0  0  0  0  0  0  0
    3.4059   -1.1330   -2.9374 C   0  0  0  0  0  0  0  0  0  0  0  0
    4.4802   -1.0482   -1.8417 C   0  0  0  0  0  0  0  0  0  0  0  0
    4.8599   -4.1302    1.5769 C   0  0  0  0  0  0  0  0  0  0  0  0
    3.3704   -1.6258    1.6411 H   0  0  0  0  0  0  0  0  0  0  0  0
    0.9105   -3.8977    3.9341 H   0  0  0  0  0  0  0  0  0  0  0  0
    2.8090   -6.3076    4.1491 H   0  0  0  0  0  0  0  0  0  0  0  0
    2.6084   -6.5671    2.4400 H   0  0  0  0  0  0  0  0  0  0  0  0
    5.1694   -6.0943    3.9200 H   0  0  0  0  0  0  0  0  0  0  0  0
    4.8446   -7.3220    2.7156 H   0  0  0  0  0  0  0  0  0  0  0  0
    7.6037   -4.7041   -0.0852 H   0  0  0  0  0  0  0  0  0  0  0  0
    5.4446   -1.5101    0.5756 H   0  0  0  0  0  0  0  0  0  0  0  0
    6.6932   -2.0652   -0.5198 H   0  0  0  0  0  0  0  0  0  0  0  0
    6.0670   -3.0554   -2.7426 H   0  0  0  0  0  0  0  0  0  0  0  0
    5.2283   -4.3406   -1.9032 H   0  0  0  0  0  0  0  0  0  0  0  0
    4.3566   -4.0737   -4.1903 H   0  0  0  0  0  0  0  0  0  0  0  0
    3.0961   -3.8084   -3.0009 H   0  0  0  0  0  0  0  0  0  0  0  0
    3.0179   -2.1432   -4.6215 H   0  0  0  0  0  0  0  0  0  0  0  0
    3.2798   -0.1531   -3.4022 H   0  0  0  0  0  0  0  0  0  0  0  0
    2.4378   -1.4134   -2.5182 H   0  0  0  0  0  0  0  0  0  0  0  0
    4.1581   -0.3515   -1.0686 H   0  0  0  0  0  0  0  0  0  0  0  0
    5.4028   -0.6433   -2.2564 H   0  0  0  0  0  0  0  0  0  0  0  0
    3.8419   -2.6929   -0.8770 H   0  0  0  0  0  0  0  0  0  0  0  0
  1  5  1  0
  1  2  2  0
  1 21  1  0
  2  3  1  0
  3 20  1  0
  3  4  1  0
  4 19  1  0
  4  5  2  0
  5  6  1  0
  6  7  1  0
  6 22  1  0
  6 23  1  0
  7  8  1  0
  7 24  1  0
  7 25  1  0
  8 19  2  0
  8  9  1  0
  9 10  1  0
 10 11  2  0
 10 26  1  0
 11 12  1  0
 11 19  1  0
 12 13  1  0
 12 27  1  0
 12 28  1  0
 13 18  1  0
 13 14  1  0
 13 38  1  0
 14 15  1  0
 14 29  1  0
 14 30  1  0
 15 16  1  0
 15 31  1  0
 15 32  1  0
 16 17  1  0
 16 33  1  0
 17 18  1  0
 17 34  1  0
 17 35  1  0
 18 36  1  0
 18 37  1  0
M  CHG  1  13   1
M  END
>  <i_m_ct_stereo_status>  (140) 
1

>  <s_m_source_file>  (140) 
/var/tmp/pbs.5076255.sched01/tmpck0ladl8/45htcshi4i.sdf

>  <i_m_source_file_index>  (140) 
11

>  <i_lp_mmshare_version>  (140) 
48012

>  <i_f3d_flags>  (140) 
0

>  <s_epik_input>  (140) 
W25IXTFuW2NIXWMoYzEyKVtDSDJdW0NIMl1jM2MyYyhbY0hdbzMpW0NIMl1ONFtDSDJdW0NIMl1bTkhdW0NIMl1bQ0gyXTQ=

>  <s_epik_cmdline>  (140) 
J2VwaWtfcHl0aG9uJywgJy1waHQnLCAnMi4wJywgJy1waCcsICc3LjAnLCAnLXRuJywgJzgnLCAnLW1hJywgJzIwMCcsICctaW1hZScsICc8aW5maWxlLm1hZT4nLCAnLW9tYWUnLCAnPG91dGZpbGUubWFlPic=

>  <r_epik_Ionization_Penalty>  (140) 
0.0348418

>  <r_epik_Ionization_Penalty_Charging>  (140) 
0.0135773

>  <r_epik_Ionization_Penalty_Neutral>  (140) 
0.0212645

>  <r_epik_State_Penalty>  (140) 
1.2003

>  <r_epik_Charging_Adjusted_Penalty>  (140) 
1.21388

>  <i_epik_Tot_Q>  (140) 
1

>  <i_epik_Tot_abs_Q>  (140) 
1

>  <s_lp_Force_Field>  (140) 
OPLS3e

>  <r_lp_Energy>  (140) 
26.1896

>  <b_lp_Chiralities_Consistent>  (140) 
1

>  <s_lp_Variant>  (140) 
39:0-3

>  <s_i_glide_gridfile>  (140) 
pfpi4k_grid

>  <i_i_glide_lignum>  (140) 
11

>  <i_i_glide_rotatable_bonds>  (140) 
2

>  <r_i_docking_score>  (140) 
-3.63564

>  <r_i_glide_ligand_efficiency>  (140) 
-0.191349

>  <r_i_glide_ligand_efficiency_sa>  (140) 
-0.510597

>  <r_i_glide_ligand_efficiency_ln>  (140) 
-0.921712

>  <r_i_glide_gscore>  (140) 
-3.63564

>  <r_i_glide_lipo>  (140) 
-0.548312

>  <r_i_glide_hbond>  (140) 
-0.228348

>  <r_i_glide_metal>  (140) 
-0

>  <r_i_glide_rewards>  (140) 
-1.64095

>  <r_i_glide_evdw>  (140) 
-22.8124

>  <r_i_glide_ecoul>  (140) 
-3.85496

>  <r_i_glide_erotb>  (140) 
0.525846

>  <r_i_glide_esite>  (140) 
-0.0250092

>  <r_i_glide_emodel>  (140) 
-34.8347

>  <r_i_glide_energy>  (140) 
-26.6673

>  <r_i_glide_einternal>  (140) 
0.0940677

>  <r_i_glide_intrahb_reward>  (140) 
-0

>  <i_i_glide_confnum>  (140) 
3

>  <i_i_glide_posenum>  (140) 
14

>  <r_i_glide_eff_state_penalty>  (140) 
0

>  <ligand_id>  (140) 
39

>  <original_smiles>  (140) 
c1n[nH]c2c1CCc1occ(CN3CCNCC3)c1-2

>  <smiles>  (140) 
[H]c1nn([H])c2c1C([H])([H])C([H])([H])c1oc([H])c(C([H])([H])[N+]3([H])C([H])([H])C([H])([H])N([H])C([H])([H])C3([H])[H])c1-2

$$$$
39:2:2
     RDKit          3D

 38 41  0  0  1  0  0  0  0  0999 V2000
    0.7284   -0.8734    4.0056 C   0  0  0  0  0  0  0  0  0  0  0  0
    0.4132   -0.2297    2.8865 N   0  0  0  0  0  0  0  0  0  0  0  0
    1.4815   -0.4073    2.0785 N   0  0  0  0  0  0  0  0  0  0  0  0
    2.4656   -1.1398    2.7046 C   0  0  0  0  0  0  0  0  0  0  0  0
    2.0163   -1.4743    3.9413 C   0  0  0  0  0  0  0  0  0  0  0  0
    2.8206   -2.3055    4.9297 C   0  0  0  0  0  0  0  0  0  0  0  0
    4.3505   -2.2504    4.6224 C   0  0  0  0  0  0  0  0  0  0  0  0
    4.6082   -2.0383    3.1624 C   0  0  0  0  0  0  0  0  0  0  0  0
    5.8170   -2.3025    2.6271 O   0  0  0  0  0  0  0  0  0  0  0  0
    5.7144   -1.9656    1.3136 C   0  0  0  0  0  0  0  0  0  0  0  0
    4.4660   -1.4905    0.9825 C   0  0  0  0  0  0  0  0  0  0  0  0
    3.9647   -1.0450   -0.3662 C   0  0  0  0  0  0  0  0  0  0  0  0
    3.9008   -2.1436   -1.3543 N   0  0  0  0  0  0  0  0  0  0  0  0
    5.2361   -2.7007   -1.6805 C   0  0  0  0  0  0  0  0  0  0  0  0
    5.1094   -3.8358   -2.6771 C   0  0  0  0  0  0  0  0  0  0  0  0
    4.4340   -3.4516   -3.9039 N   0  0  0  0  0  0  0  0  0  0  0  0
    3.1111   -2.9306   -3.5866 C   0  0  0  0  0  0  0  0  0  0  0  0
    3.2198   -1.7397   -2.6095 C   0  0  0  0  0  0  0  0  0  0  0  0
    3.7811   -1.5105    2.2256 C   0  0  0  0  0  0  0  0  0  0  0  0
    1.4983   -0.0507    1.1327 H   0  0  0  0  0  0  0  0  0  0  0  0
    0.0226   -0.8948    4.8191 H   0  0  0  0  0  0  0  0  0  0  0  0
    2.6308   -2.0297    5.9686 H   0  0  0  0  0  0  0  0  0  0  0  0
    2.5176   -3.3484    4.8217 H   0  0  0  0  0  0  0  0  0  0  0  0
    4.7762   -1.3894    5.1444 H   0  0  0  0  0  0  0  0  0  0  0  0
    4.8766   -3.1355    4.9872 H   0  0  0  0  0  0  0  0  0  0  0  0
    6.6279   -2.1461    0.7528 H   0  0  0  0  0  0  0  0  0  0  0  0
    2.9660   -0.6503   -0.2363 H   0  0  0  0  0  0  0  0  0  0  0  0
    4.5894   -0.2423   -0.7573 H   0  0  0  0  0  0  0  0  0  0  0  0
    5.8735   -1.9120   -2.1017 H   0  0  0  0  0  0  0  0  0  0  0  0
    5.7239   -3.1330   -0.8104 H   0  0  0  0  0  0  0  0  0  0  0  0
    6.1099   -4.1877   -2.9132 H   0  0  0  0  0  0  0  0  0  0  0  0
    4.5982   -4.6648   -2.1976 H   0  0  0  0  0  0  0  0  0  0  0  0
    4.3371   -4.2947   -4.4569 H   0  0  0  0  0  0  0  0  0  0  0  0
    2.6503   -2.6006   -4.5252 H   0  0  0  0  0  0  0  0  0  0  0  0
    2.4802   -3.7232   -3.1729 H   0  0  0  0  0  0  0  0  0  0  0  0
    2.2176   -1.3706   -2.3879 H   0  0  0  0  0  0  0  0  0  0  0  0
    3.7453   -0.9129   -3.0799 H   0  0  0  0  0  0  0  0  0  0  0  0
    3.3410   -2.8899   -0.9684 H   0  0  0  0  0  0  0  0  0  0  0  0
  1  5  1  0
  1  2  2  0
  1 21  1  0
  2  3  1  0
  3 20  1  0
  3  4  1  0
  4 19  1  0
  4  5  2  0
  5  6  1  0
  6  7  1  0
  6 22  1  0
  6 23  1  0
  7  8  1  0
  7 24  1  0
  7 25  1  0
  8 19  2  0
  8  9  1  0
  9 10  1  0
 10 11  2  0
 10 26  1  0
 11 12  1  0
 11 19  1  0
 12 13  1  0
 12 27  1  0
 12 28  1  0
 13 18  1  0
 13 14  1  0
 13 38  1  0
 14 15  1  0
 14 29  1  0
 14 30  1  0
 15 16  1  0
 15 31  1  0
 15 32  1  0
 16 17  1  0
 16 33  1  0
 17 18  1  0
 17 34  1  0
 17 35  1  0
 18 36  1  0
 18 37  1  0
M  CHG  1  13   1
M  END
>  <i_m_ct_stereo_status>  (141) 
1

>  <s_m_source_file>  (141) 
/var/tmp/pbs.5076255.sched01/tmpck0ladl8/45htcshi4i.sdf

>  <i_m_source_file_index>  (141) 
11

>  <i_lp_mmshare_version>  (141) 
48012

>  <i_f3d_flags>  (141) 
0

>  <s_epik_input>  (141) 
W25IXTFuW2NIXWMoYzEyKVtDSDJdW0NIMl1jM2MyYyhbY0hdbzMpW0NIMl1ONFtDSDJdW0NIMl1bTkhdW0NIMl1bQ0gyXTQ=

>  <s_epik_cmdline>  (141) 
J2VwaWtfcHl0aG9uJywgJy1waHQnLCAnMi4wJywgJy1waCcsICc3LjAnLCAnLXRuJywgJzgnLCAnLW1hJywgJzIwMCcsICctaW1hZScsICc8aW5maWxlLm1hZT4nLCAnLW9tYWUnLCAnPG91dGZpbGUubWFlPic=

>  <r_epik_Ionization_Penalty>  (141) 
0.0348418

>  <r_epik_Ionization_Penalty_Charging>  (141) 
0.0135773

>  <r_epik_Ionization_Penalty_Neutral>  (141) 
0.0212645

>  <r_epik_State_Penalty>  (141) 
1.2003

>  <r_epik_Charging_Adjusted_Penalty>  (141) 
1.21388

>  <i_epik_Tot_Q>  (141) 
1

>  <i_epik_Tot_abs_Q>  (141) 
1

>  <s_lp_Force_Field>  (141) 
OPLS3e

>  <r_lp_Energy>  (141) 
26.1896

>  <b_lp_Chiralities_Consistent>  (141) 
1

>  <s_lp_Variant>  (141) 
39:0-3

>  <s_i_glide_gridfile>  (141) 
pfpi4k_grid

>  <i_i_glide_lignum>  (141) 
11

>  <i_i_glide_rotatable_bonds>  (141) 
2

>  <r_i_docking_score>  (141) 
-3.47955

>  <r_i_glide_ligand_efficiency>  (141) 
-0.183134

>  <r_i_glide_ligand_efficiency_sa>  (141) 
-0.488676

>  <r_i_glide_ligand_efficiency_ln>  (141) 
-0.882141

>  <r_i_glide_gscore>  (141) 
-3.47955

>  <r_i_glide_lipo>  (141) 
-0.423064

>  <r_i_glide_hbond>  (141) 
-0.042671

>  <r_i_glide_metal>  (141) 
-0

>  <r_i_glide_rewards>  (141) 
-1.64095

>  <r_i_glide_evdw>  (141) 
-20.9374

>  <r_i_glide_ecoul>  (141) 
-4.93699

>  <r_i_glide_erotb>  (141) 
0.525846

>  <r_i_glide_esite>  (141) 
-0.11129

>  <r_i_glide_emodel>  (141) 
-32.6803

>  <r_i_glide_energy>  (141) 
-25.8744

>  <r_i_glide_einternal>  (141) 
1.37579

>  <r_i_glide_intrahb_reward>  (141) 
-0

>  <i_i_glide_confnum>  (141) 
3

>  <i_i_glide_posenum>  (141) 
3

>  <r_i_glide_eff_state_penalty>  (141) 
0

>  <ligand_id>  (141) 
39

>  <original_smiles>  (141) 
c1n[nH]c2c1CCc1occ(CN3CCNCC3)c1-2

>  <smiles>  (141) 
[H]c1nn([H])c2c1C([H])([H])C([H])([H])c1oc([H])c(C([H])([H])[N+]3([H])C([H])([H])C([H])([H])N([H])C([H])([H])C3([H])[H])c1-2

$$$$
39:3:0
     RDKit          3D

 38 41  0  0  1  0  0  0  0  0999 V2000
    1.6428    1.0998    3.4290 C   0  0  0  0  0  0  0  0  0  0  0  0
    2.6059    1.5213    2.5370 N   0  0  0  0  0  0  0  0  0  0  0  0
    3.1667    0.5188    1.8286 N   0  0  0  0  0  0  0  0  0  0  0  0
    2.5433   -0.5450    2.3016 C   0  0  0  0  0  0  0  0  0  0  0  0
    1.5705   -0.2598    3.2979 C   0  0  0  0  0  0  0  0  0  0  0  0
    0.7037   -1.3176    3.9567 C   0  0  0  0  0  0  0  0  0  0  0  0
    1.3372   -2.7384    3.8694 C   0  0  0  0  0  0  0  0  0  0  0  0
    2.2063   -2.8891    2.6610 C   0  0  0  0  0  0  0  0  0  0  0  0
    2.5421   -4.1161    2.1802 O   0  0  0  0  0  0  0  0  0  0  0  0
    3.3455   -3.8722    1.1046 C   0  0  0  0  0  0  0  0  0  0  0  0
    3.5563   -2.5292    0.8945 C   0  0  0  0  0  0  0  0  0  0  0  0
    4.3645   -1.8729   -0.1890 C   0  0  0  0  0  0  0  0  0  0  0  0
    3.5990   -1.7666   -1.4510 N   0  0  0  0  0  0  0  0  0  0  0  0
    3.4071   -3.0749   -2.1251 C   0  0  0  0  0  0  0  0  0  0  0  0
    2.5791   -2.9189   -3.4030 C   0  0  0  0  0  0  0  0  0  0  0  0
    3.2305   -1.9902   -4.3107 N   0  0  0  0  0  0  0  0  0  0  0  0
    3.3999   -0.6885   -3.6833 C   0  0  0  0  0  0  0  0  0  0  0  0
    4.2373   -0.8314   -2.4029 C   0  0  0  0  0  0  0  0  0  0  0  0
    2.7986   -1.9176    1.9259 C   0  0  0  0  0  0  0  0  0  0  0  0
    2.9150    2.4769    2.4266 H   0  0  0  0  0  0  0  0  0  0  0  0
    1.1024    1.7761    4.0750 H   0  0  0  0  0  0  0  0  0  0  0  0
   -0.2207   -1.3554    3.3921 H   0  0  0  0  0  0  0  0  0  0  0  0
    0.4202   -1.0672    4.9775 H   0  0  0  0  0  0  0  0  0  0  0  0
    1.9814   -2.8623    4.7352 H   0  0  0  0  0  0  0  0  0  0  0  0
    0.5834   -3.5208    3.9136 H   0  0  0  0  0  0  0  0  0  0  0  0
    3.6645   -4.7623    0.5847 H   0  0  0  0  0  0  0  0  0  0  0  0
    4.6781   -0.8878    0.1627 H   0  0  0  0  0  0  0  0  0  0  0  0
    5.2837   -2.4393   -0.3473 H   0  0  0  0  0  0  0  0  0  0  0  0
    4.3722   -3.5288   -2.3587 H   0  0  0  0  0  0  0  0  0  0  0  0
    2.8707   -3.7804   -1.4918 H   0  0  0  0  0  0  0  0  0  0  0  0
    2.4946   -3.8892   -3.8953 H   0  0  0  0  0  0  0  0  0  0  0  0
    1.5607   -2.6023   -3.1638 H   0  0  0  0  0  0  0  0  0  0  0  0
    2.5940   -1.8814   -5.1062 H   0  0  0  0  0  0  0  0  0  0  0  0
    3.9108   -0.0343   -4.3933 H   0  0  0  0  0  0  0  0  0  0  0  0
    2.4364   -0.2250   -3.4613 H   0  0  0  0  0  0  0  0  0  0  0  0
    4.3474    0.1487   -1.9409 H   0  0  0  0  0  0  0  0  0  0  0  0
    5.2396   -1.1786   -2.6543 H   0  0  0  0  0  0  0  0  0  0  0  0
    2.6780   -1.4007   -1.2370 H   0  0  0  0  0  0  0  0  0  0  0  0
  1  2  1  0
  1 21  1  0
  1  5  2  0
  2  3  1  0
  2 20  1  0
  3  4  2  0
  4 19  1  0
  4  5  1  0
  5  6  1  0
  6  7  1  0
  6 22  1  0
  6 23  1  0
  7  8  1  0
  7 24  1  0
  7 25  1  0
  8 19  2  0
  8  9  1  0
  9 10  1  0
 10 11  2  0
 10 26  1  0
 11 12  1  0
 11 19  1  0
 12 13  1  0
 12 27  1  0
 12 28  1  0
 13 18  1  0
 13 14  1  0
 13 38  1  0
 14 15  1  0
 14 29  1  0
 14 30  1  0
 15 16  1  0
 15 31  1  0
 15 32  1  0
 16 17  1  0
 16 33  1  0
 17 18  1  0
 17 34  1  0
 17 35  1  0
 18 36  1  0
 18 37  1  0
M  CHG  1  13   1
M  END
>  <i_m_ct_stereo_status>  (142) 
1

>  <s_m_source_file>  (142) 
/var/tmp/pbs.5076255.sched01/tmpck0ladl8/45htcshi4i.sdf

>  <i_m_source_file_index>  (142) 
12

>  <i_lp_mmshare_version>  (142) 
48012

>  <i_f3d_flags>  (142) 
0

>  <s_epik_input>  (142) 
W25IXTFuW2NIXWMoYzEyKVtDSDJdW0NIMl1jM2MyYyhbY0hdbzMpW0NIMl1ONFtDSDJdW0NIMl1bTkhdW0NIMl1bQ0gyXTQ=

>  <s_epik_cmdline>  (142) 
J2VwaWtfcHl0aG9uJywgJy1waHQnLCAnMi4wJywgJy1waCcsICc3LjAnLCAnLXRuJywgJzgnLCAnLW1hJywgJzIwMCcsICctaW1hZScsICc8aW5maWxlLm1hZT4nLCAnLW9tYWUnLCAnPG91dGZpbGUubWFlPic=

>  <r_epik_Ionization_Penalty>  (142) 
0.0347966

>  <r_epik_Ionization_Penalty_Charging>  (142) 
0.0135773

>  <r_epik_Ionization_Penalty_Neutral>  (142) 
0.0212193

>  <r_epik_State_Penalty>  (142) 
1.2003

>  <r_epik_Charging_Adjusted_Penalty>  (142) 
1.21388

>  <i_epik_Tot_Q>  (142) 
1

>  <i_epik_Tot_abs_Q>  (142) 
1

>  <s_lp_Force_Field>  (142) 
OPLS3e

>  <r_lp_Energy>  (142) 
25.1575

>  <b_lp_Chiralities_Consistent>  (142) 
1

>  <s_lp_Variant>  (142) 
39:0-4

>  <s_i_glide_gridfile>  (142) 
pfpi4k_grid

>  <i_i_glide_lignum>  (142) 
12

>  <i_i_glide_rotatable_bonds>  (142) 
2

>  <r_i_docking_score>  (142) 
-5.11902

>  <r_i_glide_ligand_efficiency>  (142) 
-0.269422

>  <r_i_glide_ligand_efficiency_sa>  (142) 
-0.718927

>  <r_i_glide_ligand_efficiency_ln>  (142) 
-1.29778

>  <r_i_glide_gscore>  (142) 
-5.11902

>  <r_i_glide_lipo>  (142) 
-0.468497

>  <r_i_glide_hbond>  (142) 
-0.754303

>  <r_i_glide_metal>  (142) 
-0

>  <r_i_glide_rewards>  (142) 
-1.64095

>  <r_i_glide_evdw>  (142) 
-23.4401

>  <r_i_glide_ecoul>  (142) 
-10.2293

>  <r_i_glide_erotb>  (142) 
0.525846

>  <r_i_glide_esite>  (142) 
-0.0747158

>  <r_i_glide_emodel>  (142) 
-45.2164

>  <r_i_glide_energy>  (142) 
-33.6694

>  <r_i_glide_einternal>  (142) 
0.246365

>  <r_i_glide_intrahb_reward>  (142) 
-0

>  <i_i_glide_confnum>  (142) 
3

>  <i_i_glide_posenum>  (142) 
15

>  <r_i_glide_eff_state_penalty>  (142) 
0

>  <ligand_id>  (142) 
39

>  <original_smiles>  (142) 
c1n[nH]c2c1CCc1occ(CN3CCNCC3)c1-2

>  <smiles>  (142) 
[H]c1oc2c(c1C([H])([H])[N+]1([H])C([H])([H])C([H])([H])N([H])C([H])([H])C1([H])[H])-c1nn([H])c([H])c1C([H])([H])C2([H])[H]

$$$$
39:3:1
     RDKit          3D

 38 41  0  0  1  0  0  0  0  0999 V2000
    4.0735   -6.6340    1.2520 C   0  0  0  0  0  0  0  0  0  0  0  0
    4.6377   -6.0820    0.1176 N   0  0  0  0  0  0  0  0  0  0  0  0
    4.5063   -4.7434    0.0454 N   0  0  0  0  0  0  0  0  0  0  0  0
    3.7806   -4.4628    1.1117 C   0  0  0  0  0  0  0  0  0  0  0  0
    3.4963   -5.5946    1.9245 C   0  0  0  0  0  0  0  0  0  0  0  0
    2.7477   -5.5017    3.2462 C   0  0  0  0  0  0  0  0  0  0  0  0
    1.8164   -4.2545    3.3107 C   0  0  0  0  0  0  0  0  0  0  0  0
    2.3612   -3.1135    2.5025 C   0  0  0  0  0  0  0  0  0  0  0  0
    1.9143   -1.8401    2.6836 O   0  0  0  0  0  0  0  0  0  0  0  0
    2.5714   -1.0859    1.7472 C   0  0  0  0  0  0  0  0  0  0  0  0
    3.3748   -1.8481    0.9349 C   0  0  0  0  0  0  0  0  0  0  0  0
    4.1779   -1.3673   -0.2433 C   0  0  0  0  0  0  0  0  0  0  0  0
    3.4203   -1.4734   -1.5205 N   0  0  0  0  0  0  0  0  0  0  0  0
    3.2136   -2.8727   -1.9522 C   0  0  0  0  0  0  0  0  0  0  0  0
    2.4269   -2.9585   -3.2542 C   0  0  0  0  0  0  0  0  0  0  0  0
    3.0987   -2.2216   -4.3135 N   0  0  0  0  0  0  0  0  0  0  0  0
    3.2867   -0.8306   -3.9226 C   0  0  0  0  0  0  0  0  0  0  0  0
    4.0897   -0.7333   -2.6138 C   0  0  0  0  0  0  0  0  0  0  0  0
    3.2310   -3.1609    1.4672 C   0  0  0  0  0  0  0  0  0  0  0  0
    5.1010   -6.5962   -0.6104 H   0  0  0  0  0  0  0  0  0  0  0  0
    4.1391   -7.6898    1.4815 H   0  0  0  0  0  0  0  0  0  0  0  0
    3.4986   -5.3763    4.0262 H   0  0  0  0  0  0  0  0  0  0  0  0
    2.2102   -6.4136    3.4956 H   0  0  0  0  0  0  0  0  0  0  0  0
    0.8511   -4.5361    2.8817 H   0  0  0  0  0  0  0  0  0  0  0  0
    1.6304   -3.9441    4.3348 H   0  0  0  0  0  0  0  0  0  0  0  0
    2.3526   -0.0312    1.7891 H   0  0  0  0  0  0  0  0  0  0  0  0
    4.4512   -0.3281   -0.0563 H   0  0  0  0  0  0  0  0  0  0  0  0
    5.1134   -1.9256   -0.2980 H   0  0  0  0  0  0  0  0  0  0  0  0
    4.1753   -3.3638   -2.0942 H   0  0  0  0  0  0  0  0  0  0  0  0
    2.6380   -3.4188   -1.2101 H   0  0  0  0  0  0  0  0  0  0  0  0
    2.3369   -4.0050   -3.5517 H   0  0  0  0  0  0  0  0  0  0  0  0
    1.4185   -2.5924   -3.0964 H   0  0  0  0  0  0  0  0  0  0  0  0
    2.4790   -2.2512   -5.1233 H   0  0  0  0  0  0  0  0  0  0  0  0
    3.8211   -0.3238   -4.7297 H   0  0  0  0  0  0  0  0  0  0  0  0
    2.3243   -0.3355   -3.8138 H   0  0  0  0  0  0  0  0  0  0  0  0
    4.2165    0.3158   -2.3507 H   0  0  0  0  0  0  0  0  0  0  0  0
    5.0881   -1.1395   -2.7644 H   0  0  0  0  0  0  0  0  0  0  0  0
    2.4933   -1.0776   -1.3779 H   0  0  0  0  0  0  0  0  0  0  0  0
  1  2  1  0
  1 21  1  0
  1  5  2  0
  2  3  1  0
  2 20  1  0
  3  4  2  0
  4 19  1  0
  4  5  1  0
  5  6  1  0
  6  7  1  0
  6 22  1  0
  6 23  1  0
  7  8  1  0
  7 24  1  0
  7 25  1  0
  8 19  2  0
  8  9  1  0
  9 10  1  0
 10 11  2  0
 10 26  1  0
 11 12  1  0
 11 19  1  0
 12 13  1  0
 12 27  1  0
 12 28  1  0
 13 18  1  0
 13 14  1  0
 13 38  1  0
 14 15  1  0
 14 29  1  0
 14 30  1  0
 15 16  1  0
 15 31  1  0
 15 32  1  0
 16 17  1  0
 16 33  1  0
 17 18  1  0
 17 34  1  0
 17 35  1  0
 18 36  1  0
 18 37  1  0
M  CHG  1  13   1
M  END
>  <i_m_ct_stereo_status>  (143) 
1

>  <s_m_source_file>  (143) 
/var/tmp/pbs.5076255.sched01/tmpck0ladl8/45htcshi4i.sdf

>  <i_m_source_file_index>  (143) 
12

>  <i_lp_mmshare_version>  (143) 
48012

>  <i_f3d_flags>  (143) 
0

>  <s_epik_input>  (143) 
W25IXTFuW2NIXWMoYzEyKVtDSDJdW0NIMl1jM2MyYyhbY0hdbzMpW0NIMl1ONFtDSDJdW0NIMl1bTkhdW0NIMl1bQ0gyXTQ=

>  <s_epik_cmdline>  (143) 
J2VwaWtfcHl0aG9uJywgJy1waHQnLCAnMi4wJywgJy1waCcsICc3LjAnLCAnLXRuJywgJzgnLCAnLW1hJywgJzIwMCcsICctaW1hZScsICc8aW5maWxlLm1hZT4nLCAnLW9tYWUnLCAnPG91dGZpbGUubWFlPic=

>  <r_epik_Ionization_Penalty>  (143) 
0.0347966

>  <r_epik_Ionization_Penalty_Charging>  (143) 
0.0135773

>  <r_epik_Ionization_Penalty_Neutral>  (143) 
0.0212193

>  <r_epik_State_Penalty>  (143) 
1.2003

>  <r_epik_Charging_Adjusted_Penalty>  (143) 
1.21388

>  <i_epik_Tot_Q>  (143) 
1

>  <i_epik_Tot_abs_Q>  (143) 
1

>  <s_lp_Force_Field>  (143) 
OPLS3e

>  <r_lp_Energy>  (143) 
25.1575

>  <b_lp_Chiralities_Consistent>  (143) 
1

>  <s_lp_Variant>  (143) 
39:0-4

>  <s_i_glide_gridfile>  (143) 
pfpi4k_grid

>  <i_i_glide_lignum>  (143) 
12

>  <i_i_glide_rotatable_bonds>  (143) 
2

>  <r_i_docking_score>  (143) 
-4.94159

>  <r_i_glide_ligand_efficiency>  (143) 
-0.260084

>  <r_i_glide_ligand_efficiency_sa>  (143) 
-0.694008

>  <r_i_glide_ligand_efficiency_ln>  (143) 
-1.2528

>  <r_i_glide_gscore>  (143) 
-4.94159

>  <r_i_glide_lipo>  (143) 
-0.55393

>  <r_i_glide_hbond>  (143) 
-0.736869

>  <r_i_glide_metal>  (143) 
-0

>  <r_i_glide_rewards>  (143) 
-1.64095

>  <r_i_glide_evdw>  (143) 
-22.1073

>  <r_i_glide_ecoul>  (143) 
-8.8688

>  <r_i_glide_erotb>  (143) 
0.525846

>  <r_i_glide_esite>  (143) 
-0.1

>  <r_i_glide_emodel>  (143) 
-41.8408

>  <r_i_glide_energy>  (143) 
-30.9761

>  <r_i_glide_einternal>  (143) 
0.127481

>  <r_i_glide_intrahb_reward>  (143) 
-0

>  <i_i_glide_confnum>  (143) 
4

>  <i_i_glide_posenum>  (143) 
2

>  <r_i_glide_eff_state_penalty>  (143) 
0

>  <ligand_id>  (143) 
39

>  <original_smiles>  (143) 
c1n[nH]c2c1CCc1occ(CN3CCNCC3)c1-2

>  <smiles>  (143) 
[H]c1oc2c(c1C([H])([H])[N+]1([H])C([H])([H])C([H])([H])N([H])C([H])([H])C1([H])[H])-c1nn([H])c([H])c1C([H])([H])C2([H])[H]

$$$$
39:3:2
     RDKit          3D

 38 41  0  0  1  0  0  0  0  0999 V2000
    3.3887   -1.0662    1.5953 C   0  0  0  0  0  0  0  0  0  0  0  0
    2.2146   -0.4053    1.2915 N   0  0  0  0  0  0  0  0  0  0  0  0
    1.9525    0.6420    2.0963 N   0  0  0  0  0  0  0  0  0  0  0  0
    3.0011    0.6415    2.9040 C   0  0  0  0  0  0  0  0  0  0  0  0
    3.9443   -0.3965    2.6482 C   0  0  0  0  0  0  0  0  0  0  0  0
    5.2304   -0.5791    3.4381 C   0  0  0  0  0  0  0  0  0  0  0  0
    5.1506    0.0902    4.8476 C   0  0  0  0  0  0  0  0  0  0  0  0
    4.2338    1.2743    4.8560 C   0  0  0  0  0  0  0  0  0  0  0  0
    4.3083    2.2206    5.8235 O   0  0  0  0  0  0  0  0  0  0  0  0
    3.3427    3.1357    5.5101 C   0  0  0  0  0  0  0  0  0  0  0  0
    2.6136    2.7770    4.4012 C   0  0  0  0  0  0  0  0  0  0  0  0
    1.4652    3.5108    3.7742 C   0  0  0  0  0  0  0  0  0  0  0  0
    0.1791    2.9867    4.2903 N   0  0  0  0  0  0  0  0  0  0  0  0
   -0.9566    3.2483    3.3755 C   0  0  0  0  0  0  0  0  0  0  0  0
   -2.2620    2.6520    3.9347 C   0  0  0  0  0  0  0  0  0  0  0  0
   -2.5570    3.1992    5.2566 N   0  0  0  0  0  0  0  0  0  0  0  0
   -1.4667    2.8853    6.1725 C   0  0  0  0  0  0  0  0  0  0  0  0
   -0.1450    3.4838    5.6568 C   0  0  0  0  0  0  0  0  0  0  0  0
    3.2222    1.5564    4.0021 C   0  0  0  0  0  0  0  0  0  0  0  0
    1.5784   -0.6375    0.5173 H   0  0  0  0  0  0  0  0  0  0  0  0
    3.7409   -1.9317    1.0557 H   0  0  0  0  0  0  0  0  0  0  0  0
    6.0273   -0.0673    2.9032 H   0  0  0  0  0  0  0  0  0  0  0  0
    5.5515   -1.6203    3.5123 H   0  0  0  0  0  0  0  0  0  0  0  0
    4.7289   -0.6472    5.5312 H   0  0  0  0  0  0  0  0  0  0  0  0
    6.1386    0.3477    5.2363 H   0  0  0  0  0  0  0  0  0  0  0  0
    3.2956    3.9808    6.1773 H   0  0  0  0  0  0  0  0  0  0  0  0
    1.5439    4.5804    3.9771 H   0  0  0  0  0  0  0  0  0  0  0  0
    1.5420    3.4042    2.6915 H   0  0  0  0  0  0  0  0  0  0  0  0
   -1.0589    4.3210    3.2168 H   0  0  0  0  0  0  0  0  0  0  0  0
   -0.7524    2.7999    2.4036 H   0  0  0  0  0  0  0  0  0  0  0  0
   -3.0890    2.9134    3.2726 H   0  0  0  0  0  0  0  0  0  0  0  0
   -2.2162    1.5615    3.9701 H   0  0  0  0  0  0  0  0  0  0  0  0
   -2.6955    4.1958    5.2000 H   0  0  0  0  0  0  0  0  0  0  0  0
   -1.7086    3.3274    7.1411 H   0  0  0  0  0  0  0  0  0  0  0  0
   -1.3833    1.8074    6.3217 H   0  0  0  0  0  0  0  0  0  0  0  0
    0.6490    3.2318    6.3595 H   0  0  0  0  0  0  0  0  0  0  0  0
   -0.2154    4.5708    5.6466 H   0  0  0  0  0  0  0  0  0  0  0  0
    0.2529    1.9830    4.3425 H   0  0  0  0  0  0  0  0  0  0  0  0
  1  2  1  0
  1 21  1  0
  1  5  2  0
  2  3  1  0
  2 20  1  0
  3  4  2  0
  4 19  1  0
  4  5  1  0
  5  6  1  0
  6  7  1  0
  6 22  1  0
  6 23  1  0
  7  8  1  0
  7 24  1  0
  7 25  1  0
  8 19  2  0
  8  9  1  0
  9 10  1  0
 10 11  2  0
 10 26  1  0
 11 12  1  0
 11 19  1  0
 12 13  1  0
 12 27  1  0
 12 28  1  0
 13 18  1  0
 13 14  1  0
 13 38  1  0
 14 15  1  0
 14 29  1  0
 14 30  1  0
 15 16  1  0
 15 31  1  0
 15 32  1  0
 16 17  1  0
 16 33  1  0
 17 18  1  0
 17 34  1  0
 17 35  1  0
 18 36  1  0
 18 37  1  0
M  CHG  1  13   1
M  END
>  <i_m_ct_stereo_status>  (144) 
1

>  <s_m_source_file>  (144) 
/var/tmp/pbs.5076255.sched01/tmpck0ladl8/45htcshi4i.sdf

>  <i_m_source_file_index>  (144) 
12

>  <i_lp_mmshare_version>  (144) 
48012

>  <i_f3d_flags>  (144) 
0

>  <s_epik_input>  (144) 
W25IXTFuW2NIXWMoYzEyKVtDSDJdW0NIMl1jM2MyYyhbY0hdbzMpW0NIMl1ONFtDSDJdW0NIMl1bTkhdW0NIMl1bQ0gyXTQ=

>  <s_epik_cmdline>  (144) 
J2VwaWtfcHl0aG9uJywgJy1waHQnLCAnMi4wJywgJy1waCcsICc3LjAnLCAnLXRuJywgJzgnLCAnLW1hJywgJzIwMCcsICctaW1hZScsICc8aW5maWxlLm1hZT4nLCAnLW9tYWUnLCAnPG91dGZpbGUubWFlPic=

>  <r_epik_Ionization_Penalty>  (144) 
0.0347966

>  <r_epik_Ionization_Penalty_Charging>  (144) 
0.0135773

>  <r_epik_Ionization_Penalty_Neutral>  (144) 
0.0212193

>  <r_epik_State_Penalty>  (144) 
1.2003

>  <r_epik_Charging_Adjusted_Penalty>  (144) 
1.21388

>  <i_epik_Tot_Q>  (144) 
1

>  <i_epik_Tot_abs_Q>  (144) 
1

>  <s_lp_Force_Field>  (144) 
OPLS3e

>  <r_lp_Energy>  (144) 
25.1575

>  <b_lp_Chiralities_Consistent>  (144) 
1

>  <s_lp_Variant>  (144) 
39:0-4

>  <s_i_glide_gridfile>  (144) 
pfpi4k_grid

>  <i_i_glide_lignum>  (144) 
12

>  <i_i_glide_rotatable_bonds>  (144) 
2

>  <r_i_docking_score>  (144) 
-3.51062

>  <r_i_glide_ligand_efficiency>  (144) 
-0.184769

>  <r_i_glide_ligand_efficiency_sa>  (144) 
-0.493039

>  <r_i_glide_ligand_efficiency_ln>  (144) 
-0.890017

>  <r_i_glide_gscore>  (144) 
-3.51062

>  <r_i_glide_lipo>  (144) 
-0.311004

>  <r_i_glide_hbond>  (144) 
-0.16

>  <r_i_glide_metal>  (144) 
-0

>  <r_i_glide_rewards>  (144) 
-1.64095

>  <r_i_glide_evdw>  (144) 
-17.3891

>  <r_i_glide_ecoul>  (144) 
-6.21392

>  <r_i_glide_erotb>  (144) 
0.525846

>  <r_i_glide_esite>  (144) 
-0.122964

>  <r_i_glide_emodel>  (144) 
-31.1149

>  <r_i_glide_energy>  (144) 
-23.603

>  <r_i_glide_einternal>  (144) 
1.01474

>  <r_i_glide_intrahb_reward>  (144) 
-0

>  <i_i_glide_confnum>  (144) 
6

>  <i_i_glide_posenum>  (144) 
4

>  <r_i_glide_eff_state_penalty>  (144) 
0

>  <ligand_id>  (144) 
39

>  <original_smiles>  (144) 
c1n[nH]c2c1CCc1occ(CN3CCNCC3)c1-2

>  <smiles>  (144) 
[H]c1oc2c(c1C([H])([H])[N+]1([H])C([H])([H])C([H])([H])N([H])C([H])([H])C1([H])[H])-c1nn([H])c([H])c1C([H])([H])C2([H])[H]

$$$$
40:0:0
     RDKit          3D

 14 15  0  0  1  0  0  0  0  0999 V2000
   -7.2530   -4.6460   -4.5946 C   0  0  0  0  0  0  0  0  0  0  0  0
   -6.5847   -5.8780   -4.8047 C   0  0  0  0  0  0  0  0  0  0  0  0
   -6.8650   -6.6377   -5.9187 C   0  0  0  0  0  0  0  0  0  0  0  0
   -7.7869   -6.1756   -6.8097 N   0  0  0  0  0  0  0  0  0  0  0  0
   -8.1832   -6.7834   -7.9574 N   0  0  0  0  0  0  0  0  0  0  0  0
   -9.0797   -5.9268   -8.4325 C   0  0  0  0  0  0  0  0  0  0  0  0
   -9.2893   -4.7972   -7.6974 N   0  0  0  0  0  0  0  0  0  0  0  0
   -8.4783   -4.9608   -6.6557 C   0  0  0  0  0  0  0  0  0  0  0  0
   -8.1880   -4.1926   -5.5001 C   0  0  0  0  0  0  0  0  0  0  0  0
   -7.0297   -4.0503   -3.7125 H   0  0  0  0  0  0  0  0  0  0  0  0
   -5.8560   -6.2288   -4.0807 H   0  0  0  0  0  0  0  0  0  0  0  0
   -6.3930   -7.5900   -6.1380 H   0  0  0  0  0  0  0  0  0  0  0  0
   -9.5996   -6.1174   -9.3609 H   0  0  0  0  0  0  0  0  0  0  0  0
   -8.7030   -3.2493   -5.3504 H   0  0  0  0  0  0  0  0  0  0  0  0
  1  9  2  0
  1  2  1  0
  1 10  1  0
  2  3  2  0
  2 11  1  0
  3  4  1  0
  3 12  1  0
  4  8  1  0
  4  5  1  0
  5  6  2  0
  6  7  1  0
  6 13  1  0
  7  8  2  0
  8  9  1  0
  9 14  1  0
M  END
>  <i_m_ct_stereo_status>  (145) 
1

>  <s_m_source_file>  (145) 
/var/tmp/pbs.5076255.sched01/tmpck0ladl8/45htcshi4i.sdf

>  <i_m_source_file_index>  (145) 
13

>  <i_lp_mmshare_version>  (145) 
48012

>  <i_f3d_flags>  (145) 
0

>  <s_epik_input>  (145) 
W2NIXTFbY0hdW2NIXVtjSF1jKG4xMiluW2NIXW4y

>  <s_epik_cmdline>  (145) 
J2VwaWtfcHl0aG9uJywgJy1waHQnLCAnMi4wJywgJy1waCcsICc3LjAnLCAnLXRuJywgJzgnLCAnLW1hJywgJzIwMCcsICctaW1hZScsICc8aW5maWxlLm1hZT4nLCAnLW9tYWUnLCAnPG91dGZpbGUubWFlPic=

>  <r_epik_Ionization_Penalty>  (145) 
0.00240877

>  <r_epik_Ionization_Penalty_Charging>  (145) 
0

>  <r_epik_Ionization_Penalty_Neutral>  (145) 
0.00240877

>  <r_epik_State_Penalty>  (145) 
0.00166627

>  <r_epik_Charging_Adjusted_Penalty>  (145) 
0.00166627

>  <i_epik_Tot_Q>  (145) 
0

>  <i_epik_Tot_abs_Q>  (145) 
0

>  <s_lp_Force_Field>  (145) 
OPLS3e

>  <r_lp_Energy>  (145) 
12.9833

>  <b_lp_Chiralities_Consistent>  (145) 
1

>  <s_lp_Variant>  (145) 
40:0-1

>  <s_i_glide_gridfile>  (145) 
pfpi4k_grid

>  <i_i_glide_lignum>  (145) 
13

>  <i_i_glide_rotatable_bonds>  (145) 
0

>  <r_i_docking_score>  (145) 
-5.6352

>  <r_i_glide_ligand_efficiency>  (145) 
-0.626133

>  <r_i_glide_ligand_efficiency_sa>  (145) 
-1.30241

>  <r_i_glide_ligand_efficiency_ln>  (145) 
-1.76253

>  <r_i_glide_gscore>  (145) 
-5.6352

>  <r_i_glide_lipo>  (145) 
-1.26606

>  <r_i_glide_hbond>  (145) 
0

>  <r_i_glide_metal>  (145) 
-0

>  <r_i_glide_rewards>  (145) 
-3.35495

>  <r_i_glide_evdw>  (145) 
-17.7162

>  <r_i_glide_ecoul>  (145) 
-0.85591

>  <r_i_glide_erotb>  (145) 
0

>  <r_i_glide_esite>  (145) 
0

>  <r_i_glide_emodel>  (145) 
-26.2043

>  <r_i_glide_energy>  (145) 
-18.5721

>  <r_i_glide_einternal>  (145) 
0

>  <r_i_glide_intrahb_reward>  (145) 
-0

>  <i_i_glide_confnum>  (145) 
1

>  <i_i_glide_posenum>  (145) 
3

>  <r_i_glide_eff_state_penalty>  (145) 
0

>  <ligand_id>  (145) 
40

>  <original_smiles>  (145) 
c1ccn2ncnc2c1

>  <smiles>  (145) 
[H]c1nc2c([H])c([H])c([H])c([H])n2n1

$$$$
40:0:1
     RDKit          3D

 14 15  0  0  1  0  0  0  0  0999 V2000
    2.7175   -2.1305   -3.7640 C   0  0  0  0  0  0  0  0  0  0  0  0
    3.1524   -0.8201   -3.4536 C   0  0  0  0  0  0  0  0  0  0  0  0
    4.2482   -0.6326   -2.6458 C   0  0  0  0  0  0  0  0  0  0  0  0
    4.9121   -1.7185   -2.1708 N   0  0  0  0  0  0  0  0  0  0  0  0
    6.0131   -1.7125   -1.3729 N   0  0  0  0  0  0  0  0  0  0  0  0
    6.2512   -3.0096   -1.2206 C   0  0  0  0  0  0  0  0  0  0  0  0
    5.3950   -3.8579   -1.8538 N   0  0  0  0  0  0  0  0  0  0  0  0
    4.5442   -3.0400   -2.4639 C   0  0  0  0  0  0  0  0  0  0  0  0
    3.4116   -3.2212   -3.3011 C   0  0  0  0  0  0  0  0  0  0  0  0
    1.8144   -2.2845   -4.3416 H   0  0  0  0  0  0  0  0  0  0  0  0
    2.6029    0.0491   -3.8092 H   0  0  0  0  0  0  0  0  0  0  0  0
    4.6094    0.3468   -2.3499 H   0  0  0  0  0  0  0  0  0  0  0  0
    7.0846   -3.3616   -0.6313 H   0  0  0  0  0  0  0  0  0  0  0  0
    3.0842   -4.2290   -3.5300 H   0  0  0  0  0  0  0  0  0  0  0  0
  1  9  2  0
  1  2  1  0
  1 10  1  0
  2  3  2  0
  2 11  1  0
  3  4  1  0
  3 12  1  0
  4  8  1  0
  4  5  1  0
  5  6  2  0
  6  7  1  0
  6 13  1  0
  7  8  2  0
  8  9  1  0
  9 14  1  0
M  END
>  <i_m_ct_stereo_status>  (146) 
1

>  <s_m_source_file>  (146) 
/var/tmp/pbs.5076255.sched01/tmpck0ladl8/45htcshi4i.sdf

>  <i_m_source_file_index>  (146) 
13

>  <i_lp_mmshare_version>  (146) 
48012

>  <i_f3d_flags>  (146) 
0

>  <s_epik_input>  (146) 
W2NIXTFbY0hdW2NIXVtjSF1jKG4xMiluW2NIXW4y

>  <s_epik_cmdline>  (146) 
J2VwaWtfcHl0aG9uJywgJy1waHQnLCAnMi4wJywgJy1waCcsICc3LjAnLCAnLXRuJywgJzgnLCAnLW1hJywgJzIwMCcsICctaW1hZScsICc8aW5maWxlLm1hZT4nLCAnLW9tYWUnLCAnPG91dGZpbGUubWFlPic=

>  <r_epik_Ionization_Penalty>  (146) 
0.00240877

>  <r_epik_Ionization_Penalty_Charging>  (146) 
0

>  <r_epik_Ionization_Penalty_Neutral>  (146) 
0.00240877

>  <r_epik_State_Penalty>  (146) 
0.00166627

>  <r_epik_Charging_Adjusted_Penalty>  (146) 
0.00166627

>  <i_epik_Tot_Q>  (146) 
0

>  <i_epik_Tot_abs_Q>  (146) 
0

>  <s_lp_Force_Field>  (146) 
OPLS3e

>  <r_lp_Energy>  (146) 
12.9833

>  <b_lp_Chiralities_Consistent>  (146) 
1

>  <s_lp_Variant>  (146) 
40:0-1

>  <s_i_glide_gridfile>  (146) 
pfpi4k_grid

>  <i_i_glide_lignum>  (146) 
13

>  <i_i_glide_rotatable_bonds>  (146) 
0

>  <r_i_docking_score>  (146) 
-4.37898

>  <r_i_glide_ligand_efficiency>  (146) 
-0.486553

>  <r_i_glide_ligand_efficiency_sa>  (146) 
-1.01207

>  <r_i_glide_ligand_efficiency_ln>  (146) 
-1.36962

>  <r_i_glide_gscore>  (146) 
-4.37898

>  <r_i_glide_lipo>  (146) 
-0.57165

>  <r_i_glide_hbond>  (146) 
-0.110266

>  <r_i_glide_metal>  (146) 
-0

>  <r_i_glide_rewards>  (146) 
-2.36941

>  <r_i_glide_evdw>  (146) 
-14.2642

>  <r_i_glide_ecoul>  (146) 
-3.9509

>  <r_i_glide_erotb>  (146) 
0

>  <r_i_glide_esite>  (146) 
-0.0218086

>  <r_i_glide_emodel>  (146) 
-24.1393

>  <r_i_glide_energy>  (146) 
-18.2151

>  <r_i_glide_einternal>  (146) 
0

>  <r_i_glide_intrahb_reward>  (146) 
-0

>  <i_i_glide_confnum>  (146) 
1

>  <i_i_glide_posenum>  (146) 
37

>  <r_i_glide_eff_state_penalty>  (146) 
0

>  <ligand_id>  (146) 
40

>  <original_smiles>  (146) 
c1ccn2ncnc2c1

>  <smiles>  (146) 
[H]c1nc2c([H])c([H])c([H])c([H])n2n1

$$$$
40:0:2
     RDKit          3D

 14 15  0  0  1  0  0  0  0  0999 V2000
   -0.9797   -9.0530    3.1993 C   0  0  0  0  0  0  0  0  0  0  0  0
    0.2294   -9.7572    3.4136 C   0  0  0  0  0  0  0  0  0  0  0  0
    1.4193   -9.2735    2.9156 C   0  0  0  0  0  0  0  0  0  0  0  0
    1.4049   -8.1021    2.2211 N   0  0  0  0  0  0  0  0  0  0  0  0
    2.4771   -7.4642    1.6831 N   0  0  0  0  0  0  0  0  0  0  0  0
    1.9208   -6.3899    1.1381 C   0  0  0  0  0  0  0  0  0  0  0  0
    0.5669   -6.2672    1.2793 N   0  0  0  0  0  0  0  0  0  0  0  0
    0.2385   -7.3585    1.9729 C   0  0  0  0  0  0  0  0  0  0  0  0
   -0.9843   -7.8708    2.4914 C   0  0  0  0  0  0  0  0  0  0  0  0
   -1.9095   -9.4511    3.6001 H   0  0  0  0  0  0  0  0  0  0  0  0
    0.2185  -10.6846    3.9796 H   0  0  0  0  0  0  0  0  0  0  0  0
    2.3762   -9.7685    3.0530 H   0  0  0  0  0  0  0  0  0  0  0  0
    2.5177   -5.6677    0.6003 H   0  0  0  0  0  0  0  0  0  0  0  0
   -1.9112   -7.3386    2.3281 H   0  0  0  0  0  0  0  0  0  0  0  0
  1  9  2  0
  1  2  1  0
  1 10  1  0
  2  3  2  0
  2 11  1  0
  3  4  1  0
  3 12  1  0
  4  8  1  0
  4  5  1  0
  5  6  2  0
  6  7  1  0
  6 13  1  0
  7  8  2  0
  8  9  1  0
  9 14  1  0
M  END
>  <i_m_ct_stereo_status>  (147) 
1

>  <s_m_source_file>  (147) 
/var/tmp/pbs.5076255.sched01/tmpck0ladl8/45htcshi4i.sdf

>  <i_m_source_file_index>  (147) 
13

>  <i_lp_mmshare_version>  (147) 
48012

>  <i_f3d_flags>  (147) 
0

>  <s_epik_input>  (147) 
W2NIXTFbY0hdW2NIXVtjSF1jKG4xMiluW2NIXW4y

>  <s_epik_cmdline>  (147) 
J2VwaWtfcHl0aG9uJywgJy1waHQnLCAnMi4wJywgJy1waCcsICc3LjAnLCAnLXRuJywgJzgnLCAnLW1hJywgJzIwMCcsICctaW1hZScsICc8aW5maWxlLm1hZT4nLCAnLW9tYWUnLCAnPG91dGZpbGUubWFlPic=

>  <r_epik_Ionization_Penalty>  (147) 
0.00240877

>  <r_epik_Ionization_Penalty_Charging>  (147) 
0

>  <r_epik_Ionization_Penalty_Neutral>  (147) 
0.00240877

>  <r_epik_State_Penalty>  (147) 
0.00166627

>  <r_epik_Charging_Adjusted_Penalty>  (147) 
0.00166627

>  <i_epik_Tot_Q>  (147) 
0

>  <i_epik_Tot_abs_Q>  (147) 
0

>  <s_lp_Force_Field>  (147) 
OPLS3e

>  <r_lp_Energy>  (147) 
12.9833

>  <b_lp_Chiralities_Consistent>  (147) 
1

>  <s_lp_Variant>  (147) 
40:0-1

>  <s_i_glide_gridfile>  (147) 
pfpi4k_grid

>  <i_i_glide_lignum>  (147) 
13

>  <i_i_glide_rotatable_bonds>  (147) 
0

>  <r_i_docking_score>  (147) 
-3.99653

>  <r_i_glide_ligand_efficiency>  (147) 
-0.444059

>  <r_i_glide_ligand_efficiency_sa>  (147) 
-0.923679

>  <r_i_glide_ligand_efficiency_ln>  (147) 
-1.25

>  <r_i_glide_gscore>  (147) 
-3.99653

>  <r_i_glide_lipo>  (147) 
-0.0108562

>  <r_i_glide_hbond>  (147) 
-0.16

>  <r_i_glide_metal>  (147) 
-0

>  <r_i_glide_rewards>  (147) 
-2.25

>  <r_i_glide_evdw>  (147) 
-13.2795

>  <r_i_glide_ecoul>  (147) 
-5.18672

>  <r_i_glide_erotb>  (147) 
0

>  <r_i_glide_esite>  (147) 
-0.13369

>  <r_i_glide_emodel>  (147) 
-23.8774

>  <r_i_glide_energy>  (147) 
-18.4662

>  <r_i_glide_einternal>  (147) 
0

>  <r_i_glide_intrahb_reward>  (147) 
-0

>  <i_i_glide_confnum>  (147) 
2

>  <i_i_glide_posenum>  (147) 
16

>  <r_i_glide_eff_state_penalty>  (147) 
0

>  <ligand_id>  (147) 
40

>  <original_smiles>  (147) 
c1ccn2ncnc2c1

>  <smiles>  (147) 
[H]c1nc2c([H])c([H])c([H])c([H])n2n1

$$$$
41:0:0
     RDKit          3D

 40 42  0  0  1  0  0  0  0  0999 V2000
    2.6624   -0.4007    2.0727 C   0  0  0  0  0  0  0  0  0  0  0  0
    3.3498   -1.7012    1.6025 C   0  0  2  0  0  0  0  0  0  0  0  0
    3.4602   -2.7667    2.7005 C   0  0  1  0  0  0  0  0  0  0  0  0
    2.3816   -3.8483    2.6356 C   0  0  0  0  0  0  0  0  0  0  0  0
    3.0039   -4.9970    1.9861 N   0  0  0  0  0  0  0  0  0  0  0  0
    2.1521   -6.5142    1.8874 S   0  0  0  0  0  0  0  0  0  0  0  0
    1.8733   -6.9414    3.6436 C   0  0  0  0  0  0  0  0  0  0  0  0
    0.8193   -6.2448    1.2726 O   0  0  0  0  0  0  0  0  0  0  0  0
    3.0708   -7.4935    1.2862 O   0  0  0  0  0  0  0  0  0  0  0  0
    4.4388   -4.9667    2.3038 C   0  0  0  0  0  0  0  0  0  0  0  0
    4.8178   -3.4838    2.4892 C   0  0  1  0  0  0  0  0  0  0  0  0
    5.5097   -2.7995    1.3031 C   0  0  0  0  0  0  0  0  0  0  0  0
    4.7551   -1.5147    1.0915 N   0  0  1  0  0  0  0  0  0  0  0  0
    4.8224   -0.9817   -0.3097 C   0  0  0  0  0  0  0  0  0  0  0  0
    4.1146   -1.8456   -1.3731 C   0  0  0  0  0  0  0  0  0  0  0  0
    3.4131   -1.3370   -2.5370 C   0  0  0  0  0  0  0  0  0  0  0  0
    2.8729   -2.2886   -3.2838 N   0  0  0  0  0  0  0  0  0  0  0  0
    3.1928   -3.4275   -2.5892 N   0  0  0  0  0  0  0  0  0  0  0  0
    3.9265   -3.1846   -1.4934 C   0  0  0  0  0  0  0  0  0  0  0  0
    2.9320   -4.3803   -2.8321 H   0  0  0  0  0  0  0  0  0  0  0  0
    1.6766   -0.6526    2.4259 H   0  0  0  0  0  0  0  0  0  0  0  0
    2.5297    0.3145    1.2648 H   0  0  0  0  0  0  0  0  0  0  0  0
    3.1980    0.0741    2.8875 H   0  0  0  0  0  0  0  0  0  0  0  0
    2.7294   -2.1146    0.7928 H   0  0  0  0  0  0  0  0  0  0  0  0
    3.4811   -2.2897    3.6714 H   0  0  0  0  0  0  0  0  0  0  0  0
    2.1444   -4.1316    3.6579 H   0  0  0  0  0  0  0  0  0  0  0  0
    1.4798   -3.5337    2.1178 H   0  0  0  0  0  0  0  0  0  0  0  0
    1.3628   -7.8943    3.6973 H   0  0  0  0  0  0  0  0  0  0  0  0
    1.2569   -6.1881    4.1224 H   0  0  0  0  0  0  0  0  0  0  0  0
    2.8293   -7.0188    4.1506 H   0  0  0  0  0  0  0  0  0  0  0  0
    4.5515   -5.4807    3.2571 H   0  0  0  0  0  0  0  0  0  0  0  0
    5.0132   -5.5048    1.5391 H   0  0  0  0  0  0  0  0  0  0  0  0
    5.4740   -3.3672    3.3631 H   0  0  0  0  0  0  0  0  0  0  0  0
    6.6113   -2.6383    1.3794 H   0  0  0  0  0  0  0  0  0  0  0  0
    5.4457   -3.4939    0.5156 H   0  0  0  0  0  0  0  0  0  0  0  0
    4.4337    0.0355   -0.2830 H   0  0  0  0  0  0  0  0  0  0  0  0
    5.8703   -0.7874   -0.5400 H   0  0  0  0  0  0  0  0  0  0  0  0
    3.2526   -0.3229   -2.8625 H   0  0  0  0  0  0  0  0  0  0  0  0
    4.1689   -4.0800   -0.9007 H   0  0  0  0  0  0  0  0  0  0  0  0
    5.2003   -0.8001    1.7324 H   0  0  0  0  0  0  0  0  0  0  0  0
  1  2  1  0
  1 21  1  0
  1 22  1  0
  1 23  1  0
  2 13  1  0
  2  3  1  0
  2 24  1  6
  3 11  1  0
  3  4  1  0
  3 25  1  1
  4  5  1  0
  4 26  1  0
  4 27  1  0
  5  6  1  0
  5 10  1  0
  6  7  1  0
  6  8  2  0
  6  9  2  0
  7 28  1  0
  7 29  1  0
  7 30  1  0
 10 11  1  0
 10 31  1  0
 10 32  1  0
 11 12  1  0
 11 33  1  1
 12 13  1  0
 12 34  1  0
 12 35  1  0
 13 14  1  0
 13 40  1  1
 14 15  1  0
 14 36  1  0
 14 37  1  0
 15 19  2  0
 15 16  1  0
 16 17  2  0
 16 38  1  0
 17 18  1  0
 18 20  1  0
 18 19  1  0
 19 39  1  0
M  CHG  1  13   1
M  END
>  <i_m_ct_stereo_status>  (148) 
1

>  <s_m_source_file>  (148) 
/var/tmp/pbs.5076255.sched01/tmpck0ladl8/45htcshi4i.sdf

>  <i_m_source_file_index>  (148) 
14

>  <i_lp_mmshare_version>  (148) 
48012

>  <i_f3d_flags>  (148) 
0

>  <s_epik_input>  (148) 
W2NIXTFbbkhdbltjSF1jMVtDSDJdTihbQ0BASF0yW0NIM10pW0NIMl1bQ0BASF0oW0NAQEhdMjMpW0NIMl1OKFtDSDJdMylTKD1PKSg9TylbQ0gzXQ==

>  <s_epik_cmdline>  (148) 
J2VwaWtfcHl0aG9uJywgJy1waHQnLCAnMi4wJywgJy1waCcsICc3LjAnLCAnLXRuJywgJzgnLCAnLW1hJywgJzIwMCcsICctaW1hZScsICc8aW5maWxlLm1hZT4nLCAnLW9tYWUnLCAnPG91dGZpbGUubWFlPic=

>  <r_lp_tautomer_probability>  (148) 
0.5

>  <r_epik_Ionization_Penalty>  (148) 
0.0652336

>  <r_epik_Ionization_Penalty_Charging>  (148) 
0.0652268

>  <r_epik_Ionization_Penalty_Neutral>  (148) 
6.84431e-06

>  <r_epik_State_Penalty>  (148) 
0.0568696

>  <r_epik_Charging_Adjusted_Penalty>  (148) 
0.122096

>  <i_epik_Tot_Q>  (148) 
1

>  <i_epik_Tot_abs_Q>  (148) 
1

>  <s_lp_Force_Field>  (148) 
OPLS3e

>  <r_lp_Energy>  (148) 
-8.07311

>  <b_lp_Chiralities_Consistent>  (148) 
1

>  <s_lp_Variant>  (148) 
41:0-1

>  <s_i_glide_gridfile>  (148) 
pfpi4k_grid

>  <i_i_glide_lignum>  (148) 
14

>  <i_i_glide_rotatable_bonds>  (148) 
3

>  <r_i_docking_score>  (148) 
-4.28034

>  <r_i_glide_ligand_efficiency>  (148) 
-0.225281

>  <r_i_glide_ligand_efficiency_sa>  (148) 
-0.60114

>  <r_i_glide_ligand_efficiency_ln>  (148) 
-1.08516

>  <r_i_glide_gscore>  (148) 
-4.28034

>  <r_i_glide_lipo>  (148) 
-0.103655

>  <r_i_glide_hbond>  (148) 
-0.32

>  <r_i_glide_metal>  (148) 
-0

>  <r_i_glide_rewards>  (148) 
-1.46327

>  <r_i_glide_evdw>  (148) 
-21.7941

>  <r_i_glide_ecoul>  (148) 
-10.6143

>  <r_i_glide_erotb>  (148) 
0.445518

>  <r_i_glide_esite>  (148) 
-0.157079

>  <r_i_glide_emodel>  (148) 
-38.2411

>  <r_i_glide_energy>  (148) 
-32.4084

>  <r_i_glide_einternal>  (148) 
5.1235

>  <r_i_glide_intrahb_reward>  (148) 
-0

>  <i_i_glide_confnum>  (148) 
3

>  <i_i_glide_posenum>  (148) 
19

>  <r_i_glide_eff_state_penalty>  (148) 
0

>  <ligand_id>  (148) 
41

>  <original_smiles>  (148) 
CC1C2CN(S(C)(=O)=O)CC2CN1Cc1cn[nH]c1

>  <smiles>  (148) 
[H]c1nn([H])c([H])c1C([H])([H])[N+]1([H])C([H])([H])C2([H])C([H])([H])N(S(=O)(=O)C([H])([H])[H])C([H])([H])C2([H])C1([H])C([H])([H])[H]

$$$$
41:0:1
     RDKit          3D

 40 42  0  0  1  0  0  0  0  0999 V2000
    2.7731   -0.2278    1.8577 C   0  0  0  0  0  0  0  0  0  0  0  0
    3.4581   -1.5821    1.5357 C   0  0  2  0  0  0  0  0  0  0  0  0
    3.4399   -2.5591    2.7217 C   0  0  1  0  0  0  0  0  0  0  0  0
    2.3561   -3.6309    2.6220 C   0  0  0  0  0  0  0  0  0  0  0  0
    3.0052   -4.8076    2.0536 N   0  0  0  0  0  0  0  0  0  0  0  0
    2.1114   -6.3036    2.0179 S   0  0  0  0  0  0  0  0  0  0  0  0
    3.3176   -7.5344    1.3723 C   0  0  0  0  0  0  0  0  0  0  0  0
    1.7881   -6.6631    3.4015 O   0  0  0  0  0  0  0  0  0  0  0  0
    1.0137   -6.1385    1.0240 O   0  0  0  0  0  0  0  0  0  0  0  0
    4.3798   -4.7957    2.5597 C   0  0  0  0  0  0  0  0  0  0  0  0
    4.7799   -3.3186    2.6931 C   0  0  1  0  0  0  0  0  0  0  0  0
    5.5507   -2.7568    1.4987 C   0  0  0  0  0  0  0  0  0  0  0  0
    4.8793   -1.4657    1.1296 N   0  0  1  0  0  0  0  0  0  0  0  0
    5.1030   -1.0262   -0.2706 C   0  0  0  0  0  0  0  0  0  0  0  0
    4.3777   -1.8403   -1.3578 C   0  0  0  0  0  0  0  0  0  0  0  0
    3.5331   -1.3322   -2.4091 C   0  0  0  0  0  0  0  0  0  0  0  0
    2.9789   -2.2854   -3.1238 N   0  0  0  0  0  0  0  0  0  0  0  0
    3.4600   -3.4135   -2.5688 N   0  0  0  0  0  0  0  0  0  0  0  0
    4.3424   -3.1949   -1.5730 C   0  0  0  0  0  0  0  0  0  0  0  0
    3.1390   -4.3468   -2.8273 H   0  0  0  0  0  0  0  0  0  0  0  0
    1.7396   -0.4225    2.1441 H   0  0  0  0  0  0  0  0  0  0  0  0
    2.7327    0.4366    0.9882 H   0  0  0  0  0  0  0  0  0  0  0  0
    3.2553    0.3010    2.6853 H   0  0  0  0  0  0  0  0  0  0  0  0
    2.8627   -2.0377    0.7257 H   0  0  0  0  0  0  0  0  0  0  0  0
    3.3728   -2.0148    3.6599 H   0  0  0  0  0  0  0  0  0  0  0  0
    2.0083   -3.8775    3.6253 H   0  0  0  0  0  0  0  0  0  0  0  0
    1.5048   -3.3229    2.0208 H   0  0  0  0  0  0  0  0  0  0  0  0
    2.8259   -8.5088    1.2806 H   0  0  0  0  0  0  0  0  0  0  0  0
    4.1468   -7.6339    2.0773 H   0  0  0  0  0  0  0  0  0  0  0  0
    3.6949   -7.2054    0.4033 H   0  0  0  0  0  0  0  0  0  0  0  0
    4.3709   -5.2516    3.5500 H   0  0  0  0  0  0  0  0  0  0  0  0
    5.0256   -5.3645    1.8898 H   0  0  0  0  0  0  0  0  0  0  0  0
    5.3638   -3.1463    3.5929 H   0  0  0  0  0  0  0  0  0  0  0  0
    6.6339   -2.6262    1.6314 H   0  0  0  0  0  0  0  0  0  0  0  0
    5.4218   -3.5048    0.7214 H   0  0  0  0  0  0  0  0  0  0  0  0
    4.7798    0.0199   -0.3228 H   0  0  0  0  0  0  0  0  0  0  0  0
    6.1781   -0.9524   -0.4548 H   0  0  0  0  0  0  0  0  0  0  0  0
    3.2685   -0.3011   -2.6413 H   0  0  0  0  0  0  0  0  0  0  0  0
    4.7718   -4.0696   -1.0832 H   0  0  0  0  0  0  0  0  0  0  0  0
    5.2808   -0.7334    1.7496 H   0  0  0  0  0  0  0  0  0  0  0  0
  1  2  1  0
  1 21  1  0
  1 22  1  0
  1 23  1  0
  2 13  1  0
  2  3  1  0
  2 24  1  6
  3 11  1  0
  3  4  1  0
  3 25  1  1
  4  5  1  0
  4 26  1  0
  4 27  1  0
  5  6  1  0
  5 10  1  0
  6  7  1  0
  6  8  2  0
  6  9  2  0
  7 28  1  0
  7 29  1  0
  7 30  1  0
 10 11  1  0
 10 31  1  0
 10 32  1  0
 11 12  1  0
 11 33  1  1
 12 13  1  0
 12 34  1  0
 12 35  1  0
 13 14  1  0
 13 40  1  1
 14 15  1  0
 14 36  1  0
 14 37  1  0
 15 19  2  0
 15 16  1  0
 16 17  2  0
 16 38  1  0
 17 18  1  0
 18 20  1  0
 18 19  1  0
 19 39  1  0
M  CHG  1  13   1
M  END
>  <i_m_ct_stereo_status>  (149) 
1

>  <s_m_source_file>  (149) 
/var/tmp/pbs.5076255.sched01/tmpck0ladl8/45htcshi4i.sdf

>  <i_m_source_file_index>  (149) 
14

>  <i_lp_mmshare_version>  (149) 
48012

>  <i_f3d_flags>  (149) 
0

>  <s_epik_input>  (149) 
W2NIXTFbbkhdbltjSF1jMVtDSDJdTihbQ0BASF0yW0NIM10pW0NIMl1bQ0BASF0oW0NAQEhdMjMpW0NIMl1OKFtDSDJdMylTKD1PKSg9TylbQ0gzXQ==

>  <s_epik_cmdline>  (149) 
J2VwaWtfcHl0aG9uJywgJy1waHQnLCAnMi4wJywgJy1waCcsICc3LjAnLCAnLXRuJywgJzgnLCAnLW1hJywgJzIwMCcsICctaW1hZScsICc8aW5maWxlLm1hZT4nLCAnLW9tYWUnLCAnPG91dGZpbGUubWFlPic=

>  <r_lp_tautomer_probability>  (149) 
0.5

>  <r_epik_Ionization_Penalty>  (149) 
0.0652336

>  <r_epik_Ionization_Penalty_Charging>  (149) 
0.0652268

>  <r_epik_Ionization_Penalty_Neutral>  (149) 
6.84431e-06

>  <r_epik_State_Penalty>  (149) 
0.0568696

>  <r_epik_Charging_Adjusted_Penalty>  (149) 
0.122096

>  <i_epik_Tot_Q>  (149) 
1

>  <i_epik_Tot_abs_Q>  (149) 
1

>  <s_lp_Force_Field>  (149) 
OPLS3e

>  <r_lp_Energy>  (149) 
-8.07311

>  <b_lp_Chiralities_Consistent>  (149) 
1

>  <s_lp_Variant>  (149) 
41:0-1

>  <s_i_glide_gridfile>  (149) 
pfpi4k_grid

>  <i_i_glide_lignum>  (149) 
14

>  <i_i_glide_rotatable_bonds>  (149) 
3

>  <r_i_docking_score>  (149) 
-4.21652

>  <r_i_glide_ligand_efficiency>  (149) 
-0.221922

>  <r_i_glide_ligand_efficiency_sa>  (149) 
-0.592177

>  <r_i_glide_ligand_efficiency_ln>  (149) 
-1.06898

>  <r_i_glide_gscore>  (149) 
-4.21652

>  <r_i_glide_lipo>  (149) 
-0.154437

>  <r_i_glide_hbond>  (149) 
-0.32

>  <r_i_glide_metal>  (149) 
-0

>  <r_i_glide_rewards>  (149) 
-1.46327

>  <r_i_glide_evdw>  (149) 
-21.5524

>  <r_i_glide_ecoul>  (149) 
-9.87512

>  <r_i_glide_erotb>  (149) 
0.445518

>  <r_i_glide_esite>  (149) 
-0.165438

>  <r_i_glide_emodel>  (149) 
-36.3713

>  <r_i_glide_energy>  (149) 
-31.4275

>  <r_i_glide_einternal>  (149) 
7.64659

>  <r_i_glide_intrahb_reward>  (149) 
-0

>  <i_i_glide_confnum>  (149) 
3

>  <i_i_glide_posenum>  (149) 
10

>  <r_i_glide_eff_state_penalty>  (149) 
0

>  <ligand_id>  (149) 
41

>  <original_smiles>  (149) 
CC1C2CN(S(C)(=O)=O)CC2CN1Cc1cn[nH]c1

>  <smiles>  (149) 
[H]c1nn([H])c([H])c1C([H])([H])[N+]1([H])C([H])([H])C2([H])C([H])([H])N(S(=O)(=O)C([H])([H])[H])C([H])([H])C2([H])C1([H])C([H])([H])[H]

$$$$
41:0:2
     RDKit          3D

 40 42  0  0  1  0  0  0  0  0999 V2000
    3.6013   -0.3530    1.5791 C   0  0  0  0  0  0  0  0  0  0  0  0
    3.7781   -1.7350    0.8982 C   0  0  2  0  0  0  0  0  0  0  0  0
    3.9704   -2.8553    1.9407 C   0  0  1  0  0  0  0  0  0  0  0  0
    2.7025   -3.6771    2.2173 C   0  0  0  0  0  0  0  0  0  0  0  0
    2.8307   -4.8856    1.4165 N   0  0  0  0  0  0  0  0  0  0  0  0
    1.6617   -6.1636    1.5534 S   0  0  0  0  0  0  0  0  0  0  0  0
    2.6614   -7.6900    1.7625 C   0  0  0  0  0  0  0  0  0  0  0  0
    0.8935   -5.9312    2.7903 O   0  0  0  0  0  0  0  0  0  0  0  0
    0.9398   -6.2473    0.2747 O   0  0  0  0  0  0  0  0  0  0  0  0
    4.2520   -5.1911    1.2844 C   0  0  0  0  0  0  0  0  0  0  0  0
    4.9799   -3.8418    1.3403 C   0  0  1  0  0  0  0  0  0  0  0  0
    5.3077   -3.2746   -0.0364 C   0  0  0  0  0  0  0  0  0  0  0  0
    4.9577   -1.8286    0.0085 N   0  0  1  0  0  0  0  0  0  0  0  0
    4.8182   -1.1447   -1.3124 C   0  0  0  0  0  0  0  0  0  0  0  0
    4.2646   -2.0548   -2.3754 C   0  0  0  0  0  0  0  0  0  0  0  0
    4.9921   -2.9711   -3.1982 C   0  0  0  0  0  0  0  0  0  0  0  0
    4.2129   -3.7023   -3.9800 N   0  0  0  0  0  0  0  0  0  0  0  0
    2.9710   -3.2855   -3.6692 N   0  0  0  0  0  0  0  0  0  0  0  0
    2.9633   -2.2950   -2.7153 C   0  0  0  0  0  0  0  0  0  0  0  0
    2.1496   -3.7538   -4.0314 H   0  0  0  0  0  0  0  0  0  0  0  0
    2.7219   -0.3870    2.2249 H   0  0  0  0  0  0  0  0  0  0  0  0
    3.4258    0.4506    0.8613 H   0  0  0  0  0  0  0  0  0  0  0  0
    4.4537   -0.0668    2.2010 H   0  0  0  0  0  0  0  0  0  0  0  0
    2.8970   -1.9449    0.2908 H   0  0  0  0  0  0  0  0  0  0  0  0
    4.3746   -2.4675    2.8734 H   0  0  0  0  0  0  0  0  0  0  0  0
    2.6794   -3.9698    3.2694 H   0  0  0  0  0  0  0  0  0  0  0  0
    1.7858   -3.1399    1.9806 H   0  0  0  0  0  0  0  0  0  0  0  0
    1.9913   -8.5527    1.8512 H   0  0  0  0  0  0  0  0  0  0  0  0
    3.2662   -7.6075    2.6683 H   0  0  0  0  0  0  0  0  0  0  0  0
    3.3020   -7.8278    0.8879 H   0  0  0  0  0  0  0  0  0  0  0  0
    4.5596   -5.7602    2.1639 H   0  0  0  0  0  0  0  0  0  0  0  0
    4.4576   -5.7786    0.3841 H   0  0  0  0  0  0  0  0  0  0  0  0
    5.8871   -3.9077    1.9420 H   0  0  0  0  0  0  0  0  0  0  0  0
    6.3474   -3.4391   -0.3385 H   0  0  0  0  0  0  0  0  0  0  0  0
    4.6602   -3.8132   -0.7350 H   0  0  0  0  0  0  0  0  0  0  0  0
    4.2154   -0.2415   -1.2093 H   0  0  0  0  0  0  0  0  0  0  0  0
    5.8003   -0.7862   -1.6199 H   0  0  0  0  0  0  0  0  0  0  0  0
    6.0597   -3.1383   -3.2272 H   0  0  0  0  0  0  0  0  0  0  0  0
    2.0394   -1.8832   -2.3288 H   0  0  0  0  0  0  0  0  0  0  0  0
    5.7068   -1.3539    0.5004 H   0  0  0  0  0  0  0  0  0  0  0  0
  1  2  1  0
  1 21  1  0
  1 22  1  0
  1 23  1  0
  2 13  1  0
  2  3  1  0
  2 24  1  6
  3 11  1  0
  3  4  1  0
  3 25  1  1
  4  5  1  0
  4 26  1  0
  4 27  1  0
  5  6  1  0
  5 10  1  0
  6  7  1  0
  6  8  2  0
  6  9  2  0
  7 28  1  0
  7 29  1  0
  7 30  1  0
 10 11  1  0
 10 31  1  0
 10 32  1  0
 11 12  1  0
 11 33  1  1
 12 13  1  0
 12 34  1  0
 12 35  1  0
 13 14  1  0
 13 40  1  1
 14 15  1  0
 14 36  1  0
 14 37  1  0
 15 19  2  0
 15 16  1  0
 16 17  2  0
 16 38  1  0
 17 18  1  0
 18 20  1  0
 18 19  1  0
 19 39  1  0
M  CHG  1  13   1
M  END
>  <i_m_ct_stereo_status>  (150) 
1

>  <s_m_source_file>  (150) 
/var/tmp/pbs.5076255.sched01/tmpck0ladl8/45htcshi4i.sdf

>  <i_m_source_file_index>  (150) 
14

>  <i_lp_mmshare_version>  (150) 
48012

>  <i_f3d_flags>  (150) 
0

>  <s_epik_input>  (150) 
W2NIXTFbbkhdbltjSF1jMVtDSDJdTihbQ0BASF0yW0NIM10pW0NIMl1bQ0BASF0oW0NAQEhdMjMpW0NIMl1OKFtDSDJdMylTKD1PKSg9TylbQ0gzXQ==

>  <s_epik_cmdline>  (150) 
J2VwaWtfcHl0aG9uJywgJy1waHQnLCAnMi4wJywgJy1waCcsICc3LjAnLCAnLXRuJywgJzgnLCAnLW1hJywgJzIwMCcsICctaW1hZScsICc8aW5maWxlLm1hZT4nLCAnLW9tYWUnLCAnPG91dGZpbGUubWFlPic=

>  <r_lp_tautomer_probability>  (150) 
0.5

>  <r_epik_Ionization_Penalty>  (150) 
0.0652336

>  <r_epik_Ionization_Penalty_Charging>  (150) 
0.0652268

>  <r_epik_Ionization_Penalty_Neutral>  (150) 
6.84431e-06

>  <r_epik_State_Penalty>  (150) 
0.0568696

>  <r_epik_Charging_Adjusted_Penalty>  (150) 
0.122096

>  <i_epik_Tot_Q>  (150) 
1

>  <i_epik_Tot_abs_Q>  (150) 
1

>  <s_lp_Force_Field>  (150) 
OPLS3e

>  <r_lp_Energy>  (150) 
-8.07311

>  <b_lp_Chiralities_Consistent>  (150) 
1

>  <s_lp_Variant>  (150) 
41:0-1

>  <s_i_glide_gridfile>  (150) 
pfpi4k_grid

>  <i_i_glide_lignum>  (150) 
14

>  <i_i_glide_rotatable_bonds>  (150) 
3

>  <r_i_docking_score>  (150) 
-4.15894

>  <r_i_glide_ligand_efficiency>  (150) 
-0.218891

>  <r_i_glide_ligand_efficiency_sa>  (150) 
-0.58409

>  <r_i_glide_ligand_efficiency_ln>  (150) 
-1.05438

>  <r_i_glide_gscore>  (150) 
-4.15894

>  <r_i_glide_lipo>  (150) 
-0.280737

>  <r_i_glide_hbond>  (150) 
0

>  <r_i_glide_metal>  (150) 
-0

>  <r_i_glide_rewards>  (150) 
-1.46327

>  <r_i_glide_evdw>  (150) 
-27.1979

>  <r_i_glide_ecoul>  (150) 
-8.54102

>  <r_i_glide_erotb>  (150) 
0.445518

>  <r_i_glide_esite>  (150) 
-0.219394

>  <r_i_glide_emodel>  (150) 
-36.8312

>  <r_i_glide_energy>  (150) 
-35.7389

>  <r_i_glide_einternal>  (150) 
15.2175

>  <r_i_glide_intrahb_reward>  (150) 
-0

>  <i_i_glide_confnum>  (150) 
3

>  <i_i_glide_posenum>  (150) 
8

>  <r_i_glide_eff_state_penalty>  (150) 
0

>  <ligand_id>  (150) 
41

>  <original_smiles>  (150) 
CC1C2CN(S(C)(=O)=O)CC2CN1Cc1cn[nH]c1

>  <smiles>  (150) 
[H]c1nn([H])c([H])c1C([H])([H])[N+]1([H])C([H])([H])C2([H])C([H])([H])N(S(=O)(=O)C([H])([H])[H])C([H])([H])C2([H])C1([H])C([H])([H])[H]

$$$$
41:1:0
     RDKit          3D

 39 41  0  0  1  0  0  0  0  0999 V2000
    4.5217   -8.0365    1.1041 C   0  0  0  0  0  0  0  0  0  0  0  0
    3.6741   -6.7509    1.0830 C   0  0  2  0  0  0  0  0  0  0  0  0
    4.4714   -5.5181    1.5470 C   0  0  1  0  0  0  0  0  0  0  0  0
    5.0094   -4.6144    0.4302 C   0  0  0  0  0  0  0  0  0  0  0  0
    4.7068   -3.2535    0.8621 N   0  0  0  0  0  0  0  0  0  0  0  0
    5.0848   -1.8845   -0.1342 S   0  0  0  0  0  0  0  0  0  0  0  0
    3.8249   -1.9766   -1.4676 C   0  0  0  0  0  0  0  0  0  0  0  0
    4.8306   -0.6682    0.6608 O   0  0  0  0  0  0  0  0  0  0  0  0
    6.4099   -2.1048   -0.7357 O   0  0  0  0  0  0  0  0  0  0  0  0
    3.5033   -3.2694    1.6853 C   0  0  0  0  0  0  0  0  0  0  0  0
    3.4853   -4.6647    2.3081 C   0  0  1  0  0  0  0  0  0  0  0  0
    2.1741   -5.4092    2.1976 C   0  0  0  0  0  0  0  0  0  0  0  0
    2.5497   -6.8087    2.0184 N   0  0  0  0  0  0  0  0  0  0  0  0
    1.4305   -7.6391    1.5580 C   0  0  0  0  0  0  0  0  0  0  0  0
    0.4108   -7.9477    2.6353 C   0  0  0  0  0  0  0  0  0  0  0  0
   -0.2336   -7.0814    3.5731 C   0  0  0  0  0  0  0  0  0  0  0  0
   -1.0657   -7.7049    4.3916 N   0  0  0  0  0  0  0  0  0  0  0  0
   -0.9855   -8.9887    4.0052 N   0  0  0  0  0  0  0  0  0  0  0  0
   -0.1403   -9.1738    2.9425 C   0  0  0  0  0  0  0  0  0  0  0  0
   -1.5208   -9.7261    4.4804 H   0  0  0  0  0  0  0  0  0  0  0  0
    5.4120   -7.9210    0.4850 H   0  0  0  0  0  0  0  0  0  0  0  0
    3.9752   -8.8952    0.7172 H   0  0  0  0  0  0  0  0  0  0  0  0
    4.8541   -8.2841    2.1121 H   0  0  0  0  0  0  0  0  0  0  0  0
    3.2942   -6.5716    0.0795 H   0  0  0  0  0  0  0  0  0  0  0  0
    5.2748   -5.7953    2.2306 H   0  0  0  0  0  0  0  0  0  0  0  0
    6.0825   -4.7428    0.2831 H   0  0  0  0  0  0  0  0  0  0  0  0
    4.4824   -4.7977   -0.5050 H   0  0  0  0  0  0  0  0  0  0  0  0
    3.9865   -1.1463   -2.1551 H   0  0  0  0  0  0  0  0  0  0  0  0
    2.8273   -1.8844   -1.0343 H   0  0  0  0  0  0  0  0  0  0  0  0
    3.9216   -2.9251   -1.9973 H   0  0  0  0  0  0  0  0  0  0  0  0
    3.5381   -2.4737    2.4337 H   0  0  0  0  0  0  0  0  0  0  0  0
    2.6393   -3.1049    1.0406 H   0  0  0  0  0  0  0  0  0  0  0  0
    3.7753   -4.6138    3.3550 H   0  0  0  0  0  0  0  0  0  0  0  0
    1.6137   -5.2143    3.1038 H   0  0  0  0  0  0  0  0  0  0  0  0
    1.6132   -5.0718    1.3300 H   0  0  0  0  0  0  0  0  0  0  0  0
    0.9550   -7.1617    0.7042 H   0  0  0  0  0  0  0  0  0  0  0  0
    1.8210   -8.5714    1.1448 H   0  0  0  0  0  0  0  0  0  0  0  0
   -0.1344   -6.0145    3.7033 H   0  0  0  0  0  0  0  0  0  0  0  0
    0.0058  -10.1564    2.5075 H   0  0  0  0  0  0  0  0  0  0  0  0
  1  2  1  0
  1 21  1  0
  1 22  1  0
  1 23  1  0
  2 13  1  0
  2  3  1  0
  2 24  1  6
  3 11  1  0
  3  4  1  0
  3 25  1  1
  4  5  1  0
  4 26  1  0
  4 27  1  0
  5  6  1  0
  5 10  1  0
  6  7  1  0
  6  8  2  0
  6  9  2  0
  7 28  1  0
  7 29  1  0
  7 30  1  0
 10 11  1  0
 10 31  1  0
 10 32  1  0
 11 12  1  0
 11 33  1  1
 12 13  1  0
 12 34  1  0
 12 35  1  0
 13 14  1  0
 14 15  1  0
 14 36  1  0
 14 37  1  0
 15 19  2  0
 15 16  1  0
 16 17  2  0
 16 38  1  0
 17 18  1  0
 18 20  1  0
 18 19  1  0
 19 39  1  0
M  END
>  <i_m_ct_stereo_status>  (151) 
1

>  <s_m_source_file>  (151) 
/var/tmp/pbs.5076255.sched01/tmpck0ladl8/45htcshi4i.sdf

>  <i_m_source_file_index>  (151) 
15

>  <i_lp_mmshare_version>  (151) 
48012

>  <i_f3d_flags>  (151) 
0

>  <s_epik_input>  (151) 
W2NIXTFbbkhdbltjSF1jMVtDSDJdTihbQ0BASF0yW0NIM10pW0NIMl1bQ0BASF0oW0NAQEhdMjMpW0NIMl1OKFtDSDJdMylTKD1PKSg9TylbQ0gzXQ==

>  <s_epik_cmdline>  (151) 
J2VwaWtfcHl0aG9uJywgJy1waHQnLCAnMi4wJywgJy1waCcsICc3LjAnLCAnLXRuJywgJzgnLCAnLW1hJywgJzIwMCcsICctaW1hZScsICc8aW5maWxlLm1hZT4nLCAnLW9tYWUnLCAnPG91dGZpbGUubWFlPic=

>  <r_lp_tautomer_probability>  (151) 
0.5

>  <r_epik_Ionization_Penalty>  (151) 
1.33963

>  <r_epik_Ionization_Penalty_Charging>  (151) 
0

>  <r_epik_Ionization_Penalty_Neutral>  (151) 
1.33963

>  <r_epik_State_Penalty>  (151) 
1.41674

>  <r_epik_Charging_Adjusted_Penalty>  (151) 
1.41674

>  <i_epik_Tot_Q>  (151) 
0

>  <i_epik_Tot_abs_Q>  (151) 
0

>  <s_lp_Force_Field>  (151) 
OPLS3e

>  <r_lp_Energy>  (151) 
-6.41354

>  <b_lp_Chiralities_Consistent>  (151) 
1

>  <s_lp_Variant>  (151) 
41:0-2

>  <s_i_glide_gridfile>  (151) 
pfpi4k_grid

>  <i_i_glide_lignum>  (151) 
15

>  <i_i_glide_rotatable_bonds>  (151) 
3

>  <r_i_docking_score>  (151) 
-3.91022

>  <r_i_glide_ligand_efficiency>  (151) 
-0.205801

>  <r_i_glide_ligand_efficiency_sa>  (151) 
-0.54916

>  <r_i_glide_ligand_efficiency_ln>  (151) 
-0.991326

>  <r_i_glide_gscore>  (151) 
-3.91022

>  <r_i_glide_lipo>  (151) 
-0.183534

>  <r_i_glide_hbond>  (151) 
-0.16

>  <r_i_glide_metal>  (151) 
-0

>  <r_i_glide_rewards>  (151) 
-1.50466

>  <r_i_glide_evdw>  (151) 
-23.6863

>  <r_i_glide_ecoul>  (151) 
-7.80703

>  <r_i_glide_erotb>  (151) 
0.44827

>  <r_i_glide_esite>  (151) 
-0.154932

>  <r_i_glide_emodel>  (151) 
-39.4936

>  <r_i_glide_energy>  (151) 
-31.4933

>  <r_i_glide_einternal>  (151) 
0.896248

>  <r_i_glide_intrahb_reward>  (151) 
-0

>  <i_i_glide_confnum>  (151) 
4

>  <i_i_glide_posenum>  (151) 
2

>  <r_i_glide_eff_state_penalty>  (151) 
0

>  <ligand_id>  (151) 
41

>  <original_smiles>  (151) 
CC1C2CN(S(C)(=O)=O)CC2CN1Cc1cn[nH]c1

>  <smiles>  (151) 
[H]c1nn([H])c([H])c1C([H])([H])N1C([H])([H])C2([H])C([H])([H])N(S(=O)(=O)C([H])([H])[H])C([H])([H])C2([H])C1([H])C([H])([H])[H]

$$$$
41:1:1
     RDKit          3D

 39 41  0  0  1  0  0  0  0  0999 V2000
    1.0967  -10.9745    4.4693 C   0  0  0  0  0  0  0  0  0  0  0  0
    1.3876   -9.5711    5.0247 C   0  0  2  0  0  0  0  0  0  0  0  0
    0.3996   -9.1562    6.1258 C   0  0  1  0  0  0  0  0  0  0  0  0
    0.8917   -9.3262    7.5681 C   0  0  0  0  0  0  0  0  0  0  0  0
    0.4998   -8.0977    8.2487 N   0  0  0  0  0  0  0  0  0  0  0  0
    0.9254   -7.8208    9.9015 S   0  0  0  0  0  0  0  0  0  0  0  0
    2.7342   -7.5020    9.8333 C   0  0  0  0  0  0  0  0  0  0  0  0
    0.2414   -6.5926   10.3247 O   0  0  0  0  0  0  0  0  0  0  0  0
    0.6967   -9.0718   10.6349 O   0  0  0  0  0  0  0  0  0  0  0  0
    0.4838   -7.0006    7.2866 C   0  0  0  0  0  0  0  0  0  0  0  0
    0.1927   -7.6661    5.9339 C   0  0  1  0  0  0  0  0  0  0  0  0
    1.1016   -7.2834    4.7771 C   0  0  0  0  0  0  0  0  0  0  0  0
    1.2321   -8.5206    4.0162 N   0  0  0  0  0  0  0  0  0  0  0  0
    2.3562   -8.4459    3.0854 C   0  0  0  0  0  0  0  0  0  0  0  0
    2.1149   -7.4396    1.9958 C   0  0  0  0  0  0  0  0  0  0  0  0
    0.8967   -7.2021    1.2957 C   0  0  0  0  0  0  0  0  0  0  0  0
    0.9900   -6.2408    0.3980 N   0  0  0  0  0  0  0  0  0  0  0  0
    2.2757   -5.8509    0.4821 N   0  0  0  0  0  0  0  0  0  0  0  0
    2.9909   -6.5541    1.4176 C   0  0  0  0  0  0  0  0  0  0  0  0
    2.6552   -5.1535   -0.1448 H   0  0  0  0  0  0  0  0  0  0  0  0
    1.1184  -11.7132    5.2716 H   0  0  0  0  0  0  0  0  0  0  0  0
    1.8360  -11.2801    3.7331 H   0  0  0  0  0  0  0  0  0  0  0  0
    0.1157  -11.0320    4.0011 H   0  0  0  0  0  0  0  0  0  0  0  0
    2.4007   -9.5297    5.4220 H   0  0  0  0  0  0  0  0  0  0  0  0
   -0.5631   -9.6579    6.0155 H   0  0  0  0  0  0  0  0  0  0  0  0
    0.4609  -10.2031    8.0582 H   0  0  0  0  0  0  0  0  0  0  0  0
    1.9774   -9.4022    7.6029 H   0  0  0  0  0  0  0  0  0  0  0  0
    3.0993   -7.3186   10.8442 H   0  0  0  0  0  0  0  0  0  0  0  0
    2.9293   -6.6283    9.2156 H   0  0  0  0  0  0  0  0  0  0  0  0
    3.2404   -8.3736    9.4224 H   0  0  0  0  0  0  0  0  0  0  0  0
   -0.2757   -6.2663    7.5630 H   0  0  0  0  0  0  0  0  0  0  0  0
    1.4609   -6.5169    7.2893 H   0  0  0  0  0  0  0  0  0  0  0  0
   -0.8418   -7.4961    5.6380 H   0  0  0  0  0  0  0  0  0  0  0  0
    0.6763   -6.4784    4.1781 H   0  0  0  0  0  0  0  0  0  0  0  0
    2.0733   -6.9656    5.1484 H   0  0  0  0  0  0  0  0  0  0  0  0
    3.2713   -8.2199    3.6330 H   0  0  0  0  0  0  0  0  0  0  0  0
    2.5106   -9.4256    2.6370 H   0  0  0  0  0  0  0  0  0  0  0  0
   -0.0534   -7.7023    1.4247 H   0  0  0  0  0  0  0  0  0  0  0  0
    4.0429   -6.3726    1.5890 H   0  0  0  0  0  0  0  0  0  0  0  0
  1  2  1  0
  1 21  1  0
  1 22  1  0
  1 23  1  0
  2 13  1  0
  2  3  1  0
  2 24  1  1
  3 11  1  0
  3  4  1  0
  3 25  1  1
  4  5  1  0
  4 26  1  0
  4 27  1  0
  5  6  1  0
  5 10  1  0
  6  7  1  0
  6  8  2  0
  6  9  2  0
  7 28  1  0
  7 29  1  0
  7 30  1  0
 10 11  1  0
 10 31  1  0
 10 32  1  0
 11 12  1  0
 11 33  1  6
 12 13  1  0
 12 34  1  0
 12 35  1  0
 13 14  1  0
 14 15  1  0
 14 36  1  0
 14 37  1  0
 15 19  2  0
 15 16  1  0
 16 17  2  0
 16 38  1  0
 17 18  1  0
 18 20  1  0
 18 19  1  0
 19 39  1  0
M  END
>  <i_m_ct_stereo_status>  (152) 
1

>  <s_m_source_file>  (152) 
/var/tmp/pbs.5076255.sched01/tmpck0ladl8/45htcshi4i.sdf

>  <i_m_source_file_index>  (152) 
15

>  <i_lp_mmshare_version>  (152) 
48012

>  <i_f3d_flags>  (152) 
0

>  <s_epik_input>  (152) 
W2NIXTFbbkhdbltjSF1jMVtDSDJdTihbQ0BASF0yW0NIM10pW0NIMl1bQ0BASF0oW0NAQEhdMjMpW0NIMl1OKFtDSDJdMylTKD1PKSg9TylbQ0gzXQ==

>  <s_epik_cmdline>  (152) 
J2VwaWtfcHl0aG9uJywgJy1waHQnLCAnMi4wJywgJy1waCcsICc3LjAnLCAnLXRuJywgJzgnLCAnLW1hJywgJzIwMCcsICctaW1hZScsICc8aW5maWxlLm1hZT4nLCAnLW9tYWUnLCAnPG91dGZpbGUubWFlPic=

>  <r_lp_tautomer_probability>  (152) 
0.5

>  <r_epik_Ionization_Penalty>  (152) 
1.33963

>  <r_epik_Ionization_Penalty_Charging>  (152) 
0

>  <r_epik_Ionization_Penalty_Neutral>  (152) 
1.33963

>  <r_epik_State_Penalty>  (152) 
1.41674

>  <r_epik_Charging_Adjusted_Penalty>  (152) 
1.41674

>  <i_epik_Tot_Q>  (152) 
0

>  <i_epik_Tot_abs_Q>  (152) 
0

>  <s_lp_Force_Field>  (152) 
OPLS3e

>  <r_lp_Energy>  (152) 
-6.41354

>  <b_lp_Chiralities_Consistent>  (152) 
1

>  <s_lp_Variant>  (152) 
41:0-2

>  <s_i_glide_gridfile>  (152) 
pfpi4k_grid

>  <i_i_glide_lignum>  (152) 
15

>  <i_i_glide_rotatable_bonds>  (152) 
3

>  <r_i_docking_score>  (152) 
-3.7308

>  <r_i_glide_ligand_efficiency>  (152) 
-0.196358

>  <r_i_glide_ligand_efficiency_sa>  (152) 
-0.523962

>  <r_i_glide_ligand_efficiency_ln>  (152) 
-0.945838

>  <r_i_glide_gscore>  (152) 
-3.7308

>  <r_i_glide_lipo>  (152) 
-0.0573907

>  <r_i_glide_hbond>  (152) 
-0.245476

>  <r_i_glide_metal>  (152) 
-0

>  <r_i_glide_rewards>  (152) 
-1.47014

>  <r_i_glide_evdw>  (152) 
-19.3664

>  <r_i_glide_ecoul>  (152) 
-8.53892

>  <r_i_glide_erotb>  (152) 
0.44827

>  <r_i_glide_esite>  (152) 
-0.156899

>  <r_i_glide_emodel>  (152) 
-36.1224

>  <r_i_glide_energy>  (152) 
-27.9053

>  <r_i_glide_einternal>  (152) 
0.00567579

>  <r_i_glide_intrahb_reward>  (152) 
-0

>  <i_i_glide_confnum>  (152) 
6

>  <i_i_glide_posenum>  (152) 
3

>  <r_i_glide_eff_state_penalty>  (152) 
0

>  <ligand_id>  (152) 
41

>  <original_smiles>  (152) 
CC1C2CN(S(C)(=O)=O)CC2CN1Cc1cn[nH]c1

>  <smiles>  (152) 
[H]c1nn([H])c([H])c1C([H])([H])N1C([H])([H])C2([H])C([H])([H])N(S(=O)(=O)C([H])([H])[H])C([H])([H])C2([H])C1([H])C([H])([H])[H]

$$$$
41:1:2
     RDKit          3D

 39 41  0  0  1  0  0  0  0  0999 V2000
    5.4353   -7.1151    2.2179 C   0  0  0  0  0  0  0  0  0  0  0  0
    4.2845   -6.5906    1.3312 C   0  0  2  0  0  0  0  0  0  0  0  0
    4.3964   -5.0732    1.0650 C   0  0  1  0  0  0  0  0  0  0  0  0
    4.9994   -4.6653   -0.2838 C   0  0  0  0  0  0  0  0  0  0  0  0
    4.1343   -3.5895   -0.7692 N   0  0  0  0  0  0  0  0  0  0  0  0
    4.3980   -2.8596   -2.3290 S   0  0  0  0  0  0  0  0  0  0  0  0
    3.9131   -1.1005   -2.0446 C   0  0  0  0  0  0  0  0  0  0  0  0
    5.8439   -2.8867   -2.5856 O   0  0  0  0  0  0  0  0  0  0  0  0
    3.4552   -3.4415   -3.2930 O   0  0  0  0  0  0  0  0  0  0  0  0
    2.7808   -3.8108   -0.2749 C   0  0  0  0  0  0  0  0  0  0  0  0
    2.9712   -4.5743    1.0334 C   0  0  1  0  0  0  0  0  0  0  0  0
    2.1123   -5.8201    1.1895 C   0  0  0  0  0  0  0  0  0  0  0  0
    2.9607   -6.7361    1.9467 N   0  0  0  0  0  0  0  0  0  0  0  0
    2.4488   -8.1079    1.9411 C   0  0  0  0  0  0  0  0  0  0  0  0
    1.1496   -8.2829    2.7250 C   0  0  0  0  0  0  0  0  0  0  0  0
    0.2716   -7.2775    3.2404 C   0  0  0  0  0  0  0  0  0  0  0  0
   -0.7930   -7.7792    3.8485 N   0  0  0  0  0  0  0  0  0  0  0  0
   -0.6086   -9.1105    3.7972 N   0  0  0  0  0  0  0  0  0  0  0  0
    0.5437   -9.4495    3.1244 C   0  0  0  0  0  0  0  0  0  0  0  0
   -1.2477   -9.7663    4.2483 H   0  0  0  0  0  0  0  0  0  0  0  0
    6.4038   -6.8903    1.7674 H   0  0  0  0  0  0  0  0  0  0  0  0
    5.3884   -8.1957    2.3487 H   0  0  0  0  0  0  0  0  0  0  0  0
    5.4245   -6.6595    3.2087 H   0  0  0  0  0  0  0  0  0  0  0  0
    4.2888   -7.1259    0.3799 H   0  0  0  0  0  0  0  0  0  0  0  0
    4.9268   -4.5683    1.8787 H   0  0  0  0  0  0  0  0  0  0  0  0
    6.0314   -4.3291   -0.1989 H   0  0  0  0  0  0  0  0  0  0  0  0
    4.9468   -5.4884   -1.0012 H   0  0  0  0  0  0  0  0  0  0  0  0
    4.0411   -0.5484   -2.9736 H   0  0  0  0  0  0  0  0  0  0  0  0
    4.5399   -0.6791   -1.2636 H   0  0  0  0  0  0  0  0  0  0  0  0
    2.8676   -1.0667   -1.7450 H   0  0  0  0  0  0  0  0  0  0  0  0
    2.2532   -2.8667   -0.1519 H   0  0  0  0  0  0  0  0  0  0  0  0
    2.2448   -4.4181   -1.0090 H   0  0  0  0  0  0  0  0  0  0  0  0
    2.8081   -3.9125    1.8779 H   0  0  0  0  0  0  0  0  0  0  0  0
    1.1881   -5.5668    1.6905 H   0  0  0  0  0  0  0  0  0  0  0  0
    1.9050   -6.2583    0.2110 H   0  0  0  0  0  0  0  0  0  0  0  0
    2.3312   -8.4361    0.9114 H   0  0  0  0  0  0  0  0  0  0  0  0
    3.2052   -8.7802    2.3407 H   0  0  0  0  0  0  0  0  0  0  0  0
    0.3893   -6.2101    3.1795 H   0  0  0  0  0  0  0  0  0  0  0  0
    0.8394  -10.4913    3.0057 H   0  0  0  0  0  0  0  0  0  0  0  0
  1  2  1  0
  1 21  1  0
  1 22  1  0
  1 23  1  0
  2 13  1  0
  2  3  1  0
  2 24  1  6
  3 11  1  0
  3  4  1  0
  3 25  1  1
  4  5  1  0
  4 26  1  0
  4 27  1  0
  5  6  1  0
  5 10  1  0
  6  7  1  0
  6  8  2  0
  6  9  2  0
  7 28  1  0
  7 29  1  0
  7 30  1  0
 10 11  1  0
 10 31  1  0
 10 32  1  0
 11 12  1  0
 11 33  1  1
 12 13  1  0
 12 34  1  0
 12 35  1  0
 13 14  1  0
 14 15  1  0
 14 36  1  0
 14 37  1  0
 15 19  2  0
 15 16  1  0
 16 17  2  0
 16 38  1  0
 17 18  1  0
 18 20  1  0
 18 19  1  0
 19 39  1  0
M  END
>  <i_m_ct_stereo_status>  (153) 
1

>  <s_m_source_file>  (153) 
/var/tmp/pbs.5076255.sched01/tmpck0ladl8/45htcshi4i.sdf

>  <i_m_source_file_index>  (153) 
15

>  <i_lp_mmshare_version>  (153) 
48012

>  <i_f3d_flags>  (153) 
0

>  <s_epik_input>  (153) 
W2NIXTFbbkhdbltjSF1jMVtDSDJdTihbQ0BASF0yW0NIM10pW0NIMl1bQ0BASF0oW0NAQEhdMjMpW0NIMl1OKFtDSDJdMylTKD1PKSg9TylbQ0gzXQ==

>  <s_epik_cmdline>  (153) 
J2VwaWtfcHl0aG9uJywgJy1waHQnLCAnMi4wJywgJy1waCcsICc3LjAnLCAnLXRuJywgJzgnLCAnLW1hJywgJzIwMCcsICctaW1hZScsICc8aW5maWxlLm1hZT4nLCAnLW9tYWUnLCAnPG91dGZpbGUubWFlPic=

>  <r_lp_tautomer_probability>  (153) 
0.5

>  <r_epik_Ionization_Penalty>  (153) 
1.33963

>  <r_epik_Ionization_Penalty_Charging>  (153) 
0

>  <r_epik_Ionization_Penalty_Neutral>  (153) 
1.33963

>  <r_epik_State_Penalty>  (153) 
1.41674

>  <r_epik_Charging_Adjusted_Penalty>  (153) 
1.41674

>  <i_epik_Tot_Q>  (153) 
0

>  <i_epik_Tot_abs_Q>  (153) 
0

>  <s_lp_Force_Field>  (153) 
OPLS3e

>  <r_lp_Energy>  (153) 
-6.41354

>  <b_lp_Chiralities_Consistent>  (153) 
1

>  <s_lp_Variant>  (153) 
41:0-2

>  <s_i_glide_gridfile>  (153) 
pfpi4k_grid

>  <i_i_glide_lignum>  (153) 
15

>  <i_i_glide_rotatable_bonds>  (153) 
3

>  <r_i_docking_score>  (153) 
-3.42871

>  <r_i_glide_ligand_efficiency>  (153) 
-0.180459

>  <r_i_glide_ligand_efficiency_sa>  (153) 
-0.481536

>  <r_i_glide_ligand_efficiency_ln>  (153) 
-0.869252

>  <r_i_glide_gscore>  (153) 
-3.42871

>  <r_i_glide_lipo>  (153) 
-0.159058

>  <r_i_glide_hbond>  (153) 
-0.16

>  <r_i_glide_metal>  (153) 
-0

>  <r_i_glide_rewards>  (153) 
-1.49671

>  <r_i_glide_evdw>  (153) 
-28.0612

>  <r_i_glide_ecoul>  (153) 
-3.82479

>  <r_i_glide_erotb>  (153) 
0.44827

>  <r_i_glide_esite>  (153) 
-0.0844322

>  <r_i_glide_emodel>  (153) 
-37.2284

>  <r_i_glide_energy>  (153) 
-31.886

>  <r_i_glide_einternal>  (153) 
3.24151

>  <r_i_glide_intrahb_reward>  (153) 
-0

>  <i_i_glide_confnum>  (153) 
4

>  <i_i_glide_posenum>  (153) 
27

>  <r_i_glide_eff_state_penalty>  (153) 
0

>  <ligand_id>  (153) 
41

>  <original_smiles>  (153) 
CC1C2CN(S(C)(=O)=O)CC2CN1Cc1cn[nH]c1

>  <smiles>  (153) 
[H]c1nn([H])c([H])c1C([H])([H])N1C([H])([H])C2([H])C([H])([H])N(S(=O)(=O)C([H])([H])[H])C([H])([H])C2([H])C1([H])C([H])([H])[H]

$$$$
42:0:0
     RDKit          3D

 75 84  0  0  1  0  0  0  0  0999 V2000
    9.0022   -3.5749    0.3633 C   0  0  0  0  0  0  0  0  0  0  0  0
    7.6419   -3.9824    0.4156 O   0  0  0  0  0  0  0  0  0  0  0  0
    6.6189   -3.0185    0.1010 C   0  0  2  0  0  0  0  0  0  0  0  0
    7.1624   -1.9216   -0.6661 O   0  0  0  0  0  0  0  0  0  0  0  0
    7.1006   -1.0657    0.4519 C   0  0  0  0  0  0  0  0  0  0  0  0
    6.4338   -1.9170    1.2299 C   0  0  0  0  0  0  0  0  0  0  0  0
    5.8048   -1.6462    2.4767 O   0  0  0  0  0  0  0  0  0  0  0  0
    4.6508   -2.2860    3.0844 C   0  0  2  0  0  0  0  0  0  0  0  0
    5.1863   -3.3003    4.1445 C   0  0  0  0  0  0  0  0  0  0  0  0
    3.9646   -3.8584    4.8636 C   0  0  2  0  0  0  0  0  0  0  0  0
    3.3400   -5.2224    4.3254 C   0  0  0  0  0  0  0  0  0  0  0  0
    2.3484   -5.4598    3.1030 C   0  0  0  0  0  0  0  0  0  0  0  0
    2.8834   -5.9803    1.6927 C   0  0  1  0  0  0  0  0  0  0  0  0
    1.9817   -6.9833    1.2773 O   0  0  0  0  0  0  0  0  0  0  0  0
    3.2345   -4.9144    0.4689 C   0  0  2  0  0  0  0  0  0  0  0  0
    1.9031   -4.6544   -0.2856 C   0  0  0  0  0  0  0  0  0  0  0  0
    4.6310   -5.0643   -0.4203 C   0  0  2  0  0  0  0  0  0  0  0  0
    5.4577   -5.4985    0.6615 C   0  0  0  0  0  0  0  0  0  0  0  0
    5.0765   -4.6345    1.5737 C   0  0  0  0  0  0  0  0  0  0  0  0
    3.9426   -3.6717    0.9955 C   0  0  2  0  0  0  0  0  0  0  0  0
    3.4902   -2.6898    2.0817 C   0  0  2  0  0  0  0  0  0  0  0  0
    2.6658   -1.4590    1.5720 C   0  0  0  0  0  0  0  0  0  0  0  0
    1.9885   -0.7775    2.7422 C   0  0  2  0  0  0  0  0  0  0  0  0
    1.3133    0.4277    2.4988 O   0  0  0  0  0  0  0  0  0  0  0  0
    1.3271    1.0577    3.7433 C   0  0  0  0  0  0  0  0  0  0  0  0
    2.2952    0.4621    4.5625 O   0  0  0  0  0  0  0  0  0  0  0  0
    3.0673   -0.2922    3.6602 C   0  0  1  0  0  0  0  0  0  0  0  0
    3.9017   -1.4636    4.1994 C   0  0  1  0  0  0  0  0  0  0  0  0
    3.1319   -2.5635    5.0247 C   0  0  0  0  0  0  0  0  0  0  0  0
    4.2544   -2.8187   -0.3489 C   0  0  2  0  0  0  0  0  0  0  0  0
    3.2816   -2.4008   -1.5369 C   0  0  2  0  0  0  0  0  0  0  0  0
    3.4006   -3.1650   -2.8606 C   0  0  0  0  0  0  0  0  0  0  0  0
    4.7863   -2.7814   -3.2343 C   0  0  1  0  0  0  0  0  0  0  0  0
    4.7620   -1.2849   -2.9329 C   0  0  0  0  0  0  0  0  0  0  0  0
    3.7118   -1.1190   -1.9921 O   0  0  0  0  0  0  0  0  0  0  0  0
    5.7415   -3.5748   -2.3306 C   0  0  0  0  0  0  0  0  0  0  0  0
    5.3872   -3.6397   -0.8095 C   0  0  1  0  0  0  0  0  0  0  0  0
    9.6260   -4.3586    0.7976 H   0  0  0  0  0  0  0  0  0  0  0  0
    9.2182   -2.6581    0.9065 H   0  0  0  0  0  0  0  0  0  0  0  0
    9.2869   -3.4266   -0.6777 H   0  0  0  0  0  0  0  0  0  0  0  0
    7.4825   -0.0866    0.3048 H   0  0  0  0  0  0  0  0  0  0  0  0
    5.9867   -3.9941    3.9275 H   0  0  0  0  0  0  0  0  0  0  0  0
    5.7519   -2.7332    4.8833 H   0  0  0  0  0  0  0  0  0  0  0  0
    4.3216   -4.1185    5.8602 H   0  0  0  0  0  0  0  0  0  0  0  0
    4.1577   -5.9362    4.2179 H   0  0  0  0  0  0  0  0  0  0  0  0
    2.7905   -5.6038    5.1861 H   0  0  0  0  0  0  0  0  0  0  0  0
    1.7632   -6.3003    3.4799 H   0  0  0  0  0  0  0  0  0  0  0  0
    1.5503   -4.7218    3.0138 H   0  0  0  0  0  0  0  0  0  0  0  0
    3.7305   -6.6284    1.9394 H   0  0  0  0  0  0  0  0  0  0  0  0
    2.1136   -7.7469    1.8257 H   0  0  0  0  0  0  0  0  0  0  0  0
    1.9550   -4.6481   -1.3562 H   0  0  0  0  0  0  0  0  0  0  0  0
    1.5448   -3.6849   -0.0069 H   0  0  0  0  0  0  0  0  0  0  0  0
    1.1058   -5.3562   -0.0756 H   0  0  0  0  0  0  0  0  0  0  0  0
    4.6793   -5.8470   -1.1811 H   0  0  0  0  0  0  0  0  0  0  0  0
    6.0515   -6.3947    0.7101 H   0  0  0  0  0  0  0  0  0  0  0  0
    5.2770   -4.9854    2.5403 H   0  0  0  0  0  0  0  0  0  0  0  0
    2.7389   -3.1866    2.6407 H   0  0  0  0  0  0  0  0  0  0  0  0
    3.2802   -0.7073    1.0739 H   0  0  0  0  0  0  0  0  0  0  0  0
    1.8854   -1.7728    0.8936 H   0  0  0  0  0  0  0  0  0  0  0  0
    1.2918   -1.4552    3.2346 H   0  0  0  0  0  0  0  0  0  0  0  0
    1.5352    2.1140    3.5694 H   0  0  0  0  0  0  0  0  0  0  0  0
    0.3602    0.9589    4.2385 H   0  0  0  0  0  0  0  0  0  0  0  0
    3.7192    0.4022    3.1225 H   0  0  0  0  0  0  0  0  0  0  0  0
    4.6300   -0.9917    4.8577 H   0  0  0  0  0  0  0  0  0  0  0  0
    2.1082   -2.7346    4.7046 H   0  0  0  0  0  0  0  0  0  0  0  0
    3.0760   -2.2583    6.0697 H   0  0  0  0  0  0  0  0  0  0  0  0
    4.5673   -1.8141   -0.1055 H   0  0  0  0  0  0  0  0  0  0  0  0
    2.2491   -2.2703   -1.2602 H   0  0  0  0  0  0  0  0  0  0  0  0
    3.3237   -4.2414   -2.8346 H   0  0  0  0  0  0  0  0  0  0  0  0
    2.6787   -2.7932   -3.5874 H   0  0  0  0  0  0  0  0  0  0  0  0
    4.9865   -3.0173   -4.2774 H   0  0  0  0  0  0  0  0  0  0  0  0
    5.6888   -0.9396   -2.4802 H   0  0  0  0  0  0  0  0  0  0  0  0
    4.5561   -0.7095   -3.8385 H   0  0  0  0  0  0  0  0  0  0  0  0
    5.7055   -4.5883   -2.7114 H   0  0  0  0  0  0  0  0  0  0  0  0
    6.7655   -3.2476   -2.5173 H   0  0  0  0  0  0  0  0  0  0  0  0
  1  2  1  0
  1 38  1  0
  1 39  1  0
  1 40  1  0
  3  2  1  1
  3  6  1  0
  3 37  1  0
  3  4  1  0
  4  5  1  0
  5  6  2  0
  5 41  1  0
  6  7  1  0
  8  7  1  6
  8 21  1  0
  8 28  1  0
  8  9  1  0
  9 10  1  0
  9 42  1  0
  9 43  1  0
 10 29  1  0
 10 11  1  0
 10 44  1  1
 11 12  1  0
 11 45  1  0
 11 46  1  0
 12 13  1  0
 12 47  1  0
 12 48  1  0
 13 14  1  0
 13 15  1  0
 13 49  1  1
 14 50  1  0
 15 20  1  0
 15 16  1  6
 15 17  1  0
 16 51  1  0
 16 52  1  0
 16 53  1  0
 17 37  1  0
 17 18  1  0
 17 54  1  6
 18 19  2  0
 18 55  1  0
 20 19  1  1
 19 56  1  0
 20 21  1  0
 20 30  1  0
 21 22  1  0
 21 57  1  1
 22 23  1  0
 22 58  1  0
 22 59  1  0
 23 27  1  0
 23 24  1  0
 23 60  1  1
 24 25  1  0
 25 26  1  0
 25 61  1  0
 25 62  1  0
 26 27  1  0
 27 28  1  0
 27 63  1  6
 28 29  1  0
 28 64  1  1
 29 65  1  0
 29 66  1  0
 30 37  1  0
 30 31  1  0
 30 67  1  1
 31 35  1  0
 31 32  1  0
 31 68  1  1
 32 33  1  0
 32 69  1  0
 32 70  1  0
 33 34  1  0
 33 36  1  0
 33 71  1  6
 34 35  1  0
 34 72  1  0
 34 73  1  0
 37 36  1  6
 36 74  1  0
 36 75  1  0
M  END
>  <i_m_ct_stereo_status>  (154) 
1

>  <s_m_source_file>  (154) 
/var/tmp/pbs.5076255.sched01/tmpck0ladl8/45htcshi4i.sdf

>  <i_m_source_file_index>  (154) 
16

>  <i_lp_mmshare_version>  (154) 
48012

>  <i_f3d_flags>  (154) 
0

>  <s_epik_input>  (154) 
TzFbQ0gyXVtDQEBIXShbQ0gyXTIpW0NIMl1bQ0BIXTFbQ0BASF0zW0NAQF0yKFtDQF00KE9bQ0gzXSlDKE81KT1bQ0hdTzQpW0NAQEhdKFtDSF09W0NIXTYpW0NAXShbQ0gzXSkoW0NAXTM2W0NASF03W0NAXTU4OSlbQ0BIXShbT0hdKVtDSDJdW0NIMl1bQ0BASF0oW0NIMl04KVtDSDJdW0NAQEhdOVtDQEhdMVtDQEhdKFtDSDJdNylPW0NIMl1PMQ==

>  <s_epik_cmdline>  (154) 
J2VwaWtfcHl0aG9uJywgJy1waHQnLCAnMi4wJywgJy1waCcsICc3LjAnLCAnLXRuJywgJzgnLCAnLW1hJywgJzIwMCcsICctaW1hZScsICc8aW5maWxlLm1hZT4nLCAnLW9tYWUnLCAnPG91dGZpbGUubWFlPic=

>  <r_lp_tautomer_probability>  (154) 
1

>  <r_epik_Ionization_Penalty>  (154) 
4.63342e-07

>  <r_epik_Ionization_Penalty_Charging>  (154) 
0

>  <r_epik_Ionization_Penalty_Neutral>  (154) 
4.63342e-07

>  <r_epik_State_Penalty>  (154) 
-0

>  <r_epik_Charging_Adjusted_Penalty>  (154) 
0

>  <i_epik_Tot_Q>  (154) 
0

>  <i_epik_Tot_abs_Q>  (154) 
0

>  <s_epik_Chemistry_Notes>  (154) 
This compound contains an acetal/aminal-like group ( X-CH(R)-Y where X, Y are N, S, or O) that may be acid/base labile, releasing an aldehyde.

>  <s_lp_Force_Field>  (154) 
OPLS3e

>  <r_lp_Energy>  (154) 
275.192

>  <b_lp_Chiralities_Consistent>  (154) 
1

>  <s_lp_Variant>  (154) 
42:0-1

>  <s_i_glide_gridfile>  (154) 
pfpi4k_grid

>  <i_i_glide_lignum>  (154) 
16

>  <i_i_glide_rotatable_bonds>  (154) 
2

>  <r_i_docking_score>  (154) 
-2.34344

>  <r_i_glide_ligand_efficiency>  (154) 
-0.0633361

>  <r_i_glide_ligand_efficiency_sa>  (154) 
-0.21105

>  <r_i_glide_ligand_efficiency_ln>  (154) 
-0.508236

>  <r_i_glide_gscore>  (154) 
-2.34344

>  <r_i_glide_lipo>  (154) 
-0.808436

>  <r_i_glide_hbond>  (154) 
-0.16

>  <r_i_glide_metal>  (154) 
-0

>  <r_i_glide_rewards>  (154) 
-0.117092

>  <r_i_glide_evdw>  (154) 
-16.5014

>  <r_i_glide_ecoul>  (154) 
-2.81216

>  <r_i_glide_erotb>  (154) 
0

>  <r_i_glide_esite>  (154) 
-0.0110152

>  <r_i_glide_emodel>  (154) 
-15.0216

>  <r_i_glide_energy>  (154) 
-19.3135

>  <r_i_glide_einternal>  (154) 
3.78947

>  <r_i_glide_intrahb_reward>  (154) 
-0

>  <i_i_glide_confnum>  (154) 
1

>  <i_i_glide_posenum>  (154) 
28

>  <r_i_glide_eff_state_penalty>  (154) 
0

>  <ligand_id>  (154) 
42

>  <original_smiles>  (154) 
COC12OC=C1OC13CC4CCC(O)C5(C)C6C=CC5(C1CC1OCOC1C3C4)C1C3CC(CO3)CC612

>  <smiles>  (154) 
[H]OC1([H])C([H])([H])C([H])([H])C2([H])C([H])([H])C3([H])C4([H])OC([H])([H])OC4([H])C([H])([H])C4([H])C3(OC3=C([H])OC3(OC([H])([H])[H])C35C([H])([H])C6([H])C([H])([H])OC([H])(C6([H])[H])C3([H])C43C([H])=C([H])C5([H])C13C([H])([H])[H])C2([H])[H]

$$$$
42:0:1
     RDKit          3D

 75 84  0  0  1  0  0  0  0  0999 V2000
    8.7705   -3.9545   -0.6044 C   0  0  0  0  0  0  0  0  0  0  0  0
    7.6549   -4.1196    0.2447 O   0  0  0  0  0  0  0  0  0  0  0  0
    6.5524   -3.2255    0.0975 C   0  0  2  0  0  0  0  0  0  0  0  0
    6.9484   -2.0055   -0.6060 O   0  0  0  0  0  0  0  0  0  0  0  0
    7.0921   -1.3353    0.5994 C   0  0  0  0  0  0  0  0  0  0  0  0
    6.5717   -2.2635    1.3859 C   0  0  0  0  0  0  0  0  0  0  0  0
    5.8359   -2.0232    2.5879 O   0  0  0  0  0  0  0  0  0  0  0  0
    5.0313   -2.9499    3.4308 C   0  0  2  0  0  0  0  0  0  0  0  0
    5.7617   -4.0829    4.2819 C   0  0  0  0  0  0  0  0  0  0  0  0
    4.6833   -4.7573    5.1223 C   0  0  2  0  0  0  0  0  0  0  0  0
    4.0224   -6.0726    4.5258 C   0  0  0  0  0  0  0  0  0  0  0  0
    2.8647   -6.1976    3.4462 C   0  0  0  0  0  0  0  0  0  0  0  0
    3.2093   -6.5216    1.9252 C   0  0  1  0  0  0  0  0  0  0  0  0
    2.2695   -7.4882    1.5087 O   0  0  0  0  0  0  0  0  0  0  0  0
    3.3361   -5.3172    0.8107 C   0  0  2  0  0  0  0  0  0  0  0  0
    1.9059   -5.0620    0.3219 C   0  0  0  0  0  0  0  0  0  0  0  0
    4.5627   -5.3125   -0.2815 C   0  0  2  0  0  0  0  0  0  0  0  0
    5.5700   -5.7764    0.6059 C   0  0  0  0  0  0  0  0  0  0  0  0
    5.3137   -5.0414    1.6443 C   0  0  0  0  0  0  0  0  0  0  0  0
    4.0663   -4.0997    1.3594 C   0  0  2  0  0  0  0  0  0  0  0  0
    3.7332   -3.2885    2.6111 C   0  0  2  0  0  0  0  0  0  0  0  0
    2.8332   -2.0293    2.3760 C   0  0  0  0  0  0  0  0  0  0  0  0
    2.3598   -1.5116    3.7141 C   0  0  2  0  0  0  0  0  0  0  0  0
    1.6490   -0.3048    3.7338 O   0  0  0  0  0  0  0  0  0  0  0  0
    1.8499    0.1535    5.0360 C   0  0  0  0  0  0  0  0  0  0  0  0
    2.9366   -0.5129    5.6181 O   0  0  0  0  0  0  0  0  0  0  0  0
    3.5641   -1.1106    4.5128 C   0  0  1  0  0  0  0  0  0  0  0  0
    4.4818   -2.3114    4.7503 C   0  0  1  0  0  0  0  0  0  0  0  0
    3.8785   -3.5182    5.5629 C   0  0  0  0  0  0  0  0  0  0  0  0
    4.1796   -3.1037    0.0965 C   0  0  2  0  0  0  0  0  0  0  0  0
    3.0638   -2.5809   -0.8482 C   0  0  2  0  0  0  0  0  0  0  0  0
    2.9414   -3.1708   -2.2661 C   0  0  0  0  0  0  0  0  0  0  0  0
    4.2534   -2.7051   -2.8316 C   0  0  1  0  0  0  0  0  0  0  0  0
    4.2768   -1.2543   -2.3549 C   0  0  0  0  0  0  0  0  0  0  0  0
    3.4274   -1.2466   -1.2034 O   0  0  0  0  0  0  0  0  0  0  0  0
    5.3396   -3.5901   -2.1942 C   0  0  0  0  0  0  0  0  0  0  0  0
    5.2135   -3.8298   -0.6463 C   0  0  1  0  0  0  0  0  0  0  0  0
    9.4435   -4.7841   -0.3985 H   0  0  0  0  0  0  0  0  0  0  0  0
    9.2854   -3.0187   -0.3998 H   0  0  0  0  0  0  0  0  0  0  0  0
    8.5122   -4.0013   -1.6547 H   0  0  0  0  0  0  0  0  0  0  0  0
    7.3778   -0.2695    0.4923 H   0  0  0  0  0  0  0  0  0  0  0  0
    6.5199   -4.7626    3.9129 H   0  0  0  0  0  0  0  0  0  0  0  0
    6.3727   -3.6117    5.0367 H   0  0  0  0  0  0  0  0  0  0  0  0
    5.2074   -5.1177    6.0107 H   0  0  0  0  0  0  0  0  0  0  0  0
    4.8333   -6.7279    4.2027 H   0  0  0  0  0  0  0  0  0  0  0  0
    3.6265   -6.5744    5.4057 H   0  0  0  0  0  0  0  0  0  0  0  0
    2.3639   -7.1031    3.7958 H   0  0  0  0  0  0  0  0  0  0  0  0
    2.0468   -5.4874    3.5674 H   0  0  0  0  0  0  0  0  0  0  0  0
    4.0908   -7.1557    1.9530 H   0  0  0  0  0  0  0  0  0  0  0  0
    2.3377   -8.2593    2.0532 H   0  0  0  0  0  0  0  0  0  0  0  0
    1.7844   -4.9012   -0.7319 H   0  0  0  0  0  0  0  0  0  0  0  0
    1.6742   -4.1992    0.9036 H   0  0  0  0  0  0  0  0  0  0  0  0
    1.1295   -5.7823    0.5683 H   0  0  0  0  0  0  0  0  0  0  0  0
    4.4642   -6.0686   -1.0349 H   0  0  0  0  0  0  0  0  0  0  0  0
    6.1737   -6.6489    0.5052 H   0  0  0  0  0  0  0  0  0  0  0  0
    5.6391   -5.5576    2.4978 H   0  0  0  0  0  0  0  0  0  0  0  0
    3.1069   -3.8784    3.2322 H   0  0  0  0  0  0  0  0  0  0  0  0
    3.3709   -1.2055    1.9133 H   0  0  0  0  0  0  0  0  0  0  0  0
    1.9703   -2.2498    1.7599 H   0  0  0  0  0  0  0  0  0  0  0  0
    1.7692   -2.2600    4.2393 H   0  0  0  0  0  0  0  0  0  0  0  0
    2.0079    1.2307    4.9663 H   0  0  0  0  0  0  0  0  0  0  0  0
    0.9768   -0.0397    5.6575 H   0  0  0  0  0  0  0  0  0  0  0  0
    4.1053   -0.3308    3.9718 H   0  0  0  0  0  0  0  0  0  0  0  0
    5.3084   -1.8958    5.3242 H   0  0  0  0  0  0  0  0  0  0  0  0
    2.8246   -3.6835    5.3918 H   0  0  0  0  0  0  0  0  0  0  0  0
    3.9960   -3.3320    6.6296 H   0  0  0  0  0  0  0  0  0  0  0  0
    4.4936   -2.1281    0.4294 H   0  0  0  0  0  0  0  0  0  0  0  0
    2.1217   -2.6472   -0.3542 H   0  0  0  0  0  0  0  0  0  0  0  0
    2.8013   -4.2374   -2.3310 H   0  0  0  0  0  0  0  0  0  0  0  0
    2.1003   -2.6988   -2.8036 H   0  0  0  0  0  0  0  0  0  0  0  0
    4.2689   -2.7924   -3.9199 H   0  0  0  0  0  0  0  0  0  0  0  0
    5.2759   -0.8983   -2.1316 H   0  0  0  0  0  0  0  0  0  0  0  0
    3.8584   -0.5835   -3.0991 H   0  0  0  0  0  0  0  0  0  0  0  0
    5.3451   -4.5610   -2.6856 H   0  0  0  0  0  0  0  0  0  0  0  0
    6.2978   -3.1513   -2.4651 H   0  0  0  0  0  0  0  0  0  0  0  0
  1  2  1  0
  1 38  1  0
  1 39  1  0
  1 40  1  0
  3  2  1  1
  3  6  1  0
  3 37  1  0
  3  4  1  0
  4  5  1  0
  5  6  2  0
  5 41  1  0
  6  7  1  0
  8  7  1  6
  8 21  1  0
  8 28  1  0
  8  9  1  0
  9 10  1  0
  9 42  1  0
  9 43  1  0
 10 29  1  0
 10 11  1  0
 10 44  1  1
 11 12  1  0
 11 45  1  0
 11 46  1  0
 12 13  1  0
 12 47  1  0
 12 48  1  0
 13 14  1  0
 13 15  1  0
 13 49  1  1
 14 50  1  0
 15 20  1  0
 15 16  1  6
 15 17  1  0
 16 51  1  0
 16 52  1  0
 16 53  1  0
 17 37  1  0
 17 18  1  0
 17 54  1  6
 18 19  2  0
 18 55  1  0
 20 19  1  1
 19 56  1  0
 20 21  1  0
 20 30  1  0
 21 22  1  0
 21 57  1  1
 22 23  1  0
 22 58  1  0
 22 59  1  0
 23 27  1  0
 23 24  1  0
 23 60  1  1
 24 25  1  0
 25 26  1  0
 25 61  1  0
 25 62  1  0
 26 27  1  0
 27 28  1  0
 27 63  1  6
 28 29  1  0
 28 64  1  1
 29 65  1  0
 29 66  1  0
 30 37  1  0
 30 31  1  0
 30 67  1  1
 31 35  1  0
 31 32  1  0
 31 68  1  1
 32 33  1  0
 32 69  1  0
 32 70  1  0
 33 34  1  0
 33 36  1  0
 33 71  1  6
 34 35  1  0
 34 72  1  0
 34 73  1  0
 37 36  1  6
 36 74  1  0
 36 75  1  0
M  END
>  <i_m_ct_stereo_status>  (155) 
1

>  <s_m_source_file>  (155) 
/var/tmp/pbs.5076255.sched01/tmpck0ladl8/45htcshi4i.sdf

>  <i_m_source_file_index>  (155) 
16

>  <i_lp_mmshare_version>  (155) 
48012

>  <i_f3d_flags>  (155) 
0

>  <s_epik_input>  (155) 
TzFbQ0gyXVtDQEBIXShbQ0gyXTIpW0NIMl1bQ0BIXTFbQ0BASF0zW0NAQF0yKFtDQF00KE9bQ0gzXSlDKE81KT1bQ0hdTzQpW0NAQEhdKFtDSF09W0NIXTYpW0NAXShbQ0gzXSkoW0NAXTM2W0NASF03W0NAXTU4OSlbQ0BIXShbT0hdKVtDSDJdW0NIMl1bQ0BASF0oW0NIMl04KVtDSDJdW0NAQEhdOVtDQEhdMVtDQEhdKFtDSDJdNylPW0NIMl1PMQ==

>  <s_epik_cmdline>  (155) 
J2VwaWtfcHl0aG9uJywgJy1waHQnLCAnMi4wJywgJy1waCcsICc3LjAnLCAnLXRuJywgJzgnLCAnLW1hJywgJzIwMCcsICctaW1hZScsICc8aW5maWxlLm1hZT4nLCAnLW9tYWUnLCAnPG91dGZpbGUubWFlPic=

>  <r_lp_tautomer_probability>  (155) 
1

>  <r_epik_Ionization_Penalty>  (155) 
4.63342e-07

>  <r_epik_Ionization_Penalty_Charging>  (155) 
0

>  <r_epik_Ionization_Penalty_Neutral>  (155) 
4.63342e-07

>  <r_epik_State_Penalty>  (155) 
-0

>  <r_epik_Charging_Adjusted_Penalty>  (155) 
0

>  <i_epik_Tot_Q>  (155) 
0

>  <i_epik_Tot_abs_Q>  (155) 
0

>  <s_epik_Chemistry_Notes>  (155) 
This compound contains an acetal/aminal-like group ( X-CH(R)-Y where X, Y are N, S, or O) that may be acid/base labile, releasing an aldehyde.

>  <s_lp_Force_Field>  (155) 
OPLS3e

>  <r_lp_Energy>  (155) 
275.192

>  <b_lp_Chiralities_Consistent>  (155) 
1

>  <s_lp_Variant>  (155) 
42:0-1

>  <s_i_glide_gridfile>  (155) 
pfpi4k_grid

>  <i_i_glide_lignum>  (155) 
16

>  <i_i_glide_rotatable_bonds>  (155) 
2

>  <r_i_docking_score>  (155) 
-1.99116

>  <r_i_glide_ligand_efficiency>  (155) 
-0.053815

>  <r_i_glide_ligand_efficiency_sa>  (155) 
-0.179324

>  <r_i_glide_ligand_efficiency_ln>  (155) 
-0.431835

>  <r_i_glide_gscore>  (155) 
-1.99116

>  <r_i_glide_lipo>  (155) 
-0.588663

>  <r_i_glide_hbond>  (155) 
-0.16

>  <r_i_glide_metal>  (155) 
-0

>  <r_i_glide_rewards>  (155) 
-0.133107

>  <r_i_glide_evdw>  (155) 
-16.6273

>  <r_i_glide_ecoul>  (155) 
-1.85218

>  <r_i_glide_erotb>  (155) 
0

>  <r_i_glide_esite>  (155) 
-0.000192534

>  <r_i_glide_emodel>  (155) 
-15.1886

>  <r_i_glide_energy>  (155) 
-18.4795

>  <r_i_glide_einternal>  (155) 
4.08049

>  <r_i_glide_intrahb_reward>  (155) 
-0

>  <i_i_glide_confnum>  (155) 
2

>  <i_i_glide_posenum>  (155) 
15

>  <r_i_glide_eff_state_penalty>  (155) 
0

>  <ligand_id>  (155) 
42

>  <original_smiles>  (155) 
COC12OC=C1OC13CC4CCC(O)C5(C)C6C=CC5(C1CC1OCOC1C3C4)C1C3CC(CO3)CC612

>  <smiles>  (155) 
[H]OC1([H])C([H])([H])C([H])([H])C2([H])C([H])([H])C3([H])C4([H])OC([H])([H])OC4([H])C([H])([H])C4([H])C3(OC3=C([H])OC3(OC([H])([H])[H])C35C([H])([H])C6([H])C([H])([H])OC([H])(C6([H])[H])C3([H])C43C([H])=C([H])C5([H])C13C([H])([H])[H])C2([H])[H]

$$$$
42:0:2
     RDKit          3D

 75 84  0  0  1  0  0  0  0  0999 V2000
    8.9466   -4.0756    0.7468 C   0  0  0  0  0  0  0  0  0  0  0  0
    7.6517   -4.3731    0.2551 O   0  0  0  0  0  0  0  0  0  0  0  0
    6.7126   -3.3008    0.0028 C   0  0  2  0  0  0  0  0  0  0  0  0
    7.3508   -2.2520   -0.7648 O   0  0  0  0  0  0  0  0  0  0  0  0
    7.3932   -1.4072    0.3785 C   0  0  0  0  0  0  0  0  0  0  0  0
    6.6018   -2.1764    1.1222 C   0  0  0  0  0  0  0  0  0  0  0  0
    6.1691   -1.9608    2.4527 O   0  0  0  0  0  0  0  0  0  0  0  0
    4.9787   -2.4889    3.1151 C   0  0  2  0  0  0  0  0  0  0  0  0
    5.4683   -3.5678    4.1292 C   0  0  0  0  0  0  0  0  0  0  0  0
    4.2657   -4.0268    4.9188 C   0  0  2  0  0  0  0  0  0  0  0  0
    3.5053   -5.3284    4.4004 C   0  0  0  0  0  0  0  0  0  0  0  0
    2.4261   -5.4678    3.2393 C   0  0  0  0  0  0  0  0  0  0  0  0
    2.8444   -6.0044    1.7977 C   0  0  1  0  0  0  0  0  0  0  0  0
    1.8666   -6.9511    1.4163 O   0  0  0  0  0  0  0  0  0  0  0  0
    3.2222   -4.9501    0.5742 C   0  0  2  0  0  0  0  0  0  0  0  0
    1.8989   -4.5929   -0.1097 C   0  0  0  0  0  0  0  0  0  0  0  0
    4.5334   -5.1998   -0.3917 C   0  0  2  0  0  0  0  0  0  0  0  0
    5.3912   -5.7160    0.6216 C   0  0  0  0  0  0  0  0  0  0  0  0
    5.1436   -4.8318    1.5590 C   0  0  0  0  0  0  0  0  0  0  0  0
    4.0538   -3.7767    1.0614 C   0  0  2  0  0  0  0  0  0  0  0  0
    3.7378   -2.7721    2.1768 C   0  0  2  0  0  0  0  0  0  0  0  0
    2.9868   -1.4746    1.7206 C   0  0  0  0  0  0  0  0  0  0  0  0
    2.4522   -0.7580    2.9437 C   0  0  2  0  0  0  0  0  0  0  0  0
    1.8693    0.5030    2.7616 O   0  0  0  0  0  0  0  0  0  0  0  0
    2.0201    1.1087    4.0100 C   0  0  0  0  0  0  0  0  0  0  0  0
    2.9857    0.4277    4.7601 O   0  0  0  0  0  0  0  0  0  0  0  0
    3.6232   -0.3785    3.7998 C   0  0  1  0  0  0  0  0  0  0  0  0
    4.3838   -1.6211    4.2792 C   0  0  1  0  0  0  0  0  0  0  0  0
    3.5715   -2.6627    5.1438 C   0  0  0  0  0  0  0  0  0  0  0  0
    4.3399   -2.9416   -0.3040 C   0  0  2  0  0  0  0  0  0  0  0  0
    3.3349   -2.4267   -1.4173 C   0  0  2  0  0  0  0  0  0  0  0  0
    3.3010   -3.1685   -2.7484 C   0  0  0  0  0  0  0  0  0  0  0  0
    4.6830   -2.8933   -3.2143 C   0  0  1  0  0  0  0  0  0  0  0  0
    4.8037   -1.4130   -2.8977 C   0  0  0  0  0  0  0  0  0  0  0  0
    3.8244   -1.1736   -1.8924 O   0  0  0  0  0  0  0  0  0  0  0  0
    5.6218   -3.7665   -2.3810 C   0  0  0  0  0  0  0  0  0  0  0  0
    5.3797   -3.8340   -0.8379 C   0  0  1  0  0  0  0  0  0  0  0  0
    9.4931   -4.9897    0.9874 H   0  0  0  0  0  0  0  0  0  0  0  0
    8.8999   -3.5423    1.6810 H   0  0  0  0  0  0  0  0  0  0  0  0
    9.5006   -3.4884    0.0159 H   0  0  0  0  0  0  0  0  0  0  0  0
    7.9373   -0.4799    0.3140 H   0  0  0  0  0  0  0  0  0  0  0  0
    6.1722   -4.3406    3.8662 H   0  0  0  0  0  0  0  0  0  0  0  0
    6.1318   -3.0780    4.8403 H   0  0  0  0  0  0  0  0  0  0  0  0
    4.6741   -4.3335    5.8833 H   0  0  0  0  0  0  0  0  0  0  0  0
    4.2569   -6.1015    4.2352 H   0  0  0  0  0  0  0  0  0  0  0  0
    2.9868   -5.6818    5.2900 H   0  0  0  0  0  0  0  0  0  0  0  0
    1.7975   -6.2694    3.6304 H   0  0  0  0  0  0  0  0  0  0  0  0
    1.6905   -4.6633    3.2085 H   0  0  0  0  0  0  0  0  0  0  0  0
    3.6453   -6.7201    2.0001 H   0  0  0  0  0  0  0  0  0  0  0  0
    2.2824   -7.6304    0.9017 H   0  0  0  0  0  0  0  0  0  0  0  0
    1.8745   -4.6015   -1.1768 H   0  0  0  0  0  0  0  0  0  0  0  0
    1.6623   -3.6059    0.2320 H   0  0  0  0  0  0  0  0  0  0  0  0
    1.0693   -5.2494    0.1271 H   0  0  0  0  0  0  0  0  0  0  0  0
    4.4221   -6.0193   -1.0952 H   0  0  0  0  0  0  0  0  0  0  0  0
    5.8855   -6.6679    0.6224 H   0  0  0  0  0  0  0  0  0  0  0  0
    5.3401   -5.2530    2.5005 H   0  0  0  0  0  0  0  0  0  0  0  0
    2.9855   -3.2227    2.7749 H   0  0  0  0  0  0  0  0  0  0  0  0
    3.6428   -0.7733    1.2075 H   0  0  0  0  0  0  0  0  0  0  0  0
    2.1571   -1.6895    1.0556 H   0  0  0  0  0  0  0  0  0  0  0  0
    1.7399   -1.3839    3.4778 H   0  0  0  0  0  0  0  0  0  0  0  0
    2.3035    2.1464    3.8327 H   0  0  0  0  0  0  0  0  0  0  0  0
    1.0847    1.0861    4.5700 H   0  0  0  0  0  0  0  0  0  0  0  0
    4.3021    0.2593    3.2270 H   0  0  0  0  0  0  0  0  0  0  0  0
    5.1962   -1.2273    4.8907 H   0  0  0  0  0  0  0  0  0  0  0  0
    2.5185   -2.7436    4.8883 H   0  0  0  0  0  0  0  0  0  0  0  0
    3.6166   -2.3745    6.1953 H   0  0  0  0  0  0  0  0  0  0  0  0
    4.7179   -1.9565   -0.0938 H   0  0  0  0  0  0  0  0  0  0  0  0
    2.3385   -2.2618   -1.0645 H   0  0  0  0  0  0  0  0  0  0  0  0
    3.1382   -4.2262   -2.6841 H   0  0  0  0  0  0  0  0  0  0  0  0
    2.5569   -2.7430   -3.4213 H   0  0  0  0  0  0  0  0  0  0  0  0
    4.7961   -3.1261   -4.2730 H   0  0  0  0  0  0  0  0  0  0  0  0
    5.7871   -1.1769   -2.5052 H   0  0  0  0  0  0  0  0  0  0  0  0
    4.5960   -0.8100   -3.7869 H   0  0  0  0  0  0  0  0  0  0  0  0
    5.3856   -4.7407   -2.7791 H   0  0  0  0  0  0  0  0  0  0  0  0
    6.6605   -3.5285   -2.6307 H   0  0  0  0  0  0  0  0  0  0  0  0
  1  2  1  0
  1 38  1  0
  1 39  1  0
  1 40  1  0
  3  2  1  1
  3  6  1  0
  3 37  1  0
  3  4  1  0
  4  5  1  0
  5  6  2  0
  5 41  1  0
  6  7  1  0
  8  7  1  6
  8 21  1  0
  8 28  1  0
  8  9  1  0
  9 10  1  0
  9 42  1  0
  9 43  1  0
 10 29  1  0
 10 11  1  0
 10 44  1  1
 11 12  1  0
 11 45  1  0
 11 46  1  0
 12 13  1  0
 12 47  1  0
 12 48  1  0
 13 14  1  0
 13 15  1  0
 13 49  1  1
 14 50  1  0
 15 20  1  0
 15 16  1  6
 15 17  1  0
 16 51  1  0
 16 52  1  0
 16 53  1  0
 17 37  1  0
 17 18  1  0
 17 54  1  6
 18 19  2  0
 18 55  1  0
 20 19  1  1
 19 56  1  0
 20 21  1  0
 20 30  1  0
 21 22  1  0
 21 57  1  1
 22 23  1  0
 22 58  1  0
 22 59  1  0
 23 27  1  0
 23 24  1  0
 23 60  1  1
 24 25  1  0
 25 26  1  0
 25 61  1  0
 25 62  1  0
 26 27  1  0
 27 28  1  0
 27 63  1  6
 28 29  1  0
 28 64  1  1
 29 65  1  0
 29 66  1  0
 30 37  1  0
 30 31  1  0
 30 67  1  1
 31 35  1  0
 31 32  1  0
 31 68  1  1
 32 33  1  0
 32 69  1  0
 32 70  1  0
 33 34  1  0
 33 36  1  0
 33 71  1  6
 34 35  1  0
 34 72  1  0
 34 73  1  0
 37 36  1  6
 36 74  1  0
 36 75  1  0
M  END
>  <i_m_ct_stereo_status>  (156) 
1

>  <s_m_source_file>  (156) 
/var/tmp/pbs.5076255.sched01/tmpck0ladl8/45htcshi4i.sdf

>  <i_m_source_file_index>  (156) 
16

>  <i_lp_mmshare_version>  (156) 
48012

>  <i_f3d_flags>  (156) 
0

>  <s_epik_input>  (156) 
TzFbQ0gyXVtDQEBIXShbQ0gyXTIpW0NIMl1bQ0BIXTFbQ0BASF0zW0NAQF0yKFtDQF00KE9bQ0gzXSlDKE81KT1bQ0hdTzQpW0NAQEhdKFtDSF09W0NIXTYpW0NAXShbQ0gzXSkoW0NAXTM2W0NASF03W0NAXTU4OSlbQ0BIXShbT0hdKVtDSDJdW0NIMl1bQ0BASF0oW0NIMl04KVtDSDJdW0NAQEhdOVtDQEhdMVtDQEhdKFtDSDJdNylPW0NIMl1PMQ==

>  <s_epik_cmdline>  (156) 
J2VwaWtfcHl0aG9uJywgJy1waHQnLCAnMi4wJywgJy1waCcsICc3LjAnLCAnLXRuJywgJzgnLCAnLW1hJywgJzIwMCcsICctaW1hZScsICc8aW5maWxlLm1hZT4nLCAnLW9tYWUnLCAnPG91dGZpbGUubWFlPic=

>  <r_lp_tautomer_probability>  (156) 
1

>  <r_epik_Ionization_Penalty>  (156) 
4.63342e-07

>  <r_epik_Ionization_Penalty_Charging>  (156) 
0

>  <r_epik_Ionization_Penalty_Neutral>  (156) 
4.63342e-07

>  <r_epik_State_Penalty>  (156) 
-0

>  <r_epik_Charging_Adjusted_Penalty>  (156) 
0

>  <i_epik_Tot_Q>  (156) 
0

>  <i_epik_Tot_abs_Q>  (156) 
0

>  <s_epik_Chemistry_Notes>  (156) 
This compound contains an acetal/aminal-like group ( X-CH(R)-Y where X, Y are N, S, or O) that may be acid/base labile, releasing an aldehyde.

>  <s_lp_Force_Field>  (156) 
OPLS3e

>  <r_lp_Energy>  (156) 
275.192

>  <b_lp_Chiralities_Consistent>  (156) 
1

>  <s_lp_Variant>  (156) 
42:0-1

>  <s_i_glide_gridfile>  (156) 
pfpi4k_grid

>  <i_i_glide_lignum>  (156) 
16

>  <i_i_glide_rotatable_bonds>  (156) 
2

>  <r_i_docking_score>  (156) 
-1.93475

>  <r_i_glide_ligand_efficiency>  (156) 
-0.0522906

>  <r_i_glide_ligand_efficiency_sa>  (156) 
-0.174244

>  <r_i_glide_ligand_efficiency_ln>  (156) 
-0.419602

>  <r_i_glide_gscore>  (156) 
-1.93475

>  <r_i_glide_lipo>  (156) 
-0.628727

>  <r_i_glide_hbond>  (156) 
-0.16

>  <r_i_glide_metal>  (156) 
-0

>  <r_i_glide_rewards>  (156) 
-0.157777

>  <r_i_glide_evdw>  (156) 
-15.1267

>  <r_i_glide_ecoul>  (156) 
-1.52191

>  <r_i_glide_erotb>  (156) 
0

>  <r_i_glide_esite>  (156) 
-0.00362859

>  <r_i_glide_emodel>  (156) 
-16.1915

>  <r_i_glide_energy>  (156) 
-16.6486

>  <r_i_glide_einternal>  (156) 
1.73145

>  <r_i_glide_intrahb_reward>  (156) 
-0

>  <i_i_glide_confnum>  (156) 
1

>  <i_i_glide_posenum>  (156) 
1

>  <r_i_glide_eff_state_penalty>  (156) 
0

>  <ligand_id>  (156) 
42

>  <original_smiles>  (156) 
COC12OC=C1OC13CC4CCC(O)C5(C)C6C=CC5(C1CC1OCOC1C3C4)C1C3CC(CO3)CC612

>  <smiles>  (156) 
[H]OC1([H])C([H])([H])C([H])([H])C2([H])C([H])([H])C3([H])C4([H])OC([H])([H])OC4([H])C([H])([H])C4([H])C3(OC3=C([H])OC3(OC([H])([H])[H])C35C([H])([H])C6([H])C([H])([H])OC([H])(C6([H])[H])C3([H])C43C([H])=C([H])C5([H])C13C([H])([H])[H])C2([H])[H]

$$$$
43:0:0
     RDKit          3D

 66 69  0  0  1  0  0  0  0  0999 V2000
    0.4798   -5.9319    3.1965 C   0  0  0  0  0  0  0  0  0  0  0  0
    0.6526   -7.1232    2.5954 C   0  0  0  0  0  0  0  0  0  0  0  0
   -0.1891   -8.3126    3.0077 C   0  0  0  0  0  0  0  0  0  0  0  0
    1.6411   -7.4247    1.4701 C   0  0  0  0  0  0  0  0  0  0  0  0
    2.5354   -6.2746    0.9582 C   0  0  0  0  0  0  0  0  0  0  0  0
    3.5412   -5.6146    1.9390 C   0  0  2  0  0  0  0  0  0  0  0  0
    4.0964   -4.3151    1.3307 C   0  0  0  0  0  0  0  0  0  0  0  0
    5.2089   -4.3129    0.5599 C   0  0  0  0  0  0  0  0  0  0  0  0
    5.9011   -5.6564    0.3329 C   0  0  0  0  0  0  0  0  0  0  0  0
    6.0136   -6.4727    1.6474 C   0  0  1  0  0  0  0  0  0  0  0  0
    6.6148   -7.8624    1.3864 C   0  0  0  0  0  0  0  0  0  0  0  0
    6.9523   -5.7418    2.6210 C   0  0  0  0  0  0  0  0  0  0  0  0
    8.1103   -5.4564    2.3725 O   0  0  0  0  0  0  0  0  0  0  0  0
    6.2492   -5.3773    3.9188 C   0  0  0  0  0  0  0  0  0  0  0  0
    5.0232   -6.2817    3.9081 C   0  0  0  0  0  0  0  0  0  0  0  0
    4.6712   -6.5722    2.4271 C   0  0  1  0  0  0  0  0  0  0  0  0
    5.7987   -3.0142   -0.0352 C   0  0  1  0  0  0  0  0  0  0  0  0
    6.7493   -2.4539    1.0464 C   0  0  0  0  0  0  0  0  0  0  0  0
    6.6650   -3.1597   -1.3179 C   0  0  0  0  0  0  0  0  0  0  0  0
    5.8637   -3.4515   -2.5943 C   0  0  0  0  0  0  0  0  0  0  0  0
    4.8422   -2.3339   -2.8338 C   0  0  1  0  0  0  0  0  0  0  0  0
    4.2060   -2.5273   -4.0840 O   0  0  0  0  0  0  0  0  0  0  0  0
    3.8419   -2.2289   -1.6650 C   0  0  1  0  0  0  0  0  0  0  0  0
    3.1052   -1.0639   -1.9676 O   0  0  0  0  0  0  0  0  0  0  0  0
    2.8783   -3.4412   -1.7161 C   0  0  0  0  0  0  0  0  0  0  0  0
    1.8465   -3.3687   -0.7893 O   0  0  0  0  0  0  0  0  0  0  0  0
    4.6459   -1.9831   -0.3234 C   0  0  1  0  0  0  0  0  0  0  0  0
    3.8025   -1.7528    0.9552 C   0  0  0  0  0  0  0  0  0  0  0  0
    3.4118   -3.0416    1.6794 C   0  0  0  0  0  0  0  0  0  0  0  0
    2.5070   -2.9769    2.5085 O   0  0  0  0  0  0  0  0  0  0  0  0
   -0.2141   -5.8399    4.0176 H   0  0  0  0  0  0  0  0  0  0  0  0
    1.0108   -5.0409    2.9014 H   0  0  0  0  0  0  0  0  0  0  0  0
   -0.7864   -8.6535    2.1624 H   0  0  0  0  0  0  0  0  0  0  0  0
   -0.8721   -8.0551    3.8158 H   0  0  0  0  0  0  0  0  0  0  0  0
    0.4339   -9.1414    3.3375 H   0  0  0  0  0  0  0  0  0  0  0  0
    2.2565   -8.2689    1.7686 H   0  0  0  0  0  0  0  0  0  0  0  0
    1.0502   -7.8023    0.6350 H   0  0  0  0  0  0  0  0  0  0  0  0
    3.0965   -6.6482    0.0996 H   0  0  0  0  0  0  0  0  0  0  0  0
    1.8707   -5.5229    0.5579 H   0  0  0  0  0  0  0  0  0  0  0  0
    2.9928   -5.3235    2.8326 H   0  0  0  0  0  0  0  0  0  0  0  0
    5.3055   -6.2089   -0.3953 H   0  0  0  0  0  0  0  0  0  0  0  0
    6.8935   -5.5335   -0.0890 H   0  0  0  0  0  0  0  0  0  0  0  0
    5.9313   -8.4834    0.8061 H   0  0  0  0  0  0  0  0  0  0  0  0
    6.8110   -8.3894    2.3218 H   0  0  0  0  0  0  0  0  0  0  0  0
    7.5701   -7.7979    0.8605 H   0  0  0  0  0  0  0  0  0  0  0  0
    6.8880   -5.5504    4.7846 H   0  0  0  0  0  0  0  0  0  0  0  0
    5.9726   -4.3220    3.8976 H   0  0  0  0  0  0  0  0  0  0  0  0
    5.2726   -7.2152    4.4103 H   0  0  0  0  0  0  0  0  0  0  0  0
    4.2052   -5.8344    4.4780 H   0  0  0  0  0  0  0  0  0  0  0  0
    4.3039   -7.5971    2.3764 H   0  0  0  0  0  0  0  0  0  0  0  0
    7.1172   -1.4569    0.7998 H   0  0  0  0  0  0  0  0  0  0  0  0
    7.6134   -3.1099    1.1661 H   0  0  0  0  0  0  0  0  0  0  0  0
    6.2648   -2.3953    2.0219 H   0  0  0  0  0  0  0  0  0  0  0  0
    7.1775   -2.2085   -1.4899 H   0  0  0  0  0  0  0  0  0  0  0  0
    7.4830   -3.8581   -1.1816 H   0  0  0  0  0  0  0  0  0  0  0  0
    6.5558   -3.4759   -3.4372 H   0  0  0  0  0  0  0  0  0  0  0  0
    5.3864   -4.4331   -2.5473 H   0  0  0  0  0  0  0  0  0  0  0  0
    5.4108   -1.4039   -2.8897 H   0  0  0  0  0  0  0  0  0  0  0  0
    3.5932   -3.2601   -4.0048 H   0  0  0  0  0  0  0  0  0  0  0  0
    2.3312   -1.0147   -1.4125 H   0  0  0  0  0  0  0  0  0  0  0  0
    2.3997   -3.5523   -2.6908 H   0  0  0  0  0  0  0  0  0  0  0  0
    3.4244   -4.3437   -1.4983 H   0  0  0  0  0  0  0  0  0  0  0  0
    1.4812   -2.4860   -0.8359 H   0  0  0  0  0  0  0  0  0  0  0  0
    5.1504   -1.0256   -0.4879 H   0  0  0  0  0  0  0  0  0  0  0  0
    4.3467   -1.1281    1.6661 H   0  0  0  0  0  0  0  0  0  0  0  0
    2.8993   -1.2055    0.7058 H   0  0  0  0  0  0  0  0  0  0  0  0
  1  2  2  0
  1 31  1  0
  1 32  1  0
  2  3  1  0
  2  4  1  0
  3 33  1  0
  3 34  1  0
  3 35  1  0
  4  5  1  0
  4 36  1  0
  4 37  1  0
  5  6  1  0
  5 38  1  0
  5 39  1  0
  6 16  1  0
  6  7  1  0
  6 40  1  1
  7 29  1  0
  7  8  2  0
  8  9  1  0
  8 17  1  0
  9 10  1  0
  9 41  1  0
  9 42  1  0
 10 16  1  0
 10 11  1  6
 10 12  1  0
 11 43  1  0
 11 44  1  0
 11 45  1  0
 12 13  2  0
 12 14  1  0
 14 15  1  0
 14 46  1  0
 14 47  1  0
 15 16  1  0
 15 48  1  0
 15 49  1  0
 16 50  1  1
 17 27  1  0
 17 18  1  1
 17 19  1  0
 18 51  1  0
 18 52  1  0
 18 53  1  0
 19 20  1  0
 19 54  1  0
 19 55  1  0
 20 21  1  0
 20 56  1  0
 20 57  1  0
 21 22  1  0
 21 23  1  0
 21 58  1  6
 22 59  1  0
 23 24  1  6
 23 25  1  0
 23 27  1  0
 24 60  1  0
 25 26  1  0
 25 61  1  0
 25 62  1  0
 26 63  1  0
 27 28  1  0
 27 64  1  6
 28 29  1  0
 28 65  1  0
 28 66  1  0
 29 30  2  0
M  END
>  <i_m_ct_stereo_status>  (157) 
1

>  <s_m_source_file>  (157) 
/var/tmp/pbs.5076255.sched01/tmpck0ladl8/45htcshi4i.sdf

>  <i_m_source_file_index>  (157) 
17

>  <i_lp_mmshare_version>  (157) 
48012

>  <i_f3d_flags>  (157) 
0

>  <s_epik_input>  (157) 
Tz1DMVtDSDJdW0NIMl1bQ0BIXShbQ0BdMTJbQ0gzXSlbQ0BIXShbQ0gyXVtDSDJdQyg9W0NIMl0pW0NIM10pQzM9QyhbQ0gyXTIpW0NAXTQoW0NIM10pW0NASF0oW0NIMl1DMz1PKVtDQF0oW09IXSkoW0NIMl1bT0hdKVtDQEhdKFtPSF0pW0NIMl1bQ0gyXTQ=

>  <s_epik_cmdline>  (157) 
J2VwaWtfcHl0aG9uJywgJy1waHQnLCAnMi4wJywgJy1waCcsICc3LjAnLCAnLXRuJywgJzgnLCAnLW1hJywgJzIwMCcsICctaW1hZScsICc8aW5maWxlLm1hZT4nLCAnLW9tYWUnLCAnPG91dGZpbGUubWFlPic=

>  <r_lp_tautomer_probability>  (157) 
1

>  <r_epik_Ionization_Penalty>  (157) 
2.244e-07

>  <r_epik_Ionization_Penalty_Charging>  (157) 
0

>  <r_epik_Ionization_Penalty_Neutral>  (157) 
2.244e-07

>  <r_epik_State_Penalty>  (157) 
-0

>  <r_epik_Charging_Adjusted_Penalty>  (157) 
0

>  <i_epik_Tot_Q>  (157) 
0

>  <i_epik_Tot_abs_Q>  (157) 
0

>  <s_lp_Force_Field>  (157) 
OPLS3e

>  <r_lp_Energy>  (157) 
33.9498

>  <b_lp_Chiralities_Consistent>  (157) 
1

>  <s_lp_Variant>  (157) 
43:0-1

>  <s_i_glide_gridfile>  (157) 
pfpi4k_grid

>  <i_i_glide_lignum>  (157) 
17

>  <i_i_glide_rotatable_bonds>  (157) 
7

>  <r_i_docking_score>  (157) 
-3.91524

>  <r_i_glide_ligand_efficiency>  (157) 
-0.130508

>  <r_i_glide_ligand_efficiency_sa>  (157) 
-0.405519

>  <r_i_glide_ligand_efficiency_ln>  (157) 
-0.889586

>  <r_i_glide_gscore>  (157) 
-3.91524

>  <r_i_glide_lipo>  (157) 
-1.09041

>  <r_i_glide_hbond>  (157) 
0

>  <r_i_glide_metal>  (157) 
-0

>  <r_i_glide_rewards>  (157) 
-0.599389

>  <r_i_glide_evdw>  (157) 
-18.7868

>  <r_i_glide_ecoul>  (157) 
-10.6878

>  <r_i_glide_erotb>  (157) 
0.318819

>  <r_i_glide_esite>  (157) 
-0.00174861

>  <r_i_glide_emodel>  (157) 
-33.3172

>  <r_i_glide_energy>  (157) 
-29.4746

>  <r_i_glide_einternal>  (157) 
6.36154

>  <r_i_glide_intrahb_reward>  (157) 
-0

>  <i_i_glide_confnum>  (157) 
4

>  <i_i_glide_posenum>  (157) 
29

>  <r_i_glide_eff_state_penalty>  (157) 
0

>  <ligand_id>  (157) 
43

>  <original_smiles>  (157) 
C=C(C)CCC1C2=C(CC3(C)C(=O)CCC13)C1(C)CCC(O)C(O)(CO)C1CC2=O

>  <smiles>  (157) 
[H]OC([H])([H])C1(O[H])C([H])(O[H])C([H])([H])C([H])([H])C2(C([H])([H])[H])C3=C(C(=O)C([H])([H])C12[H])C([H])(C([H])([H])C([H])([H])C(=C([H])[H])C([H])([H])[H])C1([H])C([H])([H])C([H])([H])C(=O)C1(C([H])([H])[H])C3([H])[H]

$$$$
43:0:1
     RDKit          3D

 66 69  0  0  1  0  0  0  0  0999 V2000
    0.4904   -6.0067    3.2140 C   0  0  0  0  0  0  0  0  0  0  0  0
    0.6755   -7.1756    2.5748 C   0  0  0  0  0  0  0  0  0  0  0  0
   -0.1644   -8.3792    2.9533 C   0  0  0  0  0  0  0  0  0  0  0  0
    1.6589   -7.4509    1.4365 C   0  0  0  0  0  0  0  0  0  0  0  0
    2.5478   -6.2854    0.9366 C   0  0  0  0  0  0  0  0  0  0  0  0
    3.5586   -5.6286    1.9131 C   0  0  2  0  0  0  0  0  0  0  0  0
    4.0989   -4.3298    1.3055 C   0  0  0  0  0  0  0  0  0  0  0  0
    5.2141   -4.3188    0.5520 C   0  0  0  0  0  0  0  0  0  0  0  0
    5.9121   -5.6556    0.3179 C   0  0  0  0  0  0  0  0  0  0  0  0
    6.0300   -6.4799    1.6278 C   0  0  1  0  0  0  0  0  0  0  0  0
    6.6333   -7.8664    1.3630 C   0  0  0  0  0  0  0  0  0  0  0  0
    6.9622   -5.7496    2.6091 C   0  0  0  0  0  0  0  0  0  0  0  0
    8.1108   -5.4628    2.3700 O   0  0  0  0  0  0  0  0  0  0  0  0
    6.2512   -5.3920    3.9063 C   0  0  0  0  0  0  0  0  0  0  0  0
    5.0308   -6.3034    3.8885 C   0  0  0  0  0  0  0  0  0  0  0  0
    4.6849   -6.5873    2.3986 C   0  0  1  0  0  0  0  0  0  0  0  0
    5.7972   -3.0108   -0.0383 C   0  0  1  0  0  0  0  0  0  0  0  0
    6.7406   -2.4550    1.0511 C   0  0  0  0  0  0  0  0  0  0  0  0
    6.6690   -3.1525   -1.3158 C   0  0  0  0  0  0  0  0  0  0  0  0
    5.8757   -3.4406   -2.5937 C   0  0  0  0  0  0  0  0  0  0  0  0
    4.8404   -2.3373   -2.8269 C   0  0  1  0  0  0  0  0  0  0  0  0
    4.1774   -2.5639   -4.0510 O   0  0  0  0  0  0  0  0  0  0  0  0
    3.8364   -2.2416   -1.6642 C   0  0  1  0  0  0  0  0  0  0  0  0
    3.0884   -1.0843   -1.9973 O   0  0  0  0  0  0  0  0  0  0  0  0
    2.8713   -3.4518   -1.7213 C   0  0  0  0  0  0  0  0  0  0  0  0
    1.8069   -3.3816   -0.7872 O   0  0  0  0  0  0  0  0  0  0  0  0
    4.6417   -1.9858   -0.3243 C   0  0  1  0  0  0  0  0  0  0  0  0
    3.7922   -1.7687    0.9527 C   0  0  0  0  0  0  0  0  0  0  0  0
    3.4124   -3.0685    1.6789 C   0  0  0  0  0  0  0  0  0  0  0  0
    2.4990   -3.0103    2.4959 O   0  0  0  0  0  0  0  0  0  0  0  0
   -0.1878   -5.9620    4.0508 H   0  0  0  0  0  0  0  0  0  0  0  0
    0.9896   -5.0887    2.9477 H   0  0  0  0  0  0  0  0  0  0  0  0
   -0.7720   -8.6851    2.0998 H   0  0  0  0  0  0  0  0  0  0  0  0
   -0.8432   -8.1439    3.7717 H   0  0  0  0  0  0  0  0  0  0  0  0
    0.4525   -9.2268    3.2497 H   0  0  0  0  0  0  0  0  0  0  0  0
    2.2833   -8.3006    1.7078 H   0  0  0  0  0  0  0  0  0  0  0  0
    1.0629   -7.8201    0.5968 H   0  0  0  0  0  0  0  0  0  0  0  0
    3.1040   -6.6500    0.0724 H   0  0  0  0  0  0  0  0  0  0  0  0
    1.8701   -5.5376    0.5429 H   0  0  0  0  0  0  0  0  0  0  0  0
    3.0377   -5.3424    2.8184 H   0  0  0  0  0  0  0  0  0  0  0  0
    5.3158   -6.2147   -0.4108 H   0  0  0  0  0  0  0  0  0  0  0  0
    6.9026   -5.5317   -0.1043 H   0  0  0  0  0  0  0  0  0  0  0  0
    5.9496   -8.4824    0.7818 H   0  0  0  0  0  0  0  0  0  0  0  0
    6.8259   -8.3934    2.2950 H   0  0  0  0  0  0  0  0  0  0  0  0
    7.5843   -7.7937    0.8395 H   0  0  0  0  0  0  0  0  0  0  0  0
    6.8823   -5.5689    4.7766 H   0  0  0  0  0  0  0  0  0  0  0  0
    5.9641   -4.3402    3.8943 H   0  0  0  0  0  0  0  0  0  0  0  0
    5.2772   -7.2431    4.3887 H   0  0  0  0  0  0  0  0  0  0  0  0
    4.2054   -5.8655    4.4636 H   0  0  0  0  0  0  0  0  0  0  0  0
    4.3186   -7.6191    2.3459 H   0  0  0  0  0  0  0  0  0  0  0  0
    7.1070   -1.4526    0.8133 H   0  0  0  0  0  0  0  0  0  0  0  0
    7.6095   -3.1073    1.1723 H   0  0  0  0  0  0  0  0  0  0  0  0
    6.2533   -2.4032    2.0278 H   0  0  0  0  0  0  0  0  0  0  0  0
    7.1834   -2.2010   -1.4817 H   0  0  0  0  0  0  0  0  0  0  0  0
    7.4831   -3.8592   -1.1852 H   0  0  0  0  0  0  0  0  0  0  0  0
    6.5639   -3.4601   -3.4355 H   0  0  0  0  0  0  0  0  0  0  0  0
    5.3938   -4.4170   -2.5540 H   0  0  0  0  0  0  0  0  0  0  0  0
    5.3662   -1.3864   -2.9042 H   0  0  0  0  0  0  0  0  0  0  0  0
    3.3907   -2.0169   -4.0343 H   0  0  0  0  0  0  0  0  0  0  0  0
    2.3359   -1.0172   -1.4190 H   0  0  0  0  0  0  0  0  0  0  0  0
    2.4078   -3.5648   -2.7043 H   0  0  0  0  0  0  0  0  0  0  0  0
    3.4247   -4.3503   -1.5027 H   0  0  0  0  0  0  0  0  0  0  0  0
    1.4849   -2.4937   -0.8302 H   0  0  0  0  0  0  0  0  0  0  0  0
    5.1373   -1.0237   -0.4822 H   0  0  0  0  0  0  0  0  0  0  0  0
    4.3303   -1.1446    1.6713 H   0  0  0  0  0  0  0  0  0  0  0  0
    2.8817   -1.2167    0.7054 H   0  0  0  0  0  0  0  0  0  0  0  0
  1  2  2  0
  1 31  1  0
  1 32  1  0
  2  3  1  0
  2  4  1  0
  3 33  1  0
  3 34  1  0
  3 35  1  0
  4  5  1  0
  4 36  1  0
  4 37  1  0
  5  6  1  0
  5 38  1  0
  5 39  1  0
  6 16  1  0
  6  7  1  0
  6 40  1  1
  7 29  1  0
  7  8  2  0
  8  9  1  0
  8 17  1  0
  9 10  1  0
  9 41  1  0
  9 42  1  0
 10 16  1  0
 10 11  1  6
 10 12  1  0
 11 43  1  0
 11 44  1  0
 11 45  1  0
 12 13  2  0
 12 14  1  0
 14 15  1  0
 14 46  1  0
 14 47  1  0
 15 16  1  0
 15 48  1  0
 15 49  1  0
 16 50  1  1
 17 27  1  0
 17 18  1  1
 17 19  1  0
 18 51  1  0
 18 52  1  0
 18 53  1  0
 19 20  1  0
 19 54  1  0
 19 55  1  0
 20 21  1  0
 20 56  1  0
 20 57  1  0
 21 22  1  0
 21 23  1  0
 21 58  1  6
 22 59  1  0
 23 24  1  6
 23 25  1  0
 23 27  1  0
 24 60  1  0
 25 26  1  0
 25 61  1  0
 25 62  1  0
 26 63  1  0
 27 28  1  0
 27 64  1  6
 28 29  1  0
 28 65  1  0
 28 66  1  0
 29 30  2  0
M  END
>  <i_m_ct_stereo_status>  (158) 
1

>  <s_m_source_file>  (158) 
/var/tmp/pbs.5076255.sched01/tmpck0ladl8/45htcshi4i.sdf

>  <i_m_source_file_index>  (158) 
17

>  <i_lp_mmshare_version>  (158) 
48012

>  <i_f3d_flags>  (158) 
0

>  <s_epik_input>  (158) 
Tz1DMVtDSDJdW0NIMl1bQ0BIXShbQ0BdMTJbQ0gzXSlbQ0BIXShbQ0gyXVtDSDJdQyg9W0NIMl0pW0NIM10pQzM9QyhbQ0gyXTIpW0NAXTQoW0NIM10pW0NASF0oW0NIMl1DMz1PKVtDQF0oW09IXSkoW0NIMl1bT0hdKVtDQEhdKFtPSF0pW0NIMl1bQ0gyXTQ=

>  <s_epik_cmdline>  (158) 
J2VwaWtfcHl0aG9uJywgJy1waHQnLCAnMi4wJywgJy1waCcsICc3LjAnLCAnLXRuJywgJzgnLCAnLW1hJywgJzIwMCcsICctaW1hZScsICc8aW5maWxlLm1hZT4nLCAnLW9tYWUnLCAnPG91dGZpbGUubWFlPic=

>  <r_lp_tautomer_probability>  (158) 
1

>  <r_epik_Ionization_Penalty>  (158) 
2.244e-07

>  <r_epik_Ionization_Penalty_Charging>  (158) 
0

>  <r_epik_Ionization_Penalty_Neutral>  (158) 
2.244e-07

>  <r_epik_State_Penalty>  (158) 
-0

>  <r_epik_Charging_Adjusted_Penalty>  (158) 
0

>  <i_epik_Tot_Q>  (158) 
0

>  <i_epik_Tot_abs_Q>  (158) 
0

>  <s_lp_Force_Field>  (158) 
OPLS3e

>  <r_lp_Energy>  (158) 
33.9498

>  <b_lp_Chiralities_Consistent>  (158) 
1

>  <s_lp_Variant>  (158) 
43:0-1

>  <s_i_glide_gridfile>  (158) 
pfpi4k_grid

>  <i_i_glide_lignum>  (158) 
17

>  <i_i_glide_rotatable_bonds>  (158) 
7

>  <r_i_docking_score>  (158) 
-3.79

>  <r_i_glide_ligand_efficiency>  (158) 
-0.126333

>  <r_i_glide_ligand_efficiency_sa>  (158) 
-0.392547

>  <r_i_glide_ligand_efficiency_ln>  (158) 
-0.86113

>  <r_i_glide_gscore>  (158) 
-3.79

>  <r_i_glide_lipo>  (158) 
-1.09379

>  <r_i_glide_hbond>  (158) 
0

>  <r_i_glide_metal>  (158) 
-0

>  <r_i_glide_rewards>  (158) 
-0.599731

>  <r_i_glide_evdw>  (158) 
-18.5966

>  <r_i_glide_ecoul>  (158) 
-9.89294

>  <r_i_glide_erotb>  (158) 
0.318819

>  <r_i_glide_esite>  (158) 
-0.00152631

>  <r_i_glide_emodel>  (158) 
-31.5304

>  <r_i_glide_energy>  (158) 
-28.4896

>  <r_i_glide_einternal>  (158) 
7.2174

>  <r_i_glide_intrahb_reward>  (158) 
-0

>  <i_i_glide_confnum>  (158) 
4

>  <i_i_glide_posenum>  (158) 
30

>  <r_i_glide_eff_state_penalty>  (158) 
0

>  <ligand_id>  (158) 
43

>  <original_smiles>  (158) 
C=C(C)CCC1C2=C(CC3(C)C(=O)CCC13)C1(C)CCC(O)C(O)(CO)C1CC2=O

>  <smiles>  (158) 
[H]OC([H])([H])C1(O[H])C([H])(O[H])C([H])([H])C([H])([H])C2(C([H])([H])[H])C3=C(C(=O)C([H])([H])C12[H])C([H])(C([H])([H])C([H])([H])C(=C([H])[H])C([H])([H])[H])C1([H])C([H])([H])C([H])([H])C(=O)C1(C([H])([H])[H])C3([H])[H]

$$$$
43:0:2
     RDKit          3D

 66 69  0  0  1  0  0  0  0  0999 V2000
    0.4559   -5.8779    3.1688 C   0  0  0  0  0  0  0  0  0  0  0  0
    0.5878   -7.0571    2.5322 C   0  0  0  0  0  0  0  0  0  0  0  0
   -0.3323   -8.2126    2.8835 C   0  0  0  0  0  0  0  0  0  0  0  0
    1.6008   -7.3874    1.4313 C   0  0  0  0  0  0  0  0  0  0  0  0
    2.5121   -6.2554    0.9129 C   0  0  0  0  0  0  0  0  0  0  0  0
    3.5162   -5.5888    1.8937 C   0  0  2  0  0  0  0  0  0  0  0  0
    4.0792   -4.3009    1.2673 C   0  0  0  0  0  0  0  0  0  0  0  0
    5.1911   -4.3019    0.5013 C   0  0  0  0  0  0  0  0  0  0  0  0
    5.8790   -5.6537    0.2866 C   0  0  0  0  0  0  0  0  0  0  0  0
    5.9933   -6.4560    1.6077 C   0  0  1  0  0  0  0  0  0  0  0  0
    6.5833   -7.8528    1.3606 C   0  0  0  0  0  0  0  0  0  0  0  0
    6.9083   -5.7254    2.5856 C   0  0  0  0  0  0  0  0  0  0  0  0
    8.0939   -5.4524    2.3464 O   0  0  0  0  0  0  0  0  0  0  0  0
    6.2157   -5.3454    3.8735 C   0  0  0  0  0  0  0  0  0  0  0  0
    4.9890   -6.2494    3.8631 C   0  0  0  0  0  0  0  0  0  0  0  0
    4.6443   -6.5531    2.3848 C   0  0  1  0  0  0  0  0  0  0  0  0
    5.7893   -3.0075   -0.0982 C   0  0  1  0  0  0  0  0  0  0  0  0
    6.7321   -2.4465    0.9872 C   0  0  0  0  0  0  0  0  0  0  0  0
    6.6568   -3.1637   -1.3742 C   0  0  0  0  0  0  0  0  0  0  0  0
    5.8629   -3.4700   -2.6544 C   0  0  0  0  0  0  0  0  0  0  0  0
    4.8482   -2.3556   -2.9089 C   0  0  1  0  0  0  0  0  0  0  0  0
    4.1966   -2.5439   -4.1576 O   0  0  0  0  0  0  0  0  0  0  0  0
    3.8446   -2.2408   -1.7435 C   0  0  1  0  0  0  0  0  0  0  0  0
    3.1266   -1.0752   -2.0941 O   0  0  0  0  0  0  0  0  0  0  0  0
    2.8605   -3.4323   -1.7818 C   0  0  0  0  0  0  0  0  0  0  0  0
    1.8331   -3.3447   -0.8779 O   0  0  0  0  0  0  0  0  0  0  0  0
    4.6437   -1.9753   -0.3953 C   0  0  1  0  0  0  0  0  0  0  0  0
    3.7872   -1.7409    0.8743 C   0  0  0  0  0  0  0  0  0  0  0  0
    3.3943   -3.0208    1.6094 C   0  0  0  0  0  0  0  0  0  0  0  0
    2.4956   -2.9518    2.4417 O   0  0  0  0  0  0  0  0  0  0  0  0
   -0.2604   -5.7891    3.9791 H   0  0  0  0  0  0  0  0  0  0  0  0
    1.0158   -4.9968    2.9214 H   0  0  0  0  0  0  0  0  0  0  0  0
   -0.9191   -8.4879    2.0105 H   0  0  0  0  0  0  0  0  0  0  0  0
   -1.0228   -7.9362    3.6763 H   0  0  0  0  0  0  0  0  0  0  0  0
    0.2314   -9.0871    3.2049 H   0  0  0  0  0  0  0  0  0  0  0  0
    2.2049   -8.2351    1.7572 H   0  0  0  0  0  0  0  0  0  0  0  0
    1.0288   -7.7792    0.5887 H   0  0  0  0  0  0  0  0  0  0  0  0
    3.0776   -6.6472    0.0704 H   0  0  0  0  0  0  0  0  0  0  0  0
    1.8528   -5.5061    0.4898 H   0  0  0  0  0  0  0  0  0  0  0  0
    2.9962   -5.2892    2.7819 H   0  0  0  0  0  0  0  0  0  0  0  0
    5.2795   -6.2063   -0.4335 H   0  0  0  0  0  0  0  0  0  0  0  0
    6.8686   -5.5339   -0.1388 H   0  0  0  0  0  0  0  0  0  0  0  0
    5.8983   -8.4729    0.7819 H   0  0  0  0  0  0  0  0  0  0  0  0
    6.7729   -8.3712    2.3008 H   0  0  0  0  0  0  0  0  0  0  0  0
    7.5427   -7.7924    0.8410 H   0  0  0  0  0  0  0  0  0  0  0  0
    6.8474   -5.5135    4.7456 H   0  0  0  0  0  0  0  0  0  0  0  0
    5.9373   -4.2905    3.8463 H   0  0  0  0  0  0  0  0  0  0  0  0
    5.2324   -7.1782    4.3756 H   0  0  0  0  0  0  0  0  0  0  0  0
    4.1693   -5.7986    4.4336 H   0  0  0  0  0  0  0  0  0  0  0  0
    4.2709   -7.5768    2.3387 H   0  0  0  0  0  0  0  0  0  0  0  0
    7.1042   -1.4504    0.7376 H   0  0  0  0  0  0  0  0  0  0  0  0
    7.5950   -3.1032    1.1166 H   0  0  0  0  0  0  0  0  0  0  0  0
    6.2437   -2.3802    1.9610 H   0  0  0  0  0  0  0  0  0  0  0  0
    7.1700   -2.2148   -1.5554 H   0  0  0  0  0  0  0  0  0  0  0  0
    7.4781   -3.8553   -1.2240 H   0  0  0  0  0  0  0  0  0  0  0  0
    6.5560   -3.5031   -3.4925 H   0  0  0  0  0  0  0  0  0  0  0  0
    5.3806   -4.4474   -2.5979 H   0  0  0  0  0  0  0  0  0  0  0  0
    5.4026   -1.4209   -2.9738 H   0  0  0  0  0  0  0  0  0  0  0  0
    3.5985   -3.2762   -4.0768 H   0  0  0  0  0  0  0  0  0  0  0  0
    3.6615   -0.3165   -1.9337 H   0  0  0  0  0  0  0  0  0  0  0  0
    2.3848   -3.5413   -2.7569 H   0  0  0  0  0  0  0  0  0  0  0  0
    3.4121   -4.3317   -1.5420 H   0  0  0  0  0  0  0  0  0  0  0  0
    1.5349   -2.4106   -0.8997 H   0  0  0  0  0  0  0  0  0  0  0  0
    5.1526   -1.0199   -0.5564 H   0  0  0  0  0  0  0  0  0  0  0  0
    4.3234   -1.1097    1.5873 H   0  0  0  0  0  0  0  0  0  0  0  0
    2.8829   -1.1934    0.6133 H   0  0  0  0  0  0  0  0  0  0  0  0
  1  2  2  0
  1 31  1  0
  1 32  1  0
  2  3  1  0
  2  4  1  0
  3 33  1  0
  3 34  1  0
  3 35  1  0
  4  5  1  0
  4 36  1  0
  4 37  1  0
  5  6  1  0
  5 38  1  0
  5 39  1  0
  6 16  1  0
  6  7  1  0
  6 40  1  1
  7 29  1  0
  7  8  2  0
  8  9  1  0
  8 17  1  0
  9 10  1  0
  9 41  1  0
  9 42  1  0
 10 16  1  0
 10 11  1  6
 10 12  1  0
 11 43  1  0
 11 44  1  0
 11 45  1  0
 12 13  2  0
 12 14  1  0
 14 15  1  0
 14 46  1  0
 14 47  1  0
 15 16  1  0
 15 48  1  0
 15 49  1  0
 16 50  1  1
 17 27  1  0
 17 18  1  1
 17 19  1  0
 18 51  1  0
 18 52  1  0
 18 53  1  0
 19 20  1  0
 19 54  1  0
 19 55  1  0
 20 21  1  0
 20 56  1  0
 20 57  1  0
 21 22  1  0
 21 23  1  0
 21 58  1  6
 22 59  1  0
 23 24  1  6
 23 25  1  0
 23 27  1  0
 24 60  1  0
 25 26  1  0
 25 61  1  0
 25 62  1  0
 26 63  1  0
 27 28  1  0
 27 64  1  6
 28 29  1  0
 28 65  1  0
 28 66  1  0
 29 30  2  0
M  END
>  <i_m_ct_stereo_status>  (159) 
1

>  <s_m_source_file>  (159) 
/var/tmp/pbs.5076255.sched01/tmpck0ladl8/45htcshi4i.sdf

>  <i_m_source_file_index>  (159) 
17

>  <i_lp_mmshare_version>  (159) 
48012

>  <i_f3d_flags>  (159) 
0

>  <s_epik_input>  (159) 
Tz1DMVtDSDJdW0NIMl1bQ0BIXShbQ0BdMTJbQ0gzXSlbQ0BIXShbQ0gyXVtDSDJdQyg9W0NIMl0pW0NIM10pQzM9QyhbQ0gyXTIpW0NAXTQoW0NIM10pW0NASF0oW0NIMl1DMz1PKVtDQF0oW09IXSkoW0NIMl1bT0hdKVtDQEhdKFtPSF0pW0NIMl1bQ0gyXTQ=

>  <s_epik_cmdline>  (159) 
J2VwaWtfcHl0aG9uJywgJy1waHQnLCAnMi4wJywgJy1waCcsICc3LjAnLCAnLXRuJywgJzgnLCAnLW1hJywgJzIwMCcsICctaW1hZScsICc8aW5maWxlLm1hZT4nLCAnLW9tYWUnLCAnPG91dGZpbGUubWFlPic=

>  <r_lp_tautomer_probability>  (159) 
1

>  <r_epik_Ionization_Penalty>  (159) 
2.244e-07

>  <r_epik_Ionization_Penalty_Charging>  (159) 
0

>  <r_epik_Ionization_Penalty_Neutral>  (159) 
2.244e-07

>  <r_epik_State_Penalty>  (159) 
-0

>  <r_epik_Charging_Adjusted_Penalty>  (159) 
0

>  <i_epik_Tot_Q>  (159) 
0

>  <i_epik_Tot_abs_Q>  (159) 
0

>  <s_lp_Force_Field>  (159) 
OPLS3e

>  <r_lp_Energy>  (159) 
33.9498

>  <b_lp_Chiralities_Consistent>  (159) 
1

>  <s_lp_Variant>  (159) 
43:0-1

>  <s_i_glide_gridfile>  (159) 
pfpi4k_grid

>  <i_i_glide_lignum>  (159) 
17

>  <i_i_glide_rotatable_bonds>  (159) 
7

>  <r_i_docking_score>  (159) 
-3.2599

>  <r_i_glide_ligand_efficiency>  (159) 
-0.108663

>  <r_i_glide_ligand_efficiency_sa>  (159) 
-0.337642

>  <r_i_glide_ligand_efficiency_ln>  (159) 
-0.740685

>  <r_i_glide_gscore>  (159) 
-3.2599

>  <r_i_glide_lipo>  (159) 
-1.06145

>  <r_i_glide_hbond>  (159) 
0

>  <r_i_glide_metal>  (159) 
-0

>  <r_i_glide_rewards>  (159) 
-0.600846

>  <r_i_glide_evdw>  (159) 
-18.877

>  <r_i_glide_ecoul>  (159) 
-6.46904

>  <r_i_glide_erotb>  (159) 
0.318819

>  <r_i_glide_esite>  (159) 
-0.00221755

>  <r_i_glide_emodel>  (159) 
-27.3372

>  <r_i_glide_energy>  (159) 
-25.346

>  <r_i_glide_einternal>  (159) 
6.64625

>  <r_i_glide_intrahb_reward>  (159) 
-0

>  <i_i_glide_confnum>  (159) 
4

>  <i_i_glide_posenum>  (159) 
33

>  <r_i_glide_eff_state_penalty>  (159) 
0

>  <ligand_id>  (159) 
43

>  <original_smiles>  (159) 
C=C(C)CCC1C2=C(CC3(C)C(=O)CCC13)C1(C)CCC(O)C(O)(CO)C1CC2=O

>  <smiles>  (159) 
[H]OC([H])([H])C1(O[H])C([H])(O[H])C([H])([H])C([H])([H])C2(C([H])([H])[H])C3=C(C(=O)C([H])([H])C12[H])C([H])(C([H])([H])C([H])([H])C(=C([H])[H])C([H])([H])[H])C1([H])C([H])([H])C([H])([H])C(=O)C1(C([H])([H])[H])C3([H])[H]

$$$$
44:0:0
     RDKit          3D

 44 47  0  0  1  0  0  0  0  0999 V2000
    2.5320   -5.8688    0.8512 C   0  0  0  0  0  0  0  0  0  0  0  0
    3.5978   -6.6428    1.0228 C   0  0  0  0  0  0  0  0  0  0  0  0
    4.6605   -5.8928    1.8006 C   0  0  1  0  0  0  0  0  0  0  0  0
    5.5323   -5.0663    0.8434 C   0  0  0  0  0  0  0  0  0  0  0  0
    4.7270   -4.2162   -0.0885 N   0  0  2  0  0  0  0  0  0  0  0  0
    5.6038   -3.2782   -0.8181 C   0  0  0  0  0  0  0  0  0  0  0  0
    4.8855   -2.5029   -1.9024 C   0  0  0  0  0  0  0  0  0  0  0  0
    4.8752   -1.0965   -1.8889 C   0  0  0  0  0  0  0  0  0  0  0  0
    4.2185   -0.3857   -2.9084 C   0  0  0  0  0  0  0  0  0  0  0  0
    3.5244   -1.0711   -3.9221 C   0  0  0  0  0  0  0  0  0  0  0  0
    3.5233   -2.4816   -3.9311 C   0  0  0  0  0  0  0  0  0  0  0  0
    4.2224   -3.1898   -2.9384 C   0  0  0  0  0  0  0  0  0  0  0  0
    3.4911   -3.5883    0.5020 C   0  0  0  0  0  0  0  0  0  0  0  0
    2.7707   -4.5249    1.5120 C   0  0  2  0  0  0  0  0  0  0  0  0
    3.7623   -4.9312    2.6412 C   0  0  2  0  0  0  0  0  0  0  0  0
    4.4614   -3.7585    3.3925 C   0  0  0  0  0  0  0  0  0  0  0  0
    5.3942   -4.3379    4.4582 C   0  0  0  0  0  0  0  0  0  0  0  0
    4.6121   -5.2328    5.4221 C   0  0  0  0  0  0  0  0  0  0  0  0
    3.7941   -6.3002    4.6760 C   0  0  0  0  0  0  0  0  0  0  0  0
    3.0229   -5.6811    3.6337 O   0  0  0  0  0  0  0  0  0  0  0  0
    1.6225   -6.1439    0.3331 H   0  0  0  0  0  0  0  0  0  0  0  0
    3.7211   -7.6687    0.6971 H   0  0  0  0  0  0  0  0  0  0  0  0
    5.3058   -6.5671    2.3619 H   0  0  0  0  0  0  0  0  0  0  0  0
    6.2196   -4.4625    1.4340 H   0  0  0  0  0  0  0  0  0  0  0  0
    6.1582   -5.7544    0.2746 H   0  0  0  0  0  0  0  0  0  0  0  0
    6.0648   -2.5840   -0.1120 H   0  0  0  0  0  0  0  0  0  0  0  0
    6.4208   -3.8349   -1.2746 H   0  0  0  0  0  0  0  0  0  0  0  0
    5.3892   -0.5459   -1.1127 H   0  0  0  0  0  0  0  0  0  0  0  0
    4.2139    0.6975   -2.9032 H   0  0  0  0  0  0  0  0  0  0  0  0
    3.0002   -0.5263   -4.6927 H   0  0  0  0  0  0  0  0  0  0  0  0
    3.0007   -3.0151   -4.7089 H   0  0  0  0  0  0  0  0  0  0  0  0
    4.2257   -4.2620   -2.9718 H   0  0  0  0  0  0  0  0  0  0  0  0
    3.7287   -2.6392    0.9835 H   0  0  0  0  0  0  0  0  0  0  0  0
    2.8012   -3.3399   -0.3104 H   0  0  0  0  0  0  0  0  0  0  0  0
    1.8521   -4.0935    1.9080 H   0  0  0  0  0  0  0  0  0  0  0  0
    5.0403   -3.0948    2.7466 H   0  0  0  0  0  0  0  0  0  0  0  0
    3.7100   -3.1108    3.8537 H   0  0  0  0  0  0  0  0  0  0  0  0
    6.1867   -4.9113    3.9778 H   0  0  0  0  0  0  0  0  0  0  0  0
    5.8834   -3.5271    4.9934 H   0  0  0  0  0  0  0  0  0  0  0  0
    5.2950   -5.7157    6.1193 H   0  0  0  0  0  0  0  0  0  0  0  0
    3.9337   -4.6156    6.0066 H   0  0  0  0  0  0  0  0  0  0  0  0
    4.4387   -7.0931    4.2908 H   0  0  0  0  0  0  0  0  0  0  0  0
    3.1164   -6.8106    5.3667 H   0  0  0  0  0  0  0  0  0  0  0  0
    4.3615   -4.8786   -0.7702 H   0  0  0  0  0  0  0  0  0  0  0  0
  1 14  1  0
  1  2  2  0
  1 21  1  0
  2  3  1  0
  2 22  1  0
  3 15  1  0
  3  4  1  0
  3 23  1  1
  4  5  1  0
  4 24  1  0
  4 25  1  0
  5  6  1  0
  5 13  1  0
  5 44  1  6
  6  7  1  0
  6 26  1  0
  6 27  1  0
  7 12  1  0
  7  8  2  0
  8  9  1  0
  8 28  1  0
  9 10  2  0
  9 29  1  0
 10 11  1  0
 10 30  1  0
 11 12  2  0
 11 31  1  0
 12 32  1  0
 13 14  1  0
 13 33  1  0
 13 34  1  0
 14 15  1  0
 14 35  1  1
 15 20  1  1
 15 16  1  0
 16 17  1  0
 16 36  1  0
 16 37  1  0
 17 18  1  0
 17 38  1  0
 17 39  1  0
 18 19  1  0
 18 40  1  0
 18 41  1  0
 19 20  1  0
 19 42  1  0
 19 43  1  0
M  CHG  1   5   1
M  END
>  <i_m_ct_stereo_status>  (160) 
1

>  <s_m_source_file>  (160) 
/var/tmp/pbs.5076255.sched01/tmpck0ladl8/45htcshi4i.sdf

>  <i_m_source_file_index>  (160) 
18

>  <i_lp_mmshare_version>  (160) 
48012

>  <i_f3d_flags>  (160) 
0

>  <s_epik_input>  (160) 
TzFbQ0gyXVtDSDJdW0NIMl1bQ0gyXVtDQEBdMTJbQ0BIXTNbQ0hdPVtDSF1bQ0BASF0yW0NIMl1OKFtDSDJdMylbQ0gyXWM0W2NIXVtjSF1bY0hdW2NIXVtjSF00

>  <s_epik_cmdline>  (160) 
J2VwaWtfcHl0aG9uJywgJy1waHQnLCAnMi4wJywgJy1waCcsICc3LjAnLCAnLXRuJywgJzgnLCAnLW1hJywgJzIwMCcsICctaW1hZScsICc8aW5maWxlLm1hZT4nLCAnLW9tYWUnLCAnPG91dGZpbGUubWFlPic=

>  <r_epik_Ionization_Penalty>  (160) 
0.010294

>  <r_epik_Ionization_Penalty_Charging>  (160) 
0.010294

>  <r_epik_Ionization_Penalty_Neutral>  (160) 
1.13574e-12

>  <r_epik_State_Penalty>  (160) 
0.00786437

>  <r_epik_Charging_Adjusted_Penalty>  (160) 
0.0181584

>  <i_epik_Tot_Q>  (160) 
1

>  <i_epik_Tot_abs_Q>  (160) 
1

>  <s_lp_Force_Field>  (160) 
OPLS3e

>  <r_lp_Energy>  (160) 
34.4826

>  <b_lp_Chiralities_Consistent>  (160) 
1

>  <s_lp_Variant>  (160) 
44:0-1

>  <s_i_glide_gridfile>  (160) 
pfpi4k_grid

>  <i_i_glide_lignum>  (160) 
18

>  <i_i_glide_rotatable_bonds>  (160) 
2

>  <r_i_docking_score>  (160) 
-3.37807

>  <r_i_glide_ligand_efficiency>  (160) 
-0.168904

>  <r_i_glide_ligand_efficiency_sa>  (160) 
-0.458475

>  <r_i_glide_ligand_efficiency_ln>  (160) 
-0.84542

>  <r_i_glide_gscore>  (160) 
-3.37807

>  <r_i_glide_lipo>  (160) 
-0.710925

>  <r_i_glide_hbond>  (160) 
0

>  <r_i_glide_metal>  (160) 
-0

>  <r_i_glide_rewards>  (160) 
-1.56553

>  <r_i_glide_evdw>  (160) 
-23.0244

>  <r_i_glide_ecoul>  (160) 
-2.93114

>  <r_i_glide_erotb>  (160) 
0.48927

>  <r_i_glide_esite>  (160) 
0

>  <r_i_glide_emodel>  (160) 
-30.7452

>  <r_i_glide_energy>  (160) 
-25.9555

>  <r_i_glide_einternal>  (160) 
0.733897

>  <r_i_glide_intrahb_reward>  (160) 
-0

>  <i_i_glide_confnum>  (160) 
4

>  <i_i_glide_posenum>  (160) 
11

>  <r_i_glide_eff_state_penalty>  (160) 
0

>  <ligand_id>  (160) 
44

>  <original_smiles>  (160) 
C1=CC2CN(Cc3ccccc3)CC1C21CCCCO1

>  <smiles>  (160) 
[H]C1=C([H])C2([H])C3(OC([H])([H])C([H])([H])C([H])([H])C3([H])[H])C1([H])C([H])([H])[N+]([H])(C([H])([H])c1c([H])c([H])c([H])c([H])c1[H])C2([H])[H]

$$$$
44:0:1
     RDKit          3D

 44 47  0  0  1  0  0  0  0  0999 V2000
    6.2252   -5.7848    0.8328 C   0  0  0  0  0  0  0  0  0  0  0  0
    6.4591   -5.0973    1.9674 C   0  0  0  0  0  0  0  0  0  0  0  0
    5.1657   -4.9128    2.7298 C   0  0  1  0  0  0  0  0  0  0  0  0
    4.4474   -3.6422    2.2245 C   0  0  0  0  0  0  0  0  0  0  0  0
    4.3002   -3.6085    0.7309 N   0  0  2  0  0  0  0  0  0  0  0  0
    3.4021   -2.5138    0.3078 C   0  0  0  0  0  0  0  0  0  0  0  0
    3.4526   -2.2234   -1.1825 C   0  0  0  0  0  0  0  0  0  0  0  0
    4.1318   -1.0807   -1.6555 C   0  0  0  0  0  0  0  0  0  0  0  0
    4.1124   -0.7951   -3.0365 C   0  0  0  0  0  0  0  0  0  0  0  0
    3.4694   -1.6554   -3.9368 C   0  0  0  0  0  0  0  0  0  0  0  0
    2.7968   -2.7952   -3.4682 C   0  0  0  0  0  0  0  0  0  0  0  0
    2.7657   -3.0728   -2.0894 C   0  0  0  0  0  0  0  0  0  0  0  0
    4.0209   -4.9382    0.0825 C   0  0  0  0  0  0  0  0  0  0  0  0
    4.7544   -6.1223    0.7600 C   0  0  2  0  0  0  0  0  0  0  0  0
    4.3643   -6.1679    2.2639 C   0  0  2  0  0  0  0  0  0  0  0  0
    2.8352   -6.2255    2.5767 C   0  0  0  0  0  0  0  0  0  0  0  0
    2.6505   -6.2695    4.0951 C   0  0  0  0  0  0  0  0  0  0  0  0
    3.3982   -7.4715    4.6873 C   0  0  0  0  0  0  0  0  0  0  0  0
    4.8730   -7.5033    4.2481 C   0  0  0  0  0  0  0  0  0  0  0  0
    4.9571   -7.3591    2.8262 O   0  0  0  0  0  0  0  0  0  0  0  0
    6.9593   -6.0829    0.1028 H   0  0  0  0  0  0  0  0  0  0  0  0
    7.4228   -4.7680    2.3059 H   0  0  0  0  0  0  0  0  0  0  0  0
    5.3376   -4.8243    3.8019 H   0  0  0  0  0  0  0  0  0  0  0  0
    3.4637   -3.5779    2.7075 H   0  0  0  0  0  0  0  0  0  0  0  0
    5.0119   -2.7644    2.5627 H   0  0  0  0  0  0  0  0  0  0  0  0
    2.3677   -2.7155    0.6108 H   0  0  0  0  0  0  0  0  0  0  0  0
    3.6816   -1.6077    0.8568 H   0  0  0  0  0  0  0  0  0  0  0  0
    4.6007   -0.3942   -0.9713 H   0  0  0  0  0  0  0  0  0  0  0  0
    4.5411    0.1199   -3.3928 H   0  0  0  0  0  0  0  0  0  0  0  0
    3.4612   -1.4247   -4.9857 H   0  0  0  0  0  0  0  0  0  0  0  0
    2.2773   -3.4489   -4.1451 H   0  0  0  0  0  0  0  0  0  0  0  0
    2.1923   -3.9073   -1.7471 H   0  0  0  0  0  0  0  0  0  0  0  0
    2.9411   -5.1469    0.0705 H   0  0  0  0  0  0  0  0  0  0  0  0
    4.3491   -4.9000   -0.9677 H   0  0  0  0  0  0  0  0  0  0  0  0
    4.5825   -7.0672    0.2412 H   0  0  0  0  0  0  0  0  0  0  0  0
    2.2590   -5.3820    2.1857 H   0  0  0  0  0  0  0  0  0  0  0  0
    2.3937   -7.1132    2.1136 H   0  0  0  0  0  0  0  0  0  0  0  0
    3.0274   -5.3459    4.5361 H   0  0  0  0  0  0  0  0  0  0  0  0
    1.5903   -6.3107    4.3375 H   0  0  0  0  0  0  0  0  0  0  0  0
    3.3389   -7.4473    5.7754 H   0  0  0  0  0  0  0  0  0  0  0  0
    2.9050   -8.3876    4.3573 H   0  0  0  0  0  0  0  0  0  0  0  0
    5.4516   -6.7310    4.7550 H   0  0  0  0  0  0  0  0  0  0  0  0
    5.3220   -8.4627    4.5290 H   0  0  0  0  0  0  0  0  0  0  0  0
    5.2404   -3.3644    0.4028 H   0  0  0  0  0  0  0  0  0  0  0  0
  1 14  1  0
  1  2  2  0
  1 21  1  0
  2  3  1  0
  2 22  1  0
  3 15  1  0
  3  4  1  0
  3 23  1  1
  4  5  1  0
  4 24  1  0
  4 25  1  0
  5  6  1  0
  5 13  1  0
  5 44  1  6
  6  7  1  0
  6 26  1  0
  6 27  1  0
  7 12  1  0
  7  8  2  0
  8  9  1  0
  8 28  1  0
  9 10  2  0
  9 29  1  0
 10 11  1  0
 10 30  1  0
 11 12  2  0
 11 31  1  0
 12 32  1  0
 13 14  1  0
 13 33  1  0
 13 34  1  0
 14 15  1  0
 14 35  1  6
 15 20  1  1
 15 16  1  0
 16 17  1  0
 16 36  1  0
 16 37  1  0
 17 18  1  0
 17 38  1  0
 17 39  1  0
 18 19  1  0
 18 40  1  0
 18 41  1  0
 19 20  1  0
 19 42  1  0
 19 43  1  0
M  CHG  1   5   1
M  END
>  <i_m_ct_stereo_status>  (161) 
1

>  <s_m_source_file>  (161) 
/var/tmp/pbs.5076255.sched01/tmpck0ladl8/45htcshi4i.sdf

>  <i_m_source_file_index>  (161) 
18

>  <i_lp_mmshare_version>  (161) 
48012

>  <i_f3d_flags>  (161) 
0

>  <s_epik_input>  (161) 
TzFbQ0gyXVtDSDJdW0NIMl1bQ0gyXVtDQEBdMTJbQ0BIXTNbQ0hdPVtDSF1bQ0BASF0yW0NIMl1OKFtDSDJdMylbQ0gyXWM0W2NIXVtjSF1bY0hdW2NIXVtjSF00

>  <s_epik_cmdline>  (161) 
J2VwaWtfcHl0aG9uJywgJy1waHQnLCAnMi4wJywgJy1waCcsICc3LjAnLCAnLXRuJywgJzgnLCAnLW1hJywgJzIwMCcsICctaW1hZScsICc8aW5maWxlLm1hZT4nLCAnLW9tYWUnLCAnPG91dGZpbGUubWFlPic=

>  <r_epik_Ionization_Penalty>  (161) 
0.010294

>  <r_epik_Ionization_Penalty_Charging>  (161) 
0.010294

>  <r_epik_Ionization_Penalty_Neutral>  (161) 
1.13574e-12

>  <r_epik_State_Penalty>  (161) 
0.00786437

>  <r_epik_Charging_Adjusted_Penalty>  (161) 
0.0181584

>  <i_epik_Tot_Q>  (161) 
1

>  <i_epik_Tot_abs_Q>  (161) 
1

>  <s_lp_Force_Field>  (161) 
OPLS3e

>  <r_lp_Energy>  (161) 
34.4826

>  <b_lp_Chiralities_Consistent>  (161) 
1

>  <s_lp_Variant>  (161) 
44:0-1

>  <s_i_glide_gridfile>  (161) 
pfpi4k_grid

>  <i_i_glide_lignum>  (161) 
18

>  <i_i_glide_rotatable_bonds>  (161) 
2

>  <r_i_docking_score>  (161) 
-3.27399

>  <r_i_glide_ligand_efficiency>  (161) 
-0.163699

>  <r_i_glide_ligand_efficiency_sa>  (161) 
-0.444348

>  <r_i_glide_ligand_efficiency_ln>  (161) 
-0.819371

>  <r_i_glide_gscore>  (161) 
-3.27399

>  <r_i_glide_lipo>  (161) 
-0.714212

>  <r_i_glide_hbond>  (161) 
0

>  <r_i_glide_metal>  (161) 
-0

>  <r_i_glide_rewards>  (161) 
-1.56553

>  <r_i_glide_evdw>  (161) 
-22.0801

>  <r_i_glide_ecoul>  (161) 
-2.53006

>  <r_i_glide_erotb>  (161) 
0.48927

>  <r_i_glide_esite>  (161) 
0

>  <r_i_glide_emodel>  (161) 
-29.1164

>  <r_i_glide_energy>  (161) 
-24.6102

>  <r_i_glide_einternal>  (161) 
0.540485

>  <r_i_glide_intrahb_reward>  (161) 
-0

>  <i_i_glide_confnum>  (161) 
1

>  <i_i_glide_posenum>  (161) 
35

>  <r_i_glide_eff_state_penalty>  (161) 
0

>  <ligand_id>  (161) 
44

>  <original_smiles>  (161) 
C1=CC2CN(Cc3ccccc3)CC1C21CCCCO1

>  <smiles>  (161) 
[H]C1=C([H])C2([H])C3(OC([H])([H])C([H])([H])C([H])([H])C3([H])[H])C1([H])C([H])([H])[N+]([H])(C([H])([H])c1c([H])c([H])c([H])c([H])c1[H])C2([H])[H]

$$$$
44:0:2
     RDKit          3D

 44 47  0  0  1  0  0  0  0  0999 V2000
    3.1172   -6.1188    1.0858 C   0  0  0  0  0  0  0  0  0  0  0  0
    4.2471   -6.5377    1.6705 C   0  0  0  0  0  0  0  0  0  0  0  0
    4.8741   -5.3939    2.4427 C   0  0  1  0  0  0  0  0  0  0  0  0
    5.7659   -4.5653    1.5059 C   0  0  0  0  0  0  0  0  0  0  0  0
    5.0685   -4.1405    0.2529 N   0  0  2  0  0  0  0  0  0  0  0  0
    5.8924   -3.1816   -0.5039 C   0  0  0  0  0  0  0  0  0  0  0  0
    5.1959   -2.5917   -1.7176 C   0  0  0  0  0  0  0  0  0  0  0  0
    4.8785   -1.2137   -1.7483 C   0  0  0  0  0  0  0  0  0  0  0  0
    4.2168   -0.6739   -2.8583 C   0  0  0  0  0  0  0  0  0  0  0  0
    3.8326   -1.4987   -3.9309 C   0  0  0  0  0  0  0  0  0  0  0  0
    4.1453   -2.8808   -3.8998 C   0  0  0  0  0  0  0  0  0  0  0  0
    4.8374   -3.4191   -2.7946 C   0  0  0  0  0  0  0  0  0  0  0  0
    3.6167   -3.7814    0.3977 C   0  0  0  0  0  0  0  0  0  0  0  0
    2.8837   -4.6632    1.4404 C   0  0  2  0  0  0  0  0  0  0  0  0
    3.6074   -4.5541    2.8111 C   0  0  2  0  0  0  0  0  0  0  0  0
    3.7933   -3.1050    3.3679 C   0  0  0  0  0  0  0  0  0  0  0  0
    4.5093   -3.1904    4.7162 C   0  0  0  0  0  0  0  0  0  0  0  0
    3.7057   -4.0598    5.6917 C   0  0  0  0  0  0  0  0  0  0  0  0
    3.3596   -5.4340    5.0922 C   0  0  0  0  0  0  0  0  0  0  0  0
    2.8005   -5.2649    3.7811 O   0  0  0  0  0  0  0  0  0  0  0  0
    2.4408   -6.7091    0.4911 H   0  0  0  0  0  0  0  0  0  0  0  0
    4.6433   -7.5400    1.6523 H   0  0  0  0  0  0  0  0  0  0  0  0
    5.4940   -5.7490    3.2638 H   0  0  0  0  0  0  0  0  0  0  0  0
    6.1269   -3.7011    2.0713 H   0  0  0  0  0  0  0  0  0  0  0  0
    6.6555   -5.1539    1.2724 H   0  0  0  0  0  0  0  0  0  0  0  0
    6.1997   -2.3581    0.1497 H   0  0  0  0  0  0  0  0  0  0  0  0
    6.8134   -3.6741   -0.8136 H   0  0  0  0  0  0  0  0  0  0  0  0
    5.1422   -0.5662   -0.9228 H   0  0  0  0  0  0  0  0  0  0  0  0
    3.9736    0.3830   -2.8845 H   0  0  0  0  0  0  0  0  0  0  0  0
    3.3012   -1.0837   -4.7664 H   0  0  0  0  0  0  0  0  0  0  0  0
    3.8519   -3.5220   -4.7068 H   0  0  0  0  0  0  0  0  0  0  0  0
    5.0553   -4.4784   -2.7769 H   0  0  0  0  0  0  0  0  0  0  0  0
    3.4939   -2.7256    0.6613 H   0  0  0  0  0  0  0  0  0  0  0  0
    3.1149   -3.9100   -0.5670 H   0  0  0  0  0  0  0  0  0  0  0  0
    1.8241   -4.4341    1.5135 H   0  0  0  0  0  0  0  0  0  0  0  0
    4.3603   -2.4296    2.7202 H   0  0  0  0  0  0  0  0  0  0  0  0
    2.8187   -2.6170    3.4809 H   0  0  0  0  0  0  0  0  0  0  0  0
    5.5042   -3.6124    4.5740 H   0  0  0  0  0  0  0  0  0  0  0  0
    4.6597   -2.1897    5.1158 H   0  0  0  0  0  0  0  0  0  0  0  0
    4.2653   -4.1943    6.6164 H   0  0  0  0  0  0  0  0  0  0  0  0
    2.7808   -3.5423    5.9409 H   0  0  0  0  0  0  0  0  0  0  0  0
    4.2308   -6.0924    5.0855 H   0  0  0  0  0  0  0  0  0  0  0  0
    2.6314   -5.9514    5.7278 H   0  0  0  0  0  0  0  0  0  0  0  0
    5.0292   -5.0034   -0.3039 H   0  0  0  0  0  0  0  0  0  0  0  0
  1 14  1  0
  1  2  2  0
  1 21  1  0
  2  3  1  0
  2 22  1  0
  3 15  1  0
  3  4  1  0
  3 23  1  1
  4  5  1  0
  4 24  1  0
  4 25  1  0
  5  6  1  0
  5 13  1  0
  5 44  1  6
  6  7  1  0
  6 26  1  0
  6 27  1  0
  7 12  1  0
  7  8  2  0
  8  9  1  0
  8 28  1  0
  9 10  2  0
  9 29  1  0
 10 11  1  0
 10 30  1  0
 11 12  2  0
 11 31  1  0
 12 32  1  0
 13 14  1  0
 13 33  1  0
 13 34  1  0
 14 15  1  0
 14 35  1  1
 15 20  1  1
 15 16  1  0
 16 17  1  0
 16 36  1  0
 16 37  1  0
 17 18  1  0
 17 38  1  0
 17 39  1  0
 18 19  1  0
 18 40  1  0
 18 41  1  0
 19 20  1  0
 19 42  1  0
 19 43  1  0
M  CHG  1   5   1
M  END
>  <i_m_ct_stereo_status>  (162) 
1

>  <s_m_source_file>  (162) 
/var/tmp/pbs.5076255.sched01/tmpck0ladl8/45htcshi4i.sdf

>  <i_m_source_file_index>  (162) 
18

>  <i_lp_mmshare_version>  (162) 
48012

>  <i_f3d_flags>  (162) 
0

>  <s_epik_input>  (162) 
TzFbQ0gyXVtDSDJdW0NIMl1bQ0gyXVtDQEBdMTJbQ0BIXTNbQ0hdPVtDSF1bQ0BASF0yW0NIMl1OKFtDSDJdMylbQ0gyXWM0W2NIXVtjSF1bY0hdW2NIXVtjSF00

>  <s_epik_cmdline>  (162) 
J2VwaWtfcHl0aG9uJywgJy1waHQnLCAnMi4wJywgJy1waCcsICc3LjAnLCAnLXRuJywgJzgnLCAnLW1hJywgJzIwMCcsICctaW1hZScsICc8aW5maWxlLm1hZT4nLCAnLW9tYWUnLCAnPG91dGZpbGUubWFlPic=

>  <r_epik_Ionization_Penalty>  (162) 
0.010294

>  <r_epik_Ionization_Penalty_Charging>  (162) 
0.010294

>  <r_epik_Ionization_Penalty_Neutral>  (162) 
1.13574e-12

>  <r_epik_State_Penalty>  (162) 
0.00786437

>  <r_epik_Charging_Adjusted_Penalty>  (162) 
0.0181584

>  <i_epik_Tot_Q>  (162) 
1

>  <i_epik_Tot_abs_Q>  (162) 
1

>  <s_lp_Force_Field>  (162) 
OPLS3e

>  <r_lp_Energy>  (162) 
34.4826

>  <b_lp_Chiralities_Consistent>  (162) 
1

>  <s_lp_Variant>  (162) 
44:0-1

>  <s_i_glide_gridfile>  (162) 
pfpi4k_grid

>  <i_i_glide_lignum>  (162) 
18

>  <i_i_glide_rotatable_bonds>  (162) 
2

>  <r_i_docking_score>  (162) 
-3.08382

>  <r_i_glide_ligand_efficiency>  (162) 
-0.154191

>  <r_i_glide_ligand_efficiency_sa>  (162) 
-0.418539

>  <r_i_glide_ligand_efficiency_ln>  (162) 
-0.771778

>  <r_i_glide_gscore>  (162) 
-3.08382

>  <r_i_glide_lipo>  (162) 
-0.572475

>  <r_i_glide_hbond>  (162) 
0

>  <r_i_glide_metal>  (162) 
-0

>  <r_i_glide_rewards>  (162) 
-1.56553

>  <r_i_glide_evdw>  (162) 
-22.8031

>  <r_i_glide_ecoul>  (162) 
-1.96619

>  <r_i_glide_erotb>  (162) 
0.48927

>  <r_i_glide_esite>  (162) 
0

>  <r_i_glide_emodel>  (162) 
-28.5869

>  <r_i_glide_energy>  (162) 
-24.7693

>  <r_i_glide_einternal>  (162) 
1.39474

>  <r_i_glide_intrahb_reward>  (162) 
-0

>  <i_i_glide_confnum>  (162) 
1

>  <i_i_glide_posenum>  (162) 
1

>  <r_i_glide_eff_state_penalty>  (162) 
0

>  <ligand_id>  (162) 
44

>  <original_smiles>  (162) 
C1=CC2CN(Cc3ccccc3)CC1C21CCCCO1

>  <smiles>  (162) 
[H]C1=C([H])C2([H])C3(OC([H])([H])C([H])([H])C([H])([H])C3([H])[H])C1([H])C([H])([H])[N+]([H])(C([H])([H])c1c([H])c([H])c([H])c([H])c1[H])C2([H])[H]

$$$$
44:1:0
     RDKit          3D

 44 47  0  0  1  0  0  0  0  0999 V2000
    4.9080   -1.8603    2.7845 C   0  0  0  0  0  0  0  0  0  0  0  0
    4.7954   -0.5255    2.9418 C   0  0  0  0  0  0  0  0  0  0  0  0
    3.3285   -0.1581    2.9970 C   0  0  1  0  0  0  0  0  0  0  0  0
    2.7925    0.0688    1.5534 C   0  0  0  0  0  0  0  0  0  0  0  0
    3.0614   -1.0736    0.6254 N   0  0  1  0  0  0  0  0  0  0  0  0
    4.2720   -0.9042   -0.2065 C   0  0  0  0  0  0  0  0  0  0  0  0
    4.2300   -1.7238   -1.4763 C   0  0  0  0  0  0  0  0  0  0  0  0
    3.4695   -1.2781   -2.5762 C   0  0  0  0  0  0  0  0  0  0  0  0
    3.4138   -2.0441   -3.7564 C   0  0  0  0  0  0  0  0  0  0  0  0
    4.1254   -3.2596   -3.8370 C   0  0  0  0  0  0  0  0  0  0  0  0
    4.8965   -3.6975   -2.7434 C   0  0  0  0  0  0  0  0  0  0  0  0
    4.9499   -2.9352   -1.5648 C   0  0  0  0  0  0  0  0  0  0  0  0
    2.9834   -2.4254    1.2467 C   0  0  0  0  0  0  0  0  0  0  0  0
    3.5322   -2.4734    2.6979 C   0  0  2  0  0  0  0  0  0  0  0  0
    2.7318   -1.4719    3.5811 C   0  0  2  0  0  0  0  0  0  0  0  0
    1.1846   -1.6336    3.6114 C   0  0  0  0  0  0  0  0  0  0  0  0
    0.8593   -2.9927    4.2597 C   0  0  0  0  0  0  0  0  0  0  0  0
    1.4987   -3.1068    5.6528 C   0  0  0  0  0  0  0  0  0  0  0  0
    2.9990   -2.7710    5.6350 C   0  0  0  0  0  0  0  0  0  0  0  0
    3.1806   -1.5272    4.9572 O   0  0  0  0  0  0  0  0  0  0  0  0
    5.8273   -2.4192    2.7325 H   0  0  0  0  0  0  0  0  0  0  0  0
    5.6102    0.1747    3.0372 H   0  0  0  0  0  0  0  0  0  0  0  0
    3.1604    0.7093    3.6392 H   0  0  0  0  0  0  0  0  0  0  0  0
    1.7136    0.2501    1.6000 H   0  0  0  0  0  0  0  0  0  0  0  0
    3.2200    0.9974    1.1616 H   0  0  0  0  0  0  0  0  0  0  0  0
    4.4128    0.1397   -0.4868 H   0  0  0  0  0  0  0  0  0  0  0  0
    5.1766   -1.1806    0.3351 H   0  0  0  0  0  0  0  0  0  0  0  0
    2.9141   -0.3567   -2.5234 H   0  0  0  0  0  0  0  0  0  0  0  0
    2.8168   -1.7027   -4.5868 H   0  0  0  0  0  0  0  0  0  0  0  0
    4.0636   -3.8747   -4.7168 H   0  0  0  0  0  0  0  0  0  0  0  0
    5.4170   -4.6367   -2.8029 H   0  0  0  0  0  0  0  0  0  0  0  0
    5.5298   -3.3003   -0.7308 H   0  0  0  0  0  0  0  0  0  0  0  0
    1.9435   -2.7533    1.2390 H   0  0  0  0  0  0  0  0  0  0  0  0
    3.5174   -3.1761    0.6605 H   0  0  0  0  0  0  0  0  0  0  0  0
    3.5272   -3.5091    3.0331 H   0  0  0  0  0  0  0  0  0  0  0  0
    0.7332   -0.8230    4.1876 H   0  0  0  0  0  0  0  0  0  0  0  0
    0.7142   -1.5682    2.6252 H   0  0  0  0  0  0  0  0  0  0  0  0
   -0.2168   -3.1300    4.3196 H   0  0  0  0  0  0  0  0  0  0  0  0
    1.2274   -3.7975    3.6222 H   0  0  0  0  0  0  0  0  0  0  0  0
    0.9985   -2.4108    6.3254 H   0  0  0  0  0  0  0  0  0  0  0  0
    1.3571   -4.1083    6.0565 H   0  0  0  0  0  0  0  0  0  0  0  0
    3.3796   -2.6668    6.6561 H   0  0  0  0  0  0  0  0  0  0  0  0
    3.5921   -3.5670    5.1828 H   0  0  0  0  0  0  0  0  0  0  0  0
    2.2774   -1.0365   -0.0441 H   0  0  0  0  0  0  0  0  0  0  0  0
  1 14  1  0
  1  2  2  0
  1 21  1  0
  2  3  1  0
  2 22  1  0
  3 15  1  0
  3  4  1  0
  3 23  1  1
  4  5  1  0
  4 24  1  0
  4 25  1  0
  5  6  1  0
  5 13  1  0
  5 44  1  6
  6  7  1  0
  6 26  1  0
  6 27  1  0
  7 12  1  0
  7  8  2  0
  8  9  1  0
  8 28  1  0
  9 10  2  0
  9 29  1  0
 10 11  1  0
 10 30  1  0
 11 12  2  0
 11 31  1  0
 12 32  1  0
 13 14  1  0
 13 33  1  0
 13 34  1  0
 14 15  1  0
 14 35  1  1
 15 20  1  1
 15 16  1  0
 16 17  1  0
 16 36  1  0
 16 37  1  0
 17 18  1  0
 17 38  1  0
 17 39  1  0
 18 19  1  0
 18 40  1  0
 18 41  1  0
 19 20  1  0
 19 42  1  0
 19 43  1  0
M  CHG  1   5   1
M  END
>  <i_m_ct_stereo_status>  (163) 
1

>  <s_m_source_file>  (163) 
/var/tmp/pbs.5076255.sched01/tmpck0ladl8/45htcshi4i.sdf

>  <i_m_source_file_index>  (163) 
19

>  <i_lp_mmshare_version>  (163) 
48012

>  <i_f3d_flags>  (163) 
0

>  <s_epik_input>  (163) 
TzFbQ0gyXVtDSDJdW0NIMl1bQ0gyXVtDQEBdMTJbQ0BIXTNbQ0hdPVtDSF1bQ0BASF0yW0NIMl1OKFtDSDJdMylbQ0gyXWM0W2NIXVtjSF1bY0hdW2NIXVtjSF00

>  <s_epik_cmdline>  (163) 
J2VwaWtfcHl0aG9uJywgJy1waHQnLCAnMi4wJywgJy1waCcsICc3LjAnLCAnLXRuJywgJzgnLCAnLW1hJywgJzIwMCcsICctaW1hZScsICc8aW5maWxlLm1hZT4nLCAnLW9tYWUnLCAnPG91dGZpbGUubWFlPic=

>  <r_epik_Ionization_Penalty>  (163) 
0.010294

>  <r_epik_Ionization_Penalty_Charging>  (163) 
0.010294

>  <r_epik_Ionization_Penalty_Neutral>  (163) 
1.13574e-12

>  <r_epik_State_Penalty>  (163) 
0.00786437

>  <r_epik_Charging_Adjusted_Penalty>  (163) 
0.0181584

>  <i_epik_Tot_Q>  (163) 
1

>  <i_epik_Tot_abs_Q>  (163) 
1

>  <s_lp_Force_Field>  (163) 
OPLS3e

>  <r_lp_Energy>  (163) 
39.5283

>  <b_lp_Chiralities_Consistent>  (163) 
1

>  <s_lp_Variant>  (163) 
44:0-2

>  <s_i_glide_gridfile>  (163) 
pfpi4k_grid

>  <i_i_glide_lignum>  (163) 
19

>  <i_i_glide_rotatable_bonds>  (163) 
2

>  <r_i_docking_score>  (163) 
-3.89812

>  <r_i_glide_ligand_efficiency>  (163) 
-0.194906

>  <r_i_glide_ligand_efficiency_sa>  (163) 
-0.529057

>  <r_i_glide_ligand_efficiency_ln>  (163) 
-0.975572

>  <r_i_glide_gscore>  (163) 
-3.89812

>  <r_i_glide_lipo>  (163) 
-0.534248

>  <r_i_glide_hbond>  (163) 
-0.2

>  <r_i_glide_metal>  (163) 
-0

>  <r_i_glide_rewards>  (163) 
-1.56553

>  <r_i_glide_evdw>  (163) 
-22.9415

>  <r_i_glide_ecoul>  (163) 
-5.74796

>  <r_i_glide_erotb>  (163) 
0.48927

>  <r_i_glide_esite>  (163) 
-0.078347

>  <r_i_glide_emodel>  (163) 
-36.1606

>  <r_i_glide_energy>  (163) 
-28.6895

>  <r_i_glide_einternal>  (163) 
0.139896

>  <r_i_glide_intrahb_reward>  (163) 
-0

>  <i_i_glide_confnum>  (163) 
3

>  <i_i_glide_posenum>  (163) 
26

>  <r_i_glide_eff_state_penalty>  (163) 
0

>  <ligand_id>  (163) 
44

>  <original_smiles>  (163) 
C1=CC2CN(Cc3ccccc3)CC1C21CCCCO1

>  <smiles>  (163) 
[H]C1=C([H])C2([H])C3(OC([H])([H])C([H])([H])C([H])([H])C3([H])[H])C1([H])C([H])([H])[N+]([H])(C([H])([H])c1c([H])c([H])c([H])c([H])c1[H])C2([H])[H]

$$$$
44:1:1
     RDKit          3D

 44 47  0  0  1  0  0  0  0  0999 V2000
    4.0365   -1.6823    0.3020 C   0  0  0  0  0  0  0  0  0  0  0  0
    5.3143   -2.0658    0.3820 C   0  0  0  0  0  0  0  0  0  0  0  0
    5.6247   -2.9924   -0.7780 C   0  0  1  0  0  0  0  0  0  0  0  0
    5.2527   -4.4504   -0.3866 C   0  0  0  0  0  0  0  0  0  0  0  0
    3.8497   -4.6061    0.1282 N   0  0  1  0  0  0  0  0  0  0  0  0
    3.7312   -4.5893    1.6109 C   0  0  0  0  0  0  0  0  0  0  0  0
    2.6075   -5.4817    2.1075 C   0  0  0  0  0  0  0  0  0  0  0  0
    1.7200   -5.0121    3.0974 C   0  0  0  0  0  0  0  0  0  0  0  0
    0.7121   -5.8552    3.5947 C   0  0  0  0  0  0  0  0  0  0  0  0
    0.5714   -7.1624    3.0892 C   0  0  0  0  0  0  0  0  0  0  0  0
    1.4530   -7.6327    2.1003 C   0  0  0  0  0  0  0  0  0  0  0  0
    2.4781   -6.7999    1.6167 C   0  0  0  0  0  0  0  0  0  0  0  0
    2.8352   -3.7329   -0.5349 C   0  0  0  0  0  0  0  0  0  0  0  0
    3.4071   -2.3377   -0.8972 C   0  0  2  0  0  0  0  0  0  0  0  0
    4.6218   -2.4659   -1.8396 C   0  0  2  0  0  0  0  0  0  0  0  0
    4.4038   -3.2607   -3.1521 C   0  0  0  0  0  0  0  0  0  0  0  0
    3.3548   -2.5246   -4.0042 C   0  0  0  0  0  0  0  0  0  0  0  0
    3.8034   -1.0832   -4.2891 C   0  0  0  0  0  0  0  0  0  0  0  0
    4.1820   -0.3717   -2.9913 C   0  0  0  0  0  0  0  0  0  0  0  0
    5.0996   -1.1656   -2.2391 O   0  0  0  0  0  0  0  0  0  0  0  0
    3.5092   -1.0028    0.9609 H   0  0  0  0  0  0  0  0  0  0  0  0
    6.0351   -1.7648    1.1322 H   0  0  0  0  0  0  0  0  0  0  0  0
    6.6555   -2.9071   -1.1134 H   0  0  0  0  0  0  0  0  0  0  0  0
    5.3646   -5.0883   -1.2689 H   0  0  0  0  0  0  0  0  0  0  0  0
    5.9768   -4.8282    0.3425 H   0  0  0  0  0  0  0  0  0  0  0  0
    4.6549   -4.9206    2.0898 H   0  0  0  0  0  0  0  0  0  0  0  0
    3.5518   -3.5684    1.9642 H   0  0  0  0  0  0  0  0  0  0  0  0
    1.8355   -4.0152    3.4984 H   0  0  0  0  0  0  0  0  0  0  0  0
    0.0569   -5.4979    4.3702 H   0  0  0  0  0  0  0  0  0  0  0  0
   -0.2015   -7.8075    3.4706 H   0  0  0  0  0  0  0  0  0  0  0  0
    1.3599   -8.6381    1.7244 H   0  0  0  0  0  0  0  0  0  0  0  0
    3.1722   -7.1914    0.8895 H   0  0  0  0  0  0  0  0  0  0  0  0
    2.4724   -4.2285   -1.4390 H   0  0  0  0  0  0  0  0  0  0  0  0
    1.9486   -3.6185    0.1006 H   0  0  0  0  0  0  0  0  0  0  0  0
    2.6161   -1.7369   -1.3092 H   0  0  0  0  0  0  0  0  0  0  0  0
    5.3459   -3.3785   -3.6927 H   0  0  0  0  0  0  0  0  0  0  0  0
    4.0501   -4.2498   -2.9718 H   0  0  0  0  0  0  0  0  0  0  0  0
    3.1872   -3.0654   -4.9306 H   0  0  0  0  0  0  0  0  0  0  0  0
    2.3846   -2.5267   -3.5004 H   0  0  0  0  0  0  0  0  0  0  0  0
    4.6697   -1.0928   -4.9424 H   0  0  0  0  0  0  0  0  0  0  0  0
    3.0097   -0.5364   -4.8006 H   0  0  0  0  0  0  0  0  0  0  0  0
    4.6274    0.6049   -3.1894 H   0  0  0  0  0  0  0  0  0  0  0  0
    3.2769   -0.1946   -2.4266 H   0  0  0  0  0  0  0  0  0  0  0  0
    3.5937   -5.5504   -0.1402 H   0  0  0  0  0  0  0  0  0  0  0  0
  1 14  1  0
  1  2  2  0
  1 21  1  0
  2  3  1  0
  2 22  1  0
  3 15  1  0
  3  4  1  0
  3 23  1  6
  4  5  1  0
  4 24  1  0
  4 25  1  0
  5  6  1  0
  5 13  1  0
  5 44  1  6
  6  7  1  0
  6 26  1  0
  6 27  1  0
  7 12  1  0
  7  8  2  0
  8  9  1  0
  8 28  1  0
  9 10  2  0
  9 29  1  0
 10 11  1  0
 10 30  1  0
 11 12  2  0
 11 31  1  0
 12 32  1  0
 13 14  1  0
 13 33  1  0
 13 34  1  0
 14 15  1  0
 14 35  1  6
 15 20  1  6
 15 16  1  0
 16 17  1  0
 16 36  1  0
 16 37  1  0
 17 18  1  0
 17 38  1  0
 17 39  1  0
 18 19  1  0
 18 40  1  0
 18 41  1  0
 19 20  1  0
 19 42  1  0
 19 43  1  0
M  CHG  1   5   1
M  END
>  <i_m_ct_stereo_status>  (164) 
1

>  <s_m_source_file>  (164) 
/var/tmp/pbs.5076255.sched01/tmpck0ladl8/45htcshi4i.sdf

>  <i_m_source_file_index>  (164) 
19

>  <i_lp_mmshare_version>  (164) 
48012

>  <i_f3d_flags>  (164) 
0

>  <s_epik_input>  (164) 
TzFbQ0gyXVtDSDJdW0NIMl1bQ0gyXVtDQEBdMTJbQ0BIXTNbQ0hdPVtDSF1bQ0BASF0yW0NIMl1OKFtDSDJdMylbQ0gyXWM0W2NIXVtjSF1bY0hdW2NIXVtjSF00

>  <s_epik_cmdline>  (164) 
J2VwaWtfcHl0aG9uJywgJy1waHQnLCAnMi4wJywgJy1waCcsICc3LjAnLCAnLXRuJywgJzgnLCAnLW1hJywgJzIwMCcsICctaW1hZScsICc8aW5maWxlLm1hZT4nLCAnLW9tYWUnLCAnPG91dGZpbGUubWFlPic=

>  <r_epik_Ionization_Penalty>  (164) 
0.010294

>  <r_epik_Ionization_Penalty_Charging>  (164) 
0.010294

>  <r_epik_Ionization_Penalty_Neutral>  (164) 
1.13574e-12

>  <r_epik_State_Penalty>  (164) 
0.00786437

>  <r_epik_Charging_Adjusted_Penalty>  (164) 
0.0181584

>  <i_epik_Tot_Q>  (164) 
1

>  <i_epik_Tot_abs_Q>  (164) 
1

>  <s_lp_Force_Field>  (164) 
OPLS3e

>  <r_lp_Energy>  (164) 
39.5283

>  <b_lp_Chiralities_Consistent>  (164) 
1

>  <s_lp_Variant>  (164) 
44:0-2

>  <s_i_glide_gridfile>  (164) 
pfpi4k_grid

>  <i_i_glide_lignum>  (164) 
19

>  <i_i_glide_rotatable_bonds>  (164) 
2

>  <r_i_docking_score>  (164) 
-3.60519

>  <r_i_glide_ligand_efficiency>  (164) 
-0.18026

>  <r_i_glide_ligand_efficiency_sa>  (164) 
-0.4893

>  <r_i_glide_ligand_efficiency_ln>  (164) 
-0.90226

>  <r_i_glide_gscore>  (164) 
-3.60519

>  <r_i_glide_lipo>  (164) 
-0.527025

>  <r_i_glide_hbond>  (164) 
0

>  <r_i_glide_metal>  (164) 
-0

>  <r_i_glide_rewards>  (164) 
-1.56553

>  <r_i_glide_evdw>  (164) 
-25.2644

>  <r_i_glide_ecoul>  (164) 
-4.86504

>  <r_i_glide_erotb>  (164) 
0.48927

>  <r_i_glide_esite>  (164) 
-0.00893303

>  <r_i_glide_emodel>  (164) 
-36.043

>  <r_i_glide_energy>  (164) 
-30.1294

>  <r_i_glide_einternal>  (164) 
1.59561

>  <r_i_glide_intrahb_reward>  (164) 
-0

>  <i_i_glide_confnum>  (164) 
1

>  <i_i_glide_posenum>  (164) 
18

>  <r_i_glide_eff_state_penalty>  (164) 
0

>  <ligand_id>  (164) 
44

>  <original_smiles>  (164) 
C1=CC2CN(Cc3ccccc3)CC1C21CCCCO1

>  <smiles>  (164) 
[H]C1=C([H])C2([H])C3(OC([H])([H])C([H])([H])C([H])([H])C3([H])[H])C1([H])C([H])([H])[N+]([H])(C([H])([H])c1c([H])c([H])c([H])c([H])c1[H])C2([H])[H]

$$$$
44:1:2
     RDKit          3D

 44 47  0  0  1  0  0  0  0  0999 V2000
    5.7867   -4.2305    1.5923 C   0  0  0  0  0  0  0  0  0  0  0  0
    5.3061   -5.0959    0.6915 C   0  0  0  0  0  0  0  0  0  0  0  0
    4.2254   -4.4277   -0.1304 C   0  0  1  0  0  0  0  0  0  0  0  0
    2.8511   -4.5481    0.5613 C   0  0  0  0  0  0  0  0  0  0  0  0
    2.8694   -4.1198    2.0040 N   0  0  1  0  0  0  0  0  0  0  0  0
    3.0526   -5.2437    2.9675 C   0  0  0  0  0  0  0  0  0  0  0  0
    1.7978   -6.0821    3.1417 C   0  0  0  0  0  0  0  0  0  0  0  0
    1.5039   -7.1361    2.2460 C   0  0  0  0  0  0  0  0  0  0  0  0
    0.3375   -7.8987    2.4021 C   0  0  0  0  0  0  0  0  0  0  0  0
   -0.5219   -7.6557    3.4875 C   0  0  0  0  0  0  0  0  0  0  0  0
   -0.2151   -6.6371    4.4137 C   0  0  0  0  0  0  0  0  0  0  0  0
    0.9359   -5.8483    4.2340 C   0  0  0  0  0  0  0  0  0  0  0  0
    3.7477   -2.9301    2.2911 C   0  0  0  0  0  0  0  0  0  0  0  0
    5.0644   -2.9105    1.4413 C   0  0  2  0  0  0  0  0  0  0  0  0
    4.7103   -2.9550   -0.0713 C   0  0  2  0  0  0  0  0  0  0  0  0
    3.7682   -1.8059   -0.5261 C   0  0  0  0  0  0  0  0  0  0  0  0
    3.5406   -1.8269   -2.0322 C   0  0  0  0  0  0  0  0  0  0  0  0
    4.8799   -1.8485   -2.7637 C   0  0  0  0  0  0  0  0  0  0  0  0
    5.7771   -2.9781   -2.2537 C   0  0  0  0  0  0  0  0  0  0  0  0
    5.9281   -2.8364   -0.8377 O   0  0  0  0  0  0  0  0  0  0  0  0
    6.5629   -4.4217    2.3257 H   0  0  0  0  0  0  0  0  0  0  0  0
    5.6176   -6.1215    0.5491 H   0  0  0  0  0  0  0  0  0  0  0  0
    4.1653   -4.8621   -1.1257 H   0  0  0  0  0  0  0  0  0  0  0  0
    2.1246   -3.9421    0.0109 H   0  0  0  0  0  0  0  0  0  0  0  0
    2.5221   -5.5757    0.4331 H   0  0  0  0  0  0  0  0  0  0  0  0
    3.8693   -5.9029    2.6795 H   0  0  0  0  0  0  0  0  0  0  0  0
    3.3269   -4.8498    3.9474 H   0  0  0  0  0  0  0  0  0  0  0  0
    2.1778   -7.3904    1.4422 H   0  0  0  0  0  0  0  0  0  0  0  0
    0.1208   -8.6917    1.7000 H   0  0  0  0  0  0  0  0  0  0  0  0
   -1.4002   -8.2687    3.6198 H   0  0  0  0  0  0  0  0  0  0  0  0
   -0.8546   -6.4783    5.2703 H   0  0  0  0  0  0  0  0  0  0  0  0
    1.1758   -5.0850    4.9619 H   0  0  0  0  0  0  0  0  0  0  0  0
    3.1639   -2.0268    2.0880 H   0  0  0  0  0  0  0  0  0  0  0  0
    3.9892   -2.8653    3.3564 H   0  0  0  0  0  0  0  0  0  0  0  0
    5.7080   -2.0601    1.6829 H   0  0  0  0  0  0  0  0  0  0  0  0
    2.7916   -1.8190   -0.0401 H   0  0  0  0  0  0  0  0  0  0  0  0
    4.2314   -0.8568   -0.2440 H   0  0  0  0  0  0  0  0  0  0  0  0
    2.9394   -2.6977   -2.2944 H   0  0  0  0  0  0  0  0  0  0  0  0
    2.9649   -0.9448   -2.3150 H   0  0  0  0  0  0  0  0  0  0  0  0
    4.7125   -1.9508   -3.8351 H   0  0  0  0  0  0  0  0  0  0  0  0
    5.3880   -0.8978   -2.6019 H   0  0  0  0  0  0  0  0  0  0  0  0
    5.3701   -3.9465   -2.5459 H   0  0  0  0  0  0  0  0  0  0  0  0
    6.7659   -2.9201   -2.7097 H   0  0  0  0  0  0  0  0  0  0  0  0
    1.9324   -3.7946    2.2021 H   0  0  0  0  0  0  0  0  0  0  0  0
  1 14  1  0
  1  2  2  0
  1 21  1  0
  2  3  1  0
  2 22  1  0
  3 15  1  0
  3  4  1  0
  3 23  1  6
  4  5  1  0
  4 24  1  0
  4 25  1  0
  5  6  1  0
  5 13  1  0
  5 44  1  1
  6  7  1  0
  6 26  1  0
  6 27  1  0
  7 12  1  0
  7  8  2  0
  8  9  1  0
  8 28  1  0
  9 10  2  0
  9 29  1  0
 10 11  1  0
 10 30  1  0
 11 12  2  0
 11 31  1  0
 12 32  1  0
 13 14  1  0
 13 33  1  0
 13 34  1  0
 14 15  1  0
 14 35  1  6
 15 20  1  6
 15 16  1  0
 16 17  1  0
 16 36  1  0
 16 37  1  0
 17 18  1  0
 17 38  1  0
 17 39  1  0
 18 19  1  0
 18 40  1  0
 18 41  1  0
 19 20  1  0
 19 42  1  0
 19 43  1  0
M  CHG  1   5   1
M  END
>  <i_m_ct_stereo_status>  (165) 
1

>  <s_m_source_file>  (165) 
/var/tmp/pbs.5076255.sched01/tmpck0ladl8/45htcshi4i.sdf

>  <i_m_source_file_index>  (165) 
19

>  <i_lp_mmshare_version>  (165) 
48012

>  <i_f3d_flags>  (165) 
0

>  <s_epik_input>  (165) 
TzFbQ0gyXVtDSDJdW0NIMl1bQ0gyXVtDQEBdMTJbQ0BIXTNbQ0hdPVtDSF1bQ0BASF0yW0NIMl1OKFtDSDJdMylbQ0gyXWM0W2NIXVtjSF1bY0hdW2NIXVtjSF00

>  <s_epik_cmdline>  (165) 
J2VwaWtfcHl0aG9uJywgJy1waHQnLCAnMi4wJywgJy1waCcsICc3LjAnLCAnLXRuJywgJzgnLCAnLW1hJywgJzIwMCcsICctaW1hZScsICc8aW5maWxlLm1hZT4nLCAnLW9tYWUnLCAnPG91dGZpbGUubWFlPic=

>  <r_epik_Ionization_Penalty>  (165) 
0.010294

>  <r_epik_Ionization_Penalty_Charging>  (165) 
0.010294

>  <r_epik_Ionization_Penalty_Neutral>  (165) 
1.13574e-12

>  <r_epik_State_Penalty>  (165) 
0.00786437

>  <r_epik_Charging_Adjusted_Penalty>  (165) 
0.0181584

>  <i_epik_Tot_Q>  (165) 
1

>  <i_epik_Tot_abs_Q>  (165) 
1

>  <s_lp_Force_Field>  (165) 
OPLS3e

>  <r_lp_Energy>  (165) 
39.5283

>  <b_lp_Chiralities_Consistent>  (165) 
1

>  <s_lp_Variant>  (165) 
44:0-2

>  <s_i_glide_gridfile>  (165) 
pfpi4k_grid

>  <i_i_glide_lignum>  (165) 
19

>  <i_i_glide_rotatable_bonds>  (165) 
2

>  <r_i_docking_score>  (165) 
-3.20978

>  <r_i_glide_ligand_efficiency>  (165) 
-0.160489

>  <r_i_glide_ligand_efficiency_sa>  (165) 
-0.435634

>  <r_i_glide_ligand_efficiency_ln>  (165) 
-0.803303

>  <r_i_glide_gscore>  (165) 
-3.20978

>  <r_i_glide_lipo>  (165) 
-0.340552

>  <r_i_glide_hbond>  (165) 
0

>  <r_i_glide_metal>  (165) 
-0

>  <r_i_glide_rewards>  (165) 
-1.56553

>  <r_i_glide_evdw>  (165) 
-23.2171

>  <r_i_glide_ecoul>  (165) 
-4.18553

>  <r_i_glide_erotb>  (165) 
0.48927

>  <r_i_glide_esite>  (165) 
-0.00428729

>  <r_i_glide_emodel>  (165) 
-33.544

>  <r_i_glide_energy>  (165) 
-27.4026

>  <r_i_glide_einternal>  (165) 
0.0720724

>  <r_i_glide_intrahb_reward>  (165) 
-0

>  <i_i_glide_confnum>  (165) 
6

>  <i_i_glide_posenum>  (165) 
11

>  <r_i_glide_eff_state_penalty>  (165) 
0

>  <ligand_id>  (165) 
44

>  <original_smiles>  (165) 
C1=CC2CN(Cc3ccccc3)CC1C21CCCCO1

>  <smiles>  (165) 
[H]C1=C([H])C2([H])C3(OC([H])([H])C([H])([H])C([H])([H])C3([H])[H])C1([H])C([H])([H])[N+]([H])(C([H])([H])c1c([H])c([H])c([H])c([H])c1[H])C2([H])[H]

$$$$
44:2:0
     RDKit          3D

 43 46  0  0  1  0  0  0  0  0999 V2000
    4.1920   -1.4325    0.3375 C   0  0  0  0  0  0  0  0  0  0  0  0
    5.5049   -1.6476    0.3111 C   0  0  0  0  0  0  0  0  0  0  0  0
    5.8213   -2.6094   -0.8193 C   0  0  1  0  0  0  0  0  0  0  0  0
    5.6813   -4.0734   -0.3266 C   0  0  0  0  0  0  0  0  0  0  0  0
    4.3898   -4.3101    0.3577 N   0  0  0  0  0  0  0  0  0  0  0  0
    4.1321   -5.7367    0.5638 C   0  0  0  0  0  0  0  0  0  0  0  0
    5.1420   -6.4600    1.4446 C   0  0  0  0  0  0  0  0  0  0  0  0
    5.3360   -7.8505    1.3030 C   0  0  0  0  0  0  0  0  0  0  0  0
    6.2862   -8.5185    2.1018 C   0  0  0  0  0  0  0  0  0  0  0  0
    7.0578   -7.7902    3.0284 C   0  0  0  0  0  0  0  0  0  0  0  0
    6.8628   -6.4077    3.1753 C   0  0  0  0  0  0  0  0  0  0  0  0
    5.8923   -5.7520    2.4109 C   0  0  0  0  0  0  0  0  0  0  0  0
    3.2164   -3.6769   -0.2599 C   0  0  0  0  0  0  0  0  0  0  0  0
    3.5440   -2.2505   -0.7503 C   0  0  2  0  0  0  0  0  0  0  0  0
    4.6731   -2.2927   -1.7976 C   0  0  2  0  0  0  0  0  0  0  0  0
    4.4855   -3.2482   -3.0123 C   0  0  0  0  0  0  0  0  0  0  0  0
    3.3013   -2.7511   -3.8578 C   0  0  0  0  0  0  0  0  0  0  0  0
    3.5357   -1.2968   -4.2827 C   0  0  0  0  0  0  0  0  0  0  0  0
    3.9043   -0.4131   -3.0927 C   0  0  0  0  0  0  0  0  0  0  0  0
    4.9604   -0.9963   -2.3393 O   0  0  0  0  0  0  0  0  0  0  0  0
    3.6602   -0.7667    0.9960 H   0  0  0  0  0  0  0  0  0  0  0  0
    6.2457   -1.1881    0.9436 H   0  0  0  0  0  0  0  0  0  0  0  0
    6.8100   -2.4168   -1.2409 H   0  0  0  0  0  0  0  0  0  0  0  0
    5.7798   -4.7740   -1.1578 H   0  0  0  0  0  0  0  0  0  0  0  0
    6.5136   -4.2435    0.3597 H   0  0  0  0  0  0  0  0  0  0  0  0
    3.1480   -5.8438    1.0198 H   0  0  0  0  0  0  0  0  0  0  0  0
    4.0833   -6.2206   -0.4124 H   0  0  0  0  0  0  0  0  0  0  0  0
    4.7517   -8.4113    0.5850 H   0  0  0  0  0  0  0  0  0  0  0  0
    6.4322   -9.5772    1.9851 H   0  0  0  0  0  0  0  0  0  0  0  0
    7.8085   -8.2891    3.6199 H   0  0  0  0  0  0  0  0  0  0  0  0
    7.4624   -5.8340    3.8709 H   0  0  0  0  0  0  0  0  0  0  0  0
    5.7465   -4.6936    2.5482 H   0  0  0  0  0  0  0  0  0  0  0  0
    2.8448   -4.2876   -1.0825 H   0  0  0  0  0  0  0  0  0  0  0  0
    2.4152   -3.6298    0.4786 H   0  0  0  0  0  0  0  0  0  0  0  0
    2.6392   -1.7772   -1.1149 H   0  0  0  0  0  0  0  0  0  0  0  0
    5.4032   -3.2990   -3.6180 H   0  0  0  0  0  0  0  0  0  0  0  0
    4.2978   -4.2812   -2.7113 H   0  0  0  0  0  0  0  0  0  0  0  0
    3.1414   -3.3979   -4.7212 H   0  0  0  0  0  0  0  0  0  0  0  0
    2.3923   -2.8238   -3.2630 H   0  0  0  0  0  0  0  0  0  0  0  0
    4.3405   -1.2516   -5.0149 H   0  0  0  0  0  0  0  0  0  0  0  0
    2.6367   -0.8987   -4.7477 H   0  0  0  0  0  0  0  0  0  0  0  0
    4.2384    0.5640   -3.4431 H   0  0  0  0  0  0  0  0  0  0  0  0
    3.0345   -0.2557   -2.4613 H   0  0  0  0  0  0  0  0  0  0  0  0
  1 14  1  0
  1  2  2  0
  1 21  1  0
  2  3  1  0
  2 22  1  0
  3 15  1  0
  3  4  1  0
  3 23  1  6
  4  5  1  0
  4 24  1  0
  4 25  1  0
  5  6  1  0
  5 13  1  0
  6  7  1  0
  6 26  1  0
  6 27  1  0
  7 12  1  0
  7  8  2  0
  8  9  1  0
  8 28  1  0
  9 10  2  0
  9 29  1  0
 10 11  1  0
 10 30  1  0
 11 12  2  0
 11 31  1  0
 12 32  1  0
 13 14  1  0
 13 33  1  0
 13 34  1  0
 14 15  1  0
 14 35  1  6
 15 20  1  6
 15 16  1  0
 16 17  1  0
 16 36  1  0
 16 37  1  0
 17 18  1  0
 17 38  1  0
 17 39  1  0
 18 19  1  0
 18 40  1  0
 18 41  1  0
 19 20  1  0
 19 42  1  0
 19 43  1  0
M  END
>  <i_m_ct_stereo_status>  (166) 
1

>  <s_m_source_file>  (166) 
/var/tmp/pbs.5076255.sched01/tmpck0ladl8/45htcshi4i.sdf

>  <i_m_source_file_index>  (166) 
20

>  <i_lp_mmshare_version>  (166) 
48012

>  <i_f3d_flags>  (166) 
0

>  <s_epik_input>  (166) 
TzFbQ0gyXVtDSDJdW0NIMl1bQ0gyXVtDQEBdMTJbQ0BIXTNbQ0hdPVtDSF1bQ0BASF0yW0NIMl1OKFtDSDJdMylbQ0gyXWM0W2NIXVtjSF1bY0hdW2NIXVtjSF00

>  <s_epik_cmdline>  (166) 
J2VwaWtfcHl0aG9uJywgJy1waHQnLCAnMi4wJywgJy1waCcsICc3LjAnLCAnLXRuJywgJzgnLCAnLW1hJywgJzIwMCcsICctaW1hZScsICc8aW5maWxlLm1hZT4nLCAnLW9tYWUnLCAnPG91dGZpbGUubWFlPic=

>  <r_epik_Ionization_Penalty>  (166) 
2.40634

>  <r_epik_Ionization_Penalty_Charging>  (166) 
0

>  <r_epik_Ionization_Penalty_Neutral>  (166) 
2.40634

>  <r_epik_State_Penalty>  (166) 
2.56464

>  <r_epik_Charging_Adjusted_Penalty>  (166) 
2.56464

>  <i_epik_Tot_Q>  (166) 
0

>  <i_epik_Tot_abs_Q>  (166) 
0

>  <s_lp_Force_Field>  (166) 
OPLS3e

>  <r_lp_Energy>  (166) 
38.8068

>  <b_lp_Chiralities_Consistent>  (166) 
1

>  <s_lp_Variant>  (166) 
44:0-3

>  <s_i_glide_gridfile>  (166) 
pfpi4k_grid

>  <i_i_glide_lignum>  (166) 
20

>  <i_i_glide_rotatable_bonds>  (166) 
2

>  <r_i_docking_score>  (166) 
-3.57526

>  <r_i_glide_ligand_efficiency>  (166) 
-0.178763

>  <r_i_glide_ligand_efficiency_sa>  (166) 
-0.485238

>  <r_i_glide_ligand_efficiency_ln>  (166) 
-0.894771

>  <r_i_glide_gscore>  (166) 
-3.57526

>  <r_i_glide_lipo>  (166) 
-0.866811

>  <r_i_glide_hbond>  (166) 
0

>  <r_i_glide_metal>  (166) 
-0

>  <r_i_glide_rewards>  (166) 
-1.5724

>  <r_i_glide_evdw>  (166) 
-28.3573

>  <r_i_glide_ecoul>  (166) 
-1.4042

>  <r_i_glide_erotb>  (166) 
0.49244

>  <r_i_glide_esite>  (166) 
0

>  <r_i_glide_emodel>  (166) 
-35.8695

>  <r_i_glide_energy>  (166) 
-29.7615

>  <r_i_glide_einternal>  (166) 
1.02801

>  <r_i_glide_intrahb_reward>  (166) 
-0

>  <i_i_glide_confnum>  (166) 
1

>  <i_i_glide_posenum>  (166) 
6

>  <r_i_glide_eff_state_penalty>  (166) 
0

>  <ligand_id>  (166) 
44

>  <original_smiles>  (166) 
C1=CC2CN(Cc3ccccc3)CC1C21CCCCO1

>  <smiles>  (166) 
[H]C1=C([H])C2([H])C([H])([H])N(C([H])([H])c3c([H])c([H])c([H])c([H])c3[H])C([H])([H])C1([H])C21OC([H])([H])C([H])([H])C([H])([H])C1([H])[H]

$$$$
44:2:1
     RDKit          3D

 43 46  0  0  1  0  0  0  0  0999 V2000
    3.8902   -1.3885    0.3920 C   0  0  0  0  0  0  0  0  0  0  0  0
    5.2134   -1.5079    0.5336 C   0  0  0  0  0  0  0  0  0  0  0  0
    5.7328   -2.4762   -0.5171 C   0  0  1  0  0  0  0  0  0  0  0  0
    5.6239   -3.9396    0.0174 C   0  0  0  0  0  0  0  0  0  0  0  0
    4.2744   -4.2547    0.5344 N   0  0  0  0  0  0  0  0  0  0  0  0
    4.1009   -5.6954    0.6934 C   0  0  0  0  0  0  0  0  0  0  0  0
    2.8677   -6.0704    1.5081 C   0  0  0  0  0  0  0  0  0  0  0  0
    2.9550   -6.1418    2.9129 C   0  0  0  0  0  0  0  0  0  0  0  0
    1.8221   -6.4834    3.6780 C   0  0  0  0  0  0  0  0  0  0  0  0
    0.5947   -6.7480    3.0411 C   0  0  0  0  0  0  0  0  0  0  0  0
    0.4992   -6.6711    1.6363 C   0  0  0  0  0  0  0  0  0  0  0  0
    1.6326   -6.3182    0.8830 C   0  0  0  0  0  0  0  0  0  0  0  0
    3.1576   -3.6986   -0.2508 C   0  0  0  0  0  0  0  0  0  0  0  0
    3.4555   -2.2737   -0.7482 C   0  0  2  0  0  0  0  0  0  0  0  0
    4.6984   -2.2650   -1.6464 C   0  0  2  0  0  0  0  0  0  0  0  0
    4.6919   -3.2544   -2.8515 C   0  0  0  0  0  0  0  0  0  0  0  0
    3.5707   -2.8461   -3.8337 C   0  0  0  0  0  0  0  0  0  0  0  0
    3.7318   -1.3817   -4.2618 C   0  0  0  0  0  0  0  0  0  0  0  0
    3.9090   -0.4440   -3.0670 C   0  0  0  0  0  0  0  0  0  0  0  0
    4.9258   -0.9578   -2.2031 O   0  0  0  0  0  0  0  0  0  0  0  0
    3.2193   -0.7470    0.9379 H   0  0  0  0  0  0  0  0  0  0  0  0
    5.8245   -0.9677    1.2334 H   0  0  0  0  0  0  0  0  0  0  0  0
    6.7429   -2.2147   -0.8269 H   0  0  0  0  0  0  0  0  0  0  0  0
    5.9250   -4.6500   -0.7557 H   0  0  0  0  0  0  0  0  0  0  0  0
    6.3292   -4.0564    0.8459 H   0  0  0  0  0  0  0  0  0  0  0  0
    4.0535   -6.1575   -0.2961 H   0  0  0  0  0  0  0  0  0  0  0  0
    4.9780   -6.1198    1.1873 H   0  0  0  0  0  0  0  0  0  0  0  0
    3.8980   -5.9458    3.4012 H   0  0  0  0  0  0  0  0  0  0  0  0
    1.9022   -6.5496    4.7534 H   0  0  0  0  0  0  0  0  0  0  0  0
   -0.2722   -7.0197    3.6336 H   0  0  0  0  0  0  0  0  0  0  0  0
   -0.4382   -6.8930    1.1412 H   0  0  0  0  0  0  0  0  0  0  0  0
    1.5604   -6.2539   -0.1941 H   0  0  0  0  0  0  0  0  0  0  0  0
    2.9271   -4.3482   -1.0909 H   0  0  0  0  0  0  0  0  0  0  0  0
    2.2629   -3.6660    0.3743 H   0  0  0  0  0  0  0  0  0  0  0  0
    2.6149   -1.8798   -1.2722 H   0  0  0  0  0  0  0  0  0  0  0  0
    5.6632   -3.2396   -3.3601 H   0  0  0  0  0  0  0  0  0  0  0  0
    4.5538   -4.2998   -2.5544 H   0  0  0  0  0  0  0  0  0  0  0  0
    3.5626   -3.5042   -4.7013 H   0  0  0  0  0  0  0  0  0  0  0  0
    2.6020   -2.9808   -3.3560 H   0  0  0  0  0  0  0  0  0  0  0  0
    4.6104   -1.2851   -4.8950 H   0  0  0  0  0  0  0  0  0  0  0  0
    2.8787   -1.0560   -4.8528 H   0  0  0  0  0  0  0  0  0  0  0  0
    4.2123    0.5492   -3.4092 H   0  0  0  0  0  0  0  0  0  0  0  0
    2.9615   -0.3003   -2.5483 H   0  0  0  0  0  0  0  0  0  0  0  0
  1 14  1  0
  1  2  2  0
  1 21  1  0
  2  3  1  0
  2 22  1  0
  3 15  1  0
  3  4  1  0
  3 23  1  6
  4  5  1  0
  4 24  1  0
  4 25  1  0
  5  6  1  0
  5 13  1  0
  6  7  1  0
  6 26  1  0
  6 27  1  0
  7 12  1  0
  7  8  2  0
  8  9  1  0
  8 28  1  0
  9 10  2  0
  9 29  1  0
 10 11  1  0
 10 30  1  0
 11 12  2  0
 11 31  1  0
 12 32  1  0
 13 14  1  0
 13 33  1  0
 13 34  1  0
 14 15  1  0
 14 35  1  6
 15 20  1  6
 15 16  1  0
 16 17  1  0
 16 36  1  0
 16 37  1  0
 17 18  1  0
 17 38  1  0
 17 39  1  0
 18 19  1  0
 18 40  1  0
 18 41  1  0
 19 20  1  0
 19 42  1  0
 19 43  1  0
M  END
>  <i_m_ct_stereo_status>  (167) 
1

>  <s_m_source_file>  (167) 
/var/tmp/pbs.5076255.sched01/tmpck0ladl8/45htcshi4i.sdf

>  <i_m_source_file_index>  (167) 
20

>  <i_lp_mmshare_version>  (167) 
48012

>  <i_f3d_flags>  (167) 
0

>  <s_epik_input>  (167) 
TzFbQ0gyXVtDSDJdW0NIMl1bQ0gyXVtDQEBdMTJbQ0BIXTNbQ0hdPVtDSF1bQ0BASF0yW0NIMl1OKFtDSDJdMylbQ0gyXWM0W2NIXVtjSF1bY0hdW2NIXVtjSF00

>  <s_epik_cmdline>  (167) 
J2VwaWtfcHl0aG9uJywgJy1waHQnLCAnMi4wJywgJy1waCcsICc3LjAnLCAnLXRuJywgJzgnLCAnLW1hJywgJzIwMCcsICctaW1hZScsICc8aW5maWxlLm1hZT4nLCAnLW9tYWUnLCAnPG91dGZpbGUubWFlPic=

>  <r_epik_Ionization_Penalty>  (167) 
2.40634

>  <r_epik_Ionization_Penalty_Charging>  (167) 
0

>  <r_epik_Ionization_Penalty_Neutral>  (167) 
2.40634

>  <r_epik_State_Penalty>  (167) 
2.56464

>  <r_epik_Charging_Adjusted_Penalty>  (167) 
2.56464

>  <i_epik_Tot_Q>  (167) 
0

>  <i_epik_Tot_abs_Q>  (167) 
0

>  <s_lp_Force_Field>  (167) 
OPLS3e

>  <r_lp_Energy>  (167) 
38.8068

>  <b_lp_Chiralities_Consistent>  (167) 
1

>  <s_lp_Variant>  (167) 
44:0-3

>  <s_i_glide_gridfile>  (167) 
pfpi4k_grid

>  <i_i_glide_lignum>  (167) 
20

>  <i_i_glide_rotatable_bonds>  (167) 
2

>  <r_i_docking_score>  (167) 
-3.30214

>  <r_i_glide_ligand_efficiency>  (167) 
-0.165107

>  <r_i_glide_ligand_efficiency_sa>  (167) 
-0.44817

>  <r_i_glide_ligand_efficiency_ln>  (167) 
-0.826418

>  <r_i_glide_gscore>  (167) 
-3.30214

>  <r_i_glide_lipo>  (167) 
-0.614044

>  <r_i_glide_hbond>  (167) 
0

>  <r_i_glide_metal>  (167) 
-0

>  <r_i_glide_rewards>  (167) 
-1.5724

>  <r_i_glide_evdw>  (167) 
-29.6743

>  <r_i_glide_ecoul>  (167) 
-0.829482

>  <r_i_glide_erotb>  (167) 
0.49244

>  <r_i_glide_esite>  (167) 
0

>  <r_i_glide_emodel>  (167) 
-35.8436

>  <r_i_glide_energy>  (167) 
-30.5038

>  <r_i_glide_einternal>  (167) 
1.39423

>  <r_i_glide_intrahb_reward>  (167) 
-0

>  <i_i_glide_confnum>  (167) 
2

>  <i_i_glide_posenum>  (167) 
40

>  <r_i_glide_eff_state_penalty>  (167) 
0

>  <ligand_id>  (167) 
44

>  <original_smiles>  (167) 
C1=CC2CN(Cc3ccccc3)CC1C21CCCCO1

>  <smiles>  (167) 
[H]C1=C([H])C2([H])C([H])([H])N(C([H])([H])c3c([H])c([H])c([H])c([H])c3[H])C([H])([H])C1([H])C21OC([H])([H])C([H])([H])C([H])([H])C1([H])[H]

$$$$
44:2:2
     RDKit          3D

 43 46  0  0  1  0  0  0  0  0999 V2000
    5.8063   -5.0425    3.1627 C   0  0  0  0  0  0  0  0  0  0  0  0
    5.4115   -3.8917    3.7181 C   0  0  0  0  0  0  0  0  0  0  0  0
    4.4086   -3.2226    2.8137 C   0  0  1  0  0  0  0  0  0  0  0  0
    5.1310   -2.3640    1.7352 C   0  0  0  0  0  0  0  0  0  0  0  0
    6.1128   -3.1285    0.9246 N   0  0  0  0  0  0  0  0  0  0  0  0
    6.5633   -2.4319   -0.2822 C   0  0  0  0  0  0  0  0  0  0  0  0
    5.5171   -2.3302   -1.3970 C   0  0  0  0  0  0  0  0  0  0  0  0
    5.6007   -3.1583   -2.5353 C   0  0  0  0  0  0  0  0  0  0  0  0
    4.6115   -3.1111   -3.5337 C   0  0  0  0  0  0  0  0  0  0  0  0
    3.5228   -2.2330   -3.4098 C   0  0  0  0  0  0  0  0  0  0  0  0
    3.4536   -1.3809   -2.2944 C   0  0  0  0  0  0  0  0  0  0  0  0
    4.4503   -1.4110   -1.3081 C   0  0  0  0  0  0  0  0  0  0  0  0
    5.8290   -4.5548    0.6723 C   0  0  0  0  0  0  0  0  0  0  0  0
    5.0755   -5.2399    1.8415 C   0  0  2  0  0  0  0  0  0  0  0  0
    3.7665   -4.4574    2.1361 C   0  0  2  0  0  0  0  0  0  0  0  0
    2.8085   -4.2357    0.9320 C   0  0  0  0  0  0  0  0  0  0  0  0
    2.2777   -5.6122    0.4783 C   0  0  0  0  0  0  0  0  0  0  0  0
    1.6308   -6.3721    1.6473 C   0  0  0  0  0  0  0  0  0  0  0  0
    2.5474   -6.4215    2.8813 C   0  0  0  0  0  0  0  0  0  0  0  0
    3.0064   -5.1038    3.1727 O   0  0  0  0  0  0  0  0  0  0  0  0
    6.5379   -5.7339    3.5565 H   0  0  0  0  0  0  0  0  0  0  0  0
    5.7590   -3.4706    4.6524 H   0  0  0  0  0  0  0  0  0  0  0  0
    3.7029   -2.6220    3.3840 H   0  0  0  0  0  0  0  0  0  0  0  0
    4.3362   -1.9641    1.1216 H   0  0  0  0  0  0  0  0  0  0  0  0
    5.6552   -1.5158    2.2079 H   0  0  0  0  0  0  0  0  0  0  0  0
    6.9162   -1.4364    0.0002 H   0  0  0  0  0  0  0  0  0  0  0  0
    7.4341   -2.9697   -0.6637 H   0  0  0  0  0  0  0  0  0  0  0  0
    6.4256   -3.8435   -2.6446 H   0  0  0  0  0  0  0  0  0  0  0  0
    4.6872   -3.7611   -4.3956 H   0  0  0  0  0  0  0  0  0  0  0  0
    2.7503   -2.1935   -4.1653 H   0  0  0  0  0  0  0  0  0  0  0  0
    2.6137   -0.7128   -2.1692 H   0  0  0  0  0  0  0  0  0  0  0  0
    4.3710   -0.7237   -0.4782 H   0  0  0  0  0  0  0  0  0  0  0  0
    5.2188   -4.6442   -0.2190 H   0  0  0  0  0  0  0  0  0  0  0  0
    6.7607   -5.0902    0.4640 H   0  0  0  0  0  0  0  0  0  0  0  0
    4.9575   -6.3022    1.6145 H   0  0  0  0  0  0  0  0  0  0  0  0
    1.9878   -3.5889    1.2471 H   0  0  0  0  0  0  0  0  0  0  0  0
    3.2710   -3.7179    0.0840 H   0  0  0  0  0  0  0  0  0  0  0  0
    1.5816   -5.4927   -0.3508 H   0  0  0  0  0  0  0  0  0  0  0  0
    3.1134   -6.1922    0.0865 H   0  0  0  0  0  0  0  0  0  0  0  0
    0.7058   -5.8752    1.9329 H   0  0  0  0  0  0  0  0  0  0  0  0
    1.3744   -7.3858    1.3448 H   0  0  0  0  0  0  0  0  0  0  0  0
    1.9904   -6.7842    3.7498 H   0  0  0  0  0  0  0  0  0  0  0  0
    3.3898   -7.1034    2.7427 H   0  0  0  0  0  0  0  0  0  0  0  0
  1 14  1  0
  1  2  2  0
  1 21  1  0
  2  3  1  0
  2 22  1  0
  3 15  1  0
  3  4  1  0
  3 23  1  1
  4  5  1  0
  4 24  1  0
  4 25  1  0
  5  6  1  0
  5 13  1  0
  6  7  1  0
  6 26  1  0
  6 27  1  0
  7 12  1  0
  7  8  2  0
  8  9  1  0
  8 28  1  0
  9 10  2  0
  9 29  1  0
 10 11  1  0
 10 30  1  0
 11 12  2  0
 11 31  1  0
 12 32  1  0
 13 14  1  0
 13 33  1  0
 13 34  1  0
 14 15  1  0
 14 35  1  6
 15 20  1  1
 15 16  1  0
 16 17  1  0
 16 36  1  0
 16 37  1  0
 17 18  1  0
 17 38  1  0
 17 39  1  0
 18 19  1  0
 18 40  1  0
 18 41  1  0
 19 20  1  0
 19 42  1  0
 19 43  1  0
M  END
>  <i_m_ct_stereo_status>  (168) 
1

>  <s_m_source_file>  (168) 
/var/tmp/pbs.5076255.sched01/tmpck0ladl8/45htcshi4i.sdf

>  <i_m_source_file_index>  (168) 
20

>  <i_lp_mmshare_version>  (168) 
48012

>  <i_f3d_flags>  (168) 
0

>  <s_epik_input>  (168) 
TzFbQ0gyXVtDSDJdW0NIMl1bQ0gyXVtDQEBdMTJbQ0BIXTNbQ0hdPVtDSF1bQ0BASF0yW0NIMl1OKFtDSDJdMylbQ0gyXWM0W2NIXVtjSF1bY0hdW2NIXVtjSF00

>  <s_epik_cmdline>  (168) 
J2VwaWtfcHl0aG9uJywgJy1waHQnLCAnMi4wJywgJy1waCcsICc3LjAnLCAnLXRuJywgJzgnLCAnLW1hJywgJzIwMCcsICctaW1hZScsICc8aW5maWxlLm1hZT4nLCAnLW9tYWUnLCAnPG91dGZpbGUubWFlPic=

>  <r_epik_Ionization_Penalty>  (168) 
2.40634

>  <r_epik_Ionization_Penalty_Charging>  (168) 
0

>  <r_epik_Ionization_Penalty_Neutral>  (168) 
2.40634

>  <r_epik_State_Penalty>  (168) 
2.56464

>  <r_epik_Charging_Adjusted_Penalty>  (168) 
2.56464

>  <i_epik_Tot_Q>  (168) 
0

>  <i_epik_Tot_abs_Q>  (168) 
0

>  <s_lp_Force_Field>  (168) 
OPLS3e

>  <r_lp_Energy>  (168) 
38.8068

>  <b_lp_Chiralities_Consistent>  (168) 
1

>  <s_lp_Variant>  (168) 
44:0-3

>  <s_i_glide_gridfile>  (168) 
pfpi4k_grid

>  <i_i_glide_lignum>  (168) 
20

>  <i_i_glide_rotatable_bonds>  (168) 
2

>  <r_i_docking_score>  (168) 
-3.07842

>  <r_i_glide_ligand_efficiency>  (168) 
-0.153921

>  <r_i_glide_ligand_efficiency_sa>  (168) 
-0.417805

>  <r_i_glide_ligand_efficiency_ln>  (168) 
-0.770426

>  <r_i_glide_gscore>  (168) 
-3.07842

>  <r_i_glide_lipo>  (168) 
-0.808235

>  <r_i_glide_hbond>  (168) 
0

>  <r_i_glide_metal>  (168) 
-0

>  <r_i_glide_rewards>  (168) 
-1.5724

>  <r_i_glide_evdw>  (168) 
-24.1622

>  <r_i_glide_ecoul>  (168) 
0.119269

>  <r_i_glide_erotb>  (168) 
0.49244

>  <r_i_glide_esite>  (168) 
0

>  <r_i_glide_emodel>  (168) 
-28.1518

>  <r_i_glide_energy>  (168) 
-24.043

>  <r_i_glide_einternal>  (168) 
2.40957

>  <r_i_glide_intrahb_reward>  (168) 
-0

>  <i_i_glide_confnum>  (168) 
3

>  <i_i_glide_posenum>  (168) 
37

>  <r_i_glide_eff_state_penalty>  (168) 
0

>  <ligand_id>  (168) 
44

>  <original_smiles>  (168) 
C1=CC2CN(Cc3ccccc3)CC1C21CCCCO1

>  <smiles>  (168) 
[H]C1=C([H])C2([H])C([H])([H])N(C([H])([H])c3c([H])c([H])c([H])c([H])c3[H])C([H])([H])C1([H])C21OC([H])([H])C([H])([H])C([H])([H])C1([H])[H]

$$$$
46:0:0
     RDKit          3D

 61 65  0  0  1  0  0  0  0  0999 V2000
    1.8099    0.7180   10.6664 C   0  0  0  0  0  0  0  0  0  0  0  0
    1.2196    1.4414    9.4399 C   0  0  2  0  0  0  0  0  0  0  0  0
    0.2798    2.5530    9.9243 C   0  0  0  0  0  0  0  0  0  0  0  0
   -0.1796    3.4305    8.7608 C   0  0  0  0  0  0  0  0  0  0  0  0
   -0.8034    2.6111    7.6145 C   0  0  2  0  0  0  0  0  0  0  0  0
   -2.2035    2.0693    7.9245 C   0  0  1  0  0  0  0  0  0  0  0  0
   -3.3618    3.0381    7.6662 C   0  0  0  0  0  0  0  0  0  0  0  0
   -2.3542    0.9530    7.0687 O   0  0  0  0  0  0  0  0  0  0  0  0
   -1.1682    0.6672    6.4036 C   0  0  2  0  0  0  0  0  0  0  0  0
   -1.0306   -0.7041    6.3163 O   0  0  0  0  0  0  0  0  0  0  0  0
    0.1748   -1.2655    5.8320 C   0  0  2  0  0  0  0  0  0  0  0  0
   -0.4017   -2.5001    5.1042 C   0  0  0  0  0  0  0  0  0  0  0  0
    0.9360   -1.7481    7.0779 C   0  0  0  0  0  0  0  0  0  0  0  0
    1.4577   -0.6643    8.0353 C   0  0  0  0  0  0  0  0  0  0  0  0
    0.4991    0.5124    8.4022 C   0  0  2  0  0  0  0  0  0  0  0  0
   -0.0075    1.3560    7.1637 C   0  0  2  0  0  0  0  0  0  0  0  0
    1.1569    1.7275    6.2001 C   0  0  0  0  0  0  0  0  0  0  0  0
    1.6340    2.8593    6.1966 O   0  0  0  0  0  0  0  0  0  0  0  0
    1.6971    0.7305    5.4533 O   0  0  0  0  0  0  0  0  0  0  0  0
    0.9740   -0.3469    4.8447 C   0  0  1  0  0  0  0  0  0  0  0  0
    2.0459   -1.1294    4.0346 C   0  0  0  0  0  0  0  0  0  0  0  0
    2.5705   -0.4137    2.7814 C   0  0  0  0  0  0  0  0  0  0  0  0
    2.0273    0.6219    2.4006 O   0  0  0  0  0  0  0  0  0  0  0  0
    3.7254   -1.0444    2.0622 C   0  0  0  0  0  0  0  0  0  0  0  0
    4.2179   -0.4464    0.8824 C   0  0  0  0  0  0  0  0  0  0  0  0
    5.2983   -1.0161    0.1802 C   0  0  0  0  0  0  0  0  0  0  0  0
    5.9218   -2.1970    0.6471 C   0  0  0  0  0  0  0  0  0  0  0  0
    7.0622   -2.7918   -0.0838 N   0  0  0  0  0  0  0  0  0  0  0  0
    7.4133   -2.2582   -1.1290 O   0  0  0  0  0  0  0  0  0  0  0  0
    7.6073   -3.7822    0.3902 O   0  0  0  0  0  0  0  0  0  0  0  0
    5.4299   -2.7964    1.8279 C   0  0  0  0  0  0  0  0  0  0  0  0
    4.3436   -2.2302    2.5267 C   0  0  0  0  0  0  0  0  0  0  0  0
    1.0691    0.0824   11.1521 H   0  0  0  0  0  0  0  0  0  0  0  0
    2.1666    1.4325   11.4089 H   0  0  0  0  0  0  0  0  0  0  0  0
    2.6737    0.1066   10.4051 H   0  0  0  0  0  0  0  0  0  0  0  0
    2.0616    1.9281    8.9445 H   0  0  0  0  0  0  0  0  0  0  0  0
   -0.5777    2.1119   10.4338 H   0  0  0  0  0  0  0  0  0  0  0  0
    0.7802    3.1815   10.6635 H   0  0  0  0  0  0  0  0  0  0  0  0
   -0.8934    4.1709    9.1204 H   0  0  0  0  0  0  0  0  0  0  0  0
    0.6743    3.9979    8.3888 H   0  0  0  0  0  0  0  0  0  0  0  0
   -0.9090    3.2875    6.7647 H   0  0  0  0  0  0  0  0  0  0  0  0
   -2.2531    1.7153    8.9510 H   0  0  0  0  0  0  0  0  0  0  0  0
   -3.3188    3.9104    8.3188 H   0  0  0  0  0  0  0  0  0  0  0  0
   -4.3154    2.5458    7.8451 H   0  0  0  0  0  0  0  0  0  0  0  0
   -3.3655    3.3750    6.6305 H   0  0  0  0  0  0  0  0  0  0  0  0
   -1.2871    1.0875    5.4043 H   0  0  0  0  0  0  0  0  0  0  0  0
    0.3613   -3.2394    4.8559 H   0  0  0  0  0  0  0  0  0  0  0  0
   -0.9097   -2.2069    4.1841 H   0  0  0  0  0  0  0  0  0  0  0  0
   -1.1335   -3.0121    5.7322 H   0  0  0  0  0  0  0  0  0  0  0  0
    0.2833   -2.4149    7.6452 H   0  0  0  0  0  0  0  0  0  0  0  0
    1.7794   -2.3683    6.7718 H   0  0  0  0  0  0  0  0  0  0  0  0
    1.6927   -1.2117    8.9444 H   0  0  0  0  0  0  0  0  0  0  0  0
    2.4220   -0.2915    7.6888 H   0  0  0  0  0  0  0  0  0  0  0  0
   -0.3718    0.0830    8.8993 H   0  0  0  0  0  0  0  0  0  0  0  0
    0.2647    0.0718    4.1292 H   0  0  0  0  0  0  0  0  0  0  0  0
    2.8779   -1.3761    4.6927 H   0  0  0  0  0  0  0  0  0  0  0  0
    1.6490   -2.0730    3.6672 H   0  0  0  0  0  0  0  0  0  0  0  0
    3.7672    0.4588    0.4989 H   0  0  0  0  0  0  0  0  0  0  0  0
    5.6421   -0.5298   -0.7204 H   0  0  0  0  0  0  0  0  0  0  0  0
    5.8867   -3.6980    2.2081 H   0  0  0  0  0  0  0  0  0  0  0  0
    4.0067   -2.7325    3.4200 H   0  0  0  0  0  0  0  0  0  0  0  0
  1  2  1  0
  1 33  1  0
  1 34  1  0
  1 35  1  0
  2 15  1  0
  2  3  1  0
  2 36  1  6
  3  4  1  0
  3 37  1  0
  3 38  1  0
  4  5  1  0
  4 39  1  0
  4 40  1  0
  5 16  1  0
  5  6  1  0
  5 41  1  6
  6  7  1  0
  6  8  1  0
  6 42  1  1
  7 43  1  0
  7 44  1  0
  7 45  1  0
  8  9  1  0
  9 16  1  0
  9 10  1  0
  9 46  1  6
 10 11  1  0
 11 20  1  0
 11 12  1  6
 11 13  1  0
 12 47  1  0
 12 48  1  0
 12 49  1  0
 13 14  1  0
 13 50  1  0
 13 51  1  0
 14 15  1  0
 14 52  1  0
 14 53  1  0
 15 16  1  0
 15 54  1  1
 16 17  1  6
 17 18  2  0
 17 19  1  0
 19 20  1  0
 20 21  1  0
 20 55  1  6
 21 22  1  0
 21 56  1  0
 21 57  1  0
 22 23  2  0
 22 24  1  0
 24 32  1  0
 24 25  2  0
 25 26  1  0
 25 58  1  0
 26 27  2  0
 26 59  1  0
 27 28  1  0
 27 31  1  0
 28 29  2  0
 28 30  1  0
 31 32  2  0
 31 60  1  0
 32 61  1  0
M  CHG  2  28   1  30  -1
M  END
>  <i_m_ct_stereo_status>  (169) 
1

>  <s_m_source_file>  (169) 
/var/tmp/pbs.5076255.sched01/tmpck0ladl8/45htcshi4i.sdf

>  <i_m_source_file_index>  (169) 
24

>  <i_lp_mmshare_version>  (169) 
48012

>  <i_f3d_flags>  (169) 
0

>  <s_epik_input>  (169) 
W0NAQF0xMjNbQ0BASF00W0NIMl1bQ0gyXVtDQEBIXShbQ0gzXSlbQ0BASF0yW0NIMl1bQ0gyXVtDQEBdKFtDSDNdKShPW0NASF0xT1tDQEBIXTRbQ0gzXSlbQ0BASF0oT0MzPU8pW0NIMl1DKD1PKWM1W2NIXVtjSF1jKFtOK10oPU8pW08tXSlbY0hdW2NIXTU=

>  <s_epik_cmdline>  (169) 
J2VwaWtfcHl0aG9uJywgJy1waHQnLCAnMi4wJywgJy1waCcsICc3LjAnLCAnLXRuJywgJzgnLCAnLW1hJywgJzIwMCcsICctaW1hZScsICc8aW5maWxlLm1hZT4nLCAnLW9tYWUnLCAnPG91dGZpbGUubWFlPic=

>  <r_lp_tautomer_probability>  (169) 
1

>  <r_epik_Ionization_Penalty>  (169) 
7.41989e-14

>  <r_epik_Ionization_Penalty_Charging>  (169) 
0

>  <r_epik_Ionization_Penalty_Neutral>  (169) 
7.41989e-14

>  <r_epik_State_Penalty>  (169) 
-0

>  <r_epik_Charging_Adjusted_Penalty>  (169) 
0

>  <i_epik_Tot_Q>  (169) 
0

>  <i_epik_Tot_abs_Q>  (169) 
2

>  <s_epik_Chemistry_Notes>  (169) 
This compound has an ester and may undergo hydrolysis at high or low pH. This compound contains an acetal/aminal-like group ( X-CH(R)-Y where X, Y are N, S, or O) that may be acid/base labile, releasing an aldehyde.

>  <s_lp_Force_Field>  (169) 
OPLS3e

>  <r_lp_Energy>  (169) 
35.676

>  <b_lp_Chiralities_Consistent>  (169) 
1

>  <s_lp_Variant>  (169) 
46:0-1

>  <s_i_glide_gridfile>  (169) 
pfpi4k_grid

>  <i_i_glide_lignum>  (169) 
24

>  <i_i_glide_rotatable_bonds>  (169) 
4

>  <r_i_docking_score>  (169) 
-3.04841

>  <r_i_glide_ligand_efficiency>  (169) 
-0.0952629

>  <r_i_glide_ligand_efficiency_sa>  (169) 
-0.302441

>  <r_i_glide_ligand_efficiency_ln>  (169) 
-0.682623

>  <r_i_glide_gscore>  (169) 
-3.04841

>  <r_i_glide_lipo>  (169) 
-0.4172

>  <r_i_glide_hbond>  (169) 
-0.219045

>  <r_i_glide_metal>  (169) 
-0

>  <r_i_glide_rewards>  (169) 
-0.469622

>  <r_i_glide_evdw>  (169) 
-23.6649

>  <r_i_glide_ecoul>  (169) 
-6.10696

>  <r_i_glide_erotb>  (169) 
0.304939

>  <r_i_glide_esite>  (169) 
-0.148195

>  <r_i_glide_emodel>  (169) 
-36.1074

>  <r_i_glide_energy>  (169) 
-29.7719

>  <r_i_glide_einternal>  (169) 
0.042811

>  <r_i_glide_intrahb_reward>  (169) 
-0

>  <i_i_glide_confnum>  (169) 
1

>  <i_i_glide_posenum>  (169) 
3

>  <r_i_glide_eff_state_penalty>  (169) 
0

>  <ligand_id>  (169) 
46

>  <original_smiles>  (169) 
CC1CCC2C(C)OC3OC4(C)CCC1C32C(=O)OC4CC(=O)c1ccc([N+](=O)[O-])cc1

>  <smiles>  (169) 
[H]c1c([H])c([N+](=O)[O-])c([H])c([H])c1C(=O)C([H])([H])C1([H])OC(=O)C23C4([H])OC([H])(C([H])([H])[H])C2([H])C([H])([H])C([H])([H])C([H])(C([H])([H])[H])C3([H])C([H])([H])C([H])([H])C1(C([H])([H])[H])O4

$$$$
46:0:1
     RDKit          3D

 61 65  0  0  1  0  0  0  0  0999 V2000
   -2.7820    3.4029    3.0488 C   0  0  0  0  0  0  0  0  0  0  0  0
   -2.2719    2.5183    4.2019 C   0  0  2  0  0  0  0  0  0  0  0  0
   -2.6953    3.1346    5.5444 C   0  0  0  0  0  0  0  0  0  0  0  0
   -2.3823    2.2165    6.7241 C   0  0  0  0  0  0  0  0  0  0  0  0
   -0.9245    1.7459    6.7341 C   0  0  2  0  0  0  0  0  0  0  0  0
    0.0682    2.8228    7.1776 C   0  0  1  0  0  0  0  0  0  0  0  0
    0.2380    2.9751    8.6949 C   0  0  0  0  0  0  0  0  0  0  0  0
    1.3037    2.4071    6.6390 O   0  0  0  0  0  0  0  0  0  0  0  0
    1.1308    1.3343    5.7736 C   0  0  2  0  0  0  0  0  0  0  0  0
    1.9670    1.4814    4.6906 O   0  0  0  0  0  0  0  0  0  0  0  0
    1.8736    0.5821    3.6057 C   0  0  2  0  0  0  0  0  0  0  0  0
    3.3606    0.5432    3.2189 C   0  0  0  0  0  0  0  0  0  0  0  0
    1.1087    1.3443    2.5029 C   0  0  0  0  0  0  0  0  0  0  0  0
   -0.3689    1.6539    2.7771 C   0  0  0  0  0  0  0  0  0  0  0  0
   -0.7403    2.2025    4.1872 C   0  0  2  0  0  0  0  0  0  0  0  0
   -0.3629    1.2393    5.3843 C   0  0  2  0  0  0  0  0  0  0  0  0
   -0.8060   -0.2353    5.1192 C   0  0  0  0  0  0  0  0  0  0  0  0
   -1.7941   -0.7098    5.6500 O   0  0  0  0  0  0  0  0  0  0  0  0
   -0.0844   -0.9443    4.2012 O   0  0  0  0  0  0  0  0  0  0  0  0
    1.3243   -0.8423    3.9710 C   0  0  1  0  0  0  0  0  0  0  0  0
    1.5928   -1.8687    2.8297 C   0  0  0  0  0  0  0  0  0  0  0  0
    2.7464   -2.8618    3.1339 C   0  0  0  0  0  0  0  0  0  0  0  0
    2.6690   -3.5683    4.1288 O   0  0  0  0  0  0  0  0  0  0  0  0
    3.9076   -2.9285    2.1763 C   0  0  0  0  0  0  0  0  0  0  0  0
    3.9654   -2.0968    1.0386 C   0  0  0  0  0  0  0  0  0  0  0  0
    5.0842   -2.1381    0.1814 C   0  0  0  0  0  0  0  0  0  0  0  0
    6.1525   -3.0474    0.4054 C   0  0  0  0  0  0  0  0  0  0  0  0
    7.2902   -3.0606   -0.5197 N   0  0  0  0  0  0  0  0  0  0  0  0
    7.2869   -2.2682   -1.4612 O   0  0  0  0  0  0  0  0  0  0  0  0
    8.2121   -3.8569   -0.3173 O   0  0  0  0  0  0  0  0  0  0  0  0
    6.0735   -3.9110    1.5246 C   0  0  0  0  0  0  0  0  0  0  0  0
    4.9668   -3.8455    2.4108 C   0  0  0  0  0  0  0  0  0  0  0  0
   -2.1947    4.3151    2.9489 H   0  0  0  0  0  0  0  0  0  0  0  0
   -3.8263    3.6753    3.1995 H   0  0  0  0  0  0  0  0  0  0  0  0
   -2.7612    2.8678    2.0993 H   0  0  0  0  0  0  0  0  0  0  0  0
   -2.7977    1.5790    4.0757 H   0  0  0  0  0  0  0  0  0  0  0  0
   -2.1927    4.0929    5.6714 H   0  0  0  0  0  0  0  0  0  0  0  0
   -3.7687    3.3267    5.5471 H   0  0  0  0  0  0  0  0  0  0  0  0
   -2.6314    2.7220    7.6605 H   0  0  0  0  0  0  0  0  0  0  0  0
   -3.0182    1.3380    6.6880 H   0  0  0  0  0  0  0  0  0  0  0  0
   -0.8625    0.9409    7.4690 H   0  0  0  0  0  0  0  0  0  0  0  0
   -0.1823    3.7812    6.7266 H   0  0  0  0  0  0  0  0  0  0  0  0
   -0.6752    3.3148    9.1829 H   0  0  0  0  0  0  0  0  0  0  0  0
    1.0168    3.7074    8.9037 H   0  0  0  0  0  0  0  0  0  0  0  0
    0.5482    2.0367    9.1551 H   0  0  0  0  0  0  0  0  0  0  0  0
    1.4441    0.4613    6.3450 H   0  0  0  0  0  0  0  0  0  0  0  0
    3.5180    0.1604    2.2161 H   0  0  0  0  0  0  0  0  0  0  0  0
    3.9489   -0.0454    3.9245 H   0  0  0  0  0  0  0  0  0  0  0  0
    3.7684    1.5562    3.2147 H   0  0  0  0  0  0  0  0  0  0  0  0
    1.6182    2.2951    2.3171 H   0  0  0  0  0  0  0  0  0  0  0  0
    1.1713    0.8132    1.5516 H   0  0  0  0  0  0  0  0  0  0  0  0
   -0.6117    2.4188    2.0485 H   0  0  0  0  0  0  0  0  0  0  0  0
   -0.9903    0.8028    2.5021 H   0  0  0  0  0  0  0  0  0  0  0  0
   -0.2028    3.1457    4.3275 H   0  0  0  0  0  0  0  0  0  0  0  0
    1.8210   -1.1772    4.8873 H   0  0  0  0  0  0  0  0  0  0  0  0
    0.7129   -2.5172    2.7140 H   0  0  0  0  0  0  0  0  0  0  0  0
    1.6763   -1.3492    1.9034 H   0  0  0  0  0  0  0  0  0  0  0  0
    3.2006   -1.4047    0.7623 H   0  0  0  0  0  0  0  0  0  0  0  0
    5.1076   -1.4602   -0.6566 H   0  0  0  0  0  0  0  0  0  0  0  0
    6.8704   -4.6201    1.7123 H   0  0  0  0  0  0  0  0  0  0  0  0
    4.9417   -4.5100    3.2637 H   0  0  0  0  0  0  0  0  0  0  0  0
  1  2  1  0
  1 33  1  0
  1 34  1  0
  1 35  1  0
  2 15  1  0
  2  3  1  0
  2 36  1  6
  3  4  1  0
  3 37  1  0
  3 38  1  0
  4  5  1  0
  4 39  1  0
  4 40  1  0
  5 16  1  0
  5  6  1  0
  5 41  1  1
  6  7  1  0
  6  8  1  0
  6 42  1  6
  7 43  1  0
  7 44  1  0
  7 45  1  0
  8  9  1  0
  9 16  1  0
  9 10  1  0
  9 46  1  1
 10 11  1  0
 11 20  1  0
 11 12  1  6
 11 13  1  0
 12 47  1  0
 12 48  1  0
 12 49  1  0
 13 14  1  0
 13 50  1  0
 13 51  1  0
 14 15  1  0
 14 52  1  0
 14 53  1  0
 15 16  1  0
 15 54  1  1
 16 17  1  6
 17 18  2  0
 17 19  1  0
 19 20  1  0
 20 21  1  0
 20 55  1  1
 21 22  1  0
 21 56  1  0
 21 57  1  0
 22 23  2  0
 22 24  1  0
 24 32  1  0
 24 25  2  0
 25 26  1  0
 25 58  1  0
 26 27  2  0
 26 59  1  0
 27 28  1  0
 27 31  1  0
 28 29  2  0
 28 30  1  0
 31 32  2  0
 31 60  1  0
 32 61  1  0
M  CHG  2  28   1  30  -1
M  END
>  <i_m_ct_stereo_status>  (170) 
1

>  <s_m_source_file>  (170) 
/var/tmp/pbs.5076255.sched01/tmpck0ladl8/45htcshi4i.sdf

>  <i_m_source_file_index>  (170) 
24

>  <i_lp_mmshare_version>  (170) 
48012

>  <i_f3d_flags>  (170) 
0

>  <s_epik_input>  (170) 
W0NAQF0xMjNbQ0BASF00W0NIMl1bQ0gyXVtDQEBIXShbQ0gzXSlbQ0BASF0yW0NIMl1bQ0gyXVtDQEBdKFtDSDNdKShPW0NASF0xT1tDQEBIXTRbQ0gzXSlbQ0BASF0oT0MzPU8pW0NIMl1DKD1PKWM1W2NIXVtjSF1jKFtOK10oPU8pW08tXSlbY0hdW2NIXTU=

>  <s_epik_cmdline>  (170) 
J2VwaWtfcHl0aG9uJywgJy1waHQnLCAnMi4wJywgJy1waCcsICc3LjAnLCAnLXRuJywgJzgnLCAnLW1hJywgJzIwMCcsICctaW1hZScsICc8aW5maWxlLm1hZT4nLCAnLW9tYWUnLCAnPG91dGZpbGUubWFlPic=

>  <r_lp_tautomer_probability>  (170) 
1

>  <r_epik_Ionization_Penalty>  (170) 
7.41989e-14

>  <r_epik_Ionization_Penalty_Charging>  (170) 
0

>  <r_epik_Ionization_Penalty_Neutral>  (170) 
7.41989e-14

>  <r_epik_State_Penalty>  (170) 
-0

>  <r_epik_Charging_Adjusted_Penalty>  (170) 
0

>  <i_epik_Tot_Q>  (170) 
0

>  <i_epik_Tot_abs_Q>  (170) 
2

>  <s_epik_Chemistry_Notes>  (170) 
This compound has an ester and may undergo hydrolysis at high or low pH. This compound contains an acetal/aminal-like group ( X-CH(R)-Y where X, Y are N, S, or O) that may be acid/base labile, releasing an aldehyde.

>  <s_lp_Force_Field>  (170) 
OPLS3e

>  <r_lp_Energy>  (170) 
35.676

>  <b_lp_Chiralities_Consistent>  (170) 
1

>  <s_lp_Variant>  (170) 
46:0-1

>  <s_i_glide_gridfile>  (170) 
pfpi4k_grid

>  <i_i_glide_lignum>  (170) 
24

>  <i_i_glide_rotatable_bonds>  (170) 
4

>  <r_i_docking_score>  (170) 
-2.71328

>  <r_i_glide_ligand_efficiency>  (170) 
-0.0847899

>  <r_i_glide_ligand_efficiency_sa>  (170) 
-0.269191

>  <r_i_glide_ligand_efficiency_ln>  (170) 
-0.607577

>  <r_i_glide_gscore>  (170) 
-2.71328

>  <r_i_glide_lipo>  (170) 
-0.231497

>  <r_i_glide_hbond>  (170) 
-0.0355736

>  <r_i_glide_metal>  (170) 
-0

>  <r_i_glide_rewards>  (170) 
-0.502346

>  <r_i_glide_evdw>  (170) 
-28.1262

>  <r_i_glide_ecoul>  (170) 
-4.81664

>  <r_i_glide_erotb>  (170) 
0.304939

>  <r_i_glide_esite>  (170) 
-0.119994

>  <r_i_glide_emodel>  (170) 
-36.4239

>  <r_i_glide_energy>  (170) 
-32.9428

>  <r_i_glide_einternal>  (170) 
3.79245

>  <r_i_glide_intrahb_reward>  (170) 
-0

>  <i_i_glide_confnum>  (170) 
4

>  <i_i_glide_posenum>  (170) 
4

>  <r_i_glide_eff_state_penalty>  (170) 
0

>  <ligand_id>  (170) 
46

>  <original_smiles>  (170) 
CC1CCC2C(C)OC3OC4(C)CCC1C32C(=O)OC4CC(=O)c1ccc([N+](=O)[O-])cc1

>  <smiles>  (170) 
[H]c1c([H])c([N+](=O)[O-])c([H])c([H])c1C(=O)C([H])([H])C1([H])OC(=O)C23C4([H])OC([H])(C([H])([H])[H])C2([H])C([H])([H])C([H])([H])C([H])(C([H])([H])[H])C3([H])C([H])([H])C([H])([H])C1(C([H])([H])[H])O4

$$$$
46:0:2
     RDKit          3D

 61 65  0  0  1  0  0  0  0  0999 V2000
    0.8115   -9.0864    5.8370 C   0  0  0  0  0  0  0  0  0  0  0  0
    1.2051   -8.5226    4.4561 C   0  0  2  0  0  0  0  0  0  0  0  0
    1.6297   -9.6839    3.5469 C   0  0  0  0  0  0  0  0  0  0  0  0
    1.8427   -9.2087    2.1099 C   0  0  0  0  0  0  0  0  0  0  0  0
    2.8195   -8.0205    2.0214 C   0  0  2  0  0  0  0  0  0  0  0  0
    4.2906   -8.4064    2.2411 C   0  0  1  0  0  0  0  0  0  0  0  0
    5.0297   -8.9247    0.9980 C   0  0  0  0  0  0  0  0  0  0  0  0
    4.9152   -7.2075    2.6497 O   0  0  0  0  0  0  0  0  0  0  0  0
    3.9785   -6.2073    2.8781 C   0  0  2  0  0  0  0  0  0  0  0  0
    4.3570   -5.4733    3.9846 O   0  0  0  0  0  0  0  0  0  0  0  0
    3.4900   -4.4922    4.5221 C   0  0  2  0  0  0  0  0  0  0  0  0
    4.5408   -3.4605    4.9927 C   0  0  0  0  0  0  0  0  0  0  0  0
    2.8388   -5.1346    5.7573 C   0  0  0  0  0  0  0  0  0  0  0  0
    1.8731   -6.3052    5.5083 C   0  0  0  0  0  0  0  0  0  0  0  0
    2.3025   -7.4003    4.4831 C   0  0  2  0  0  0  0  0  0  0  0  0
    2.5791   -6.8603    3.0207 C   0  0  2  0  0  0  0  0  0  0  0  0
    1.4571   -5.9002    2.5295 C   0  0  0  0  0  0  0  0  0  0  0  0
    0.5909   -6.2661    1.7359 O   0  0  0  0  0  0  0  0  0  0  0  0
    1.3984   -4.6594    3.0824 O   0  0  0  0  0  0  0  0  0  0  0  0
    2.5125   -3.8575    3.4842 C   0  0  1  0  0  0  0  0  0  0  0  0
    1.8548   -2.5388    3.9852 C   0  0  0  0  0  0  0  0  0  0  0  0
    1.6003   -1.4835    2.9001 C   0  0  0  0  0  0  0  0  0  0  0  0
    2.2217   -1.5481    1.8410 O   0  0  0  0  0  0  0  0  0  0  0  0
    0.6280   -0.3852    3.2103 C   0  0  0  0  0  0  0  0  0  0  0  0
    0.3316    0.5791    2.2221 C   0  0  0  0  0  0  0  0  0  0  0  0
   -0.5875    1.6166    2.4775 C   0  0  0  0  0  0  0  0  0  0  0  0
   -1.2343    1.7176    3.7303 C   0  0  0  0  0  0  0  0  0  0  0  0
   -2.2004    2.8044    4.0024 N   0  0  0  0  0  0  0  0  0  0  0  0
   -2.5706    3.5146    3.0745 O   0  0  0  0  0  0  0  0  0  0  0  0
   -2.5842    2.9537    5.1590 O   0  0  0  0  0  0  0  0  0  0  0  0
   -0.9314    0.7586    4.7225 C   0  0  0  0  0  0  0  0  0  0  0  0
   -0.0087   -0.2765    4.4698 C   0  0  0  0  0  0  0  0  0  0  0  0
    1.6865   -9.4054    6.4049 H   0  0  0  0  0  0  0  0  0  0  0  0
    0.1557   -9.9522    5.7334 H   0  0  0  0  0  0  0  0  0  0  0  0
    0.2563   -8.3614    6.4320 H   0  0  0  0  0  0  0  0  0  0  0  0
    0.2930   -8.1029    4.0317 H   0  0  0  0  0  0  0  0  0  0  0  0
    2.5395  -10.1406    3.9373 H   0  0  0  0  0  0  0  0  0  0  0  0
    0.8713  -10.4687    3.5525 H   0  0  0  0  0  0  0  0  0  0  0  0
    2.2086  -10.0369    1.5002 H   0  0  0  0  0  0  0  0  0  0  0  0
    0.8789   -8.9280    1.6831 H   0  0  0  0  0  0  0  0  0  0  0  0
    2.7519   -7.6315    1.0039 H   0  0  0  0  0  0  0  0  0  0  0  0
    4.3855   -9.1215    3.0582 H   0  0  0  0  0  0  0  0  0  0  0  0
    4.6040   -9.8544    0.6364 H   0  0  0  0  0  0  0  0  0  0  0  0
    6.0789   -9.1054    1.2376 H   0  0  0  0  0  0  0  0  0  0  0  0
    5.0020   -8.1921    0.1900 H   0  0  0  0  0  0  0  0  0  0  0  0
    4.0229   -5.5741    1.9907 H   0  0  0  0  0  0  0  0  0  0  0  0
    4.1393   -2.7168    5.6824 H   0  0  0  0  0  0  0  0  0  0  0  0
    4.9828   -2.9388    4.1412 H   0  0  0  0  0  0  0  0  0  0  0  0
    5.3549   -3.9563    5.5258 H   0  0  0  0  0  0  0  0  0  0  0  0
    3.6371   -5.4889    6.4141 H   0  0  0  0  0  0  0  0  0  0  0  0
    2.3117   -4.3703    6.3316 H   0  0  0  0  0  0  0  0  0  0  0  0
    1.7756   -6.7712    6.4850 H   0  0  0  0  0  0  0  0  0  0  0  0
    0.8789   -5.9287    5.2809 H   0  0  0  0  0  0  0  0  0  0  0  0
    3.2260   -7.8504    4.8551 H   0  0  0  0  0  0  0  0  0  0  0  0
    3.0937   -3.6473    2.5878 H   0  0  0  0  0  0  0  0  0  0  0  0
    0.9288   -2.7878    4.5008 H   0  0  0  0  0  0  0  0  0  0  0  0
    2.4700   -2.0220    4.7149 H   0  0  0  0  0  0  0  0  0  0  0  0
    0.7986    0.5340    1.2472 H   0  0  0  0  0  0  0  0  0  0  0  0
   -0.7893    2.3356    1.7004 H   0  0  0  0  0  0  0  0  0  0  0  0
   -1.4046    0.8147    5.6909 H   0  0  0  0  0  0  0  0  0  0  0  0
    0.1940   -0.9706    5.2686 H   0  0  0  0  0  0  0  0  0  0  0  0
  1  2  1  0
  1 33  1  0
  1 34  1  0
  1 35  1  0
  2 15  1  0
  2  3  1  0
  2 36  1  6
  3  4  1  0
  3 37  1  0
  3 38  1  0
  4  5  1  0
  4 39  1  0
  4 40  1  0
  5 16  1  0
  5  6  1  0
  5 41  1  6
  6  7  1  0
  6  8  1  0
  6 42  1  1
  7 43  1  0
  7 44  1  0
  7 45  1  0
  8  9  1  0
  9 16  1  0
  9 10  1  0
  9 46  1  6
 10 11  1  0
 11 20  1  0
 11 12  1  1
 11 13  1  0
 12 47  1  0
 12 48  1  0
 12 49  1  0
 13 14  1  0
 13 50  1  0
 13 51  1  0
 14 15  1  0
 14 52  1  0
 14 53  1  0
 15 16  1  0
 15 54  1  1
 16 17  1  6
 17 18  2  0
 17 19  1  0
 19 20  1  0
 20 21  1  0
 20 55  1  6
 21 22  1  0
 21 56  1  0
 21 57  1  0
 22 23  2  0
 22 24  1  0
 24 32  1  0
 24 25  2  0
 25 26  1  0
 25 58  1  0
 26 27  2  0
 26 59  1  0
 27 28  1  0
 27 31  1  0
 28 29  2  0
 28 30  1  0
 31 32  2  0
 31 60  1  0
 32 61  1  0
M  CHG  2  28   1  30  -1
M  END
>  <i_m_ct_stereo_status>  (171) 
1

>  <s_m_source_file>  (171) 
/var/tmp/pbs.5076255.sched01/tmpck0ladl8/45htcshi4i.sdf

>  <i_m_source_file_index>  (171) 
24

>  <i_lp_mmshare_version>  (171) 
48012

>  <i_f3d_flags>  (171) 
0

>  <s_epik_input>  (171) 
W0NAQF0xMjNbQ0BASF00W0NIMl1bQ0gyXVtDQEBIXShbQ0gzXSlbQ0BASF0yW0NIMl1bQ0gyXVtDQEBdKFtDSDNdKShPW0NASF0xT1tDQEBIXTRbQ0gzXSlbQ0BASF0oT0MzPU8pW0NIMl1DKD1PKWM1W2NIXVtjSF1jKFtOK10oPU8pW08tXSlbY0hdW2NIXTU=

>  <s_epik_cmdline>  (171) 
J2VwaWtfcHl0aG9uJywgJy1waHQnLCAnMi4wJywgJy1waCcsICc3LjAnLCAnLXRuJywgJzgnLCAnLW1hJywgJzIwMCcsICctaW1hZScsICc8aW5maWxlLm1hZT4nLCAnLW9tYWUnLCAnPG91dGZpbGUubWFlPic=

>  <r_lp_tautomer_probability>  (171) 
1

>  <r_epik_Ionization_Penalty>  (171) 
7.41989e-14

>  <r_epik_Ionization_Penalty_Charging>  (171) 
0

>  <r_epik_Ionization_Penalty_Neutral>  (171) 
7.41989e-14

>  <r_epik_State_Penalty>  (171) 
-0

>  <r_epik_Charging_Adjusted_Penalty>  (171) 
0

>  <i_epik_Tot_Q>  (171) 
0

>  <i_epik_Tot_abs_Q>  (171) 
2

>  <s_epik_Chemistry_Notes>  (171) 
This compound has an ester and may undergo hydrolysis at high or low pH. This compound contains an acetal/aminal-like group ( X-CH(R)-Y where X, Y are N, S, or O) that may be acid/base labile, releasing an aldehyde.

>  <s_lp_Force_Field>  (171) 
OPLS3e

>  <r_lp_Energy>  (171) 
35.676

>  <b_lp_Chiralities_Consistent>  (171) 
1

>  <s_lp_Variant>  (171) 
46:0-1

>  <s_i_glide_gridfile>  (171) 
pfpi4k_grid

>  <i_i_glide_lignum>  (171) 
24

>  <i_i_glide_rotatable_bonds>  (171) 
4

>  <r_i_docking_score>  (171) 
-2.37841

>  <r_i_glide_ligand_efficiency>  (171) 
-0.0743252

>  <r_i_glide_ligand_efficiency_sa>  (171) 
-0.235968

>  <r_i_glide_ligand_efficiency_ln>  (171) 
-0.53259

>  <r_i_glide_gscore>  (171) 
-2.37841

>  <r_i_glide_lipo>  (171) 
-0.0767186

>  <r_i_glide_hbond>  (171) 
-0.164317

>  <r_i_glide_metal>  (171) 
-0

>  <r_i_glide_rewards>  (171) 
-0.385298

>  <r_i_glide_evdw>  (171) 
-27.7443

>  <r_i_glide_ecoul>  (171) 
-3.39621

>  <r_i_glide_erotb>  (171) 
0.304939

>  <r_i_glide_esite>  (171) 
-0.160365

>  <r_i_glide_emodel>  (171) 
-35.2985

>  <r_i_glide_energy>  (171) 
-31.1405

>  <r_i_glide_einternal>  (171) 
1.1348

>  <r_i_glide_intrahb_reward>  (171) 
-0

>  <i_i_glide_confnum>  (171) 
1

>  <i_i_glide_posenum>  (171) 
26

>  <r_i_glide_eff_state_penalty>  (171) 
0

>  <ligand_id>  (171) 
46

>  <original_smiles>  (171) 
CC1CCC2C(C)OC3OC4(C)CCC1C32C(=O)OC4CC(=O)c1ccc([N+](=O)[O-])cc1

>  <smiles>  (171) 
[H]c1c([H])c([N+](=O)[O-])c([H])c([H])c1C(=O)C([H])([H])C1([H])OC(=O)C23C4([H])OC([H])(C([H])([H])[H])C2([H])C([H])([H])C([H])([H])C([H])(C([H])([H])[H])C3([H])C([H])([H])C([H])([H])C1(C([H])([H])[H])O4

$$$$
47:0:0
     RDKit          3D

 17 18  0  0  1  0  0  0  0  0999 V2000
    1.5287   -9.4568    6.8460 C   0  0  0  0  0  0  0  0  0  0  0  0
    1.1579   -9.8543    5.4754 N   0  0  0  0  0  0  0  0  0  0  0  0
    1.7578  -10.9220    4.8895 C   0  0  0  0  0  0  0  0  0  0  0  0
    1.4047  -11.2942    3.5627 C   0  0  0  0  0  0  0  0  0  0  0  0
    0.4417  -10.5827    2.8741 C   0  0  0  0  0  0  0  0  0  0  0  0
   -0.1376   -9.5205    3.4907 N   0  0  0  0  0  0  0  0  0  0  0  0
   -1.0871   -8.6639    3.0323 N   0  0  0  0  0  0  0  0  0  0  0  0
   -1.2557   -7.8647    4.0826 C   0  0  0  0  0  0  0  0  0  0  0  0
   -0.4600   -8.0906    5.1725 N   0  0  0  0  0  0  0  0  0  0  0  0
    0.2182   -9.1655    4.7842 C   0  0  0  0  0  0  0  0  0  0  0  0
    2.2936  -10.1320    7.2307 H   0  0  0  0  0  0  0  0  0  0  0  0
    0.6439   -9.5237    7.4801 H   0  0  0  0  0  0  0  0  0  0  0  0
    1.9162   -8.4372    6.8273 H   0  0  0  0  0  0  0  0  0  0  0  0
    2.4995  -11.4574    5.4812 H   0  0  0  0  0  0  0  0  0  0  0  0
    1.8860  -12.1482    3.0938 H   0  0  0  0  0  0  0  0  0  0  0  0
    0.1014  -10.8190    1.8738 H   0  0  0  0  0  0  0  0  0  0  0  0
   -1.9750   -7.0579    4.0560 H   0  0  0  0  0  0  0  0  0  0  0  0
  1  2  1  0
  1 11  1  0
  1 12  1  0
  1 13  1  0
  2 10  1  0
  2  3  2  0
  3  4  1  0
  3 14  1  0
  4  5  2  0
  4 15  1  0
  5  6  1  0
  5 16  1  0
  6 10  1  0
  6  7  1  0
  7  8  2  0
  8  9  1  0
  8 17  1  0
  9 10  2  0
M  CHG  1   2   1
M  END
>  <i_m_ct_stereo_status>  (172) 
1

>  <s_m_source_file>  (172) 
/var/tmp/pbs.5076255.sched01/tmpck0ladl8/45htcshi4i.sdf

>  <i_m_source_file_index>  (172) 
25

>  <i_lp_mmshare_version>  (172) 
48012

>  <i_f3d_flags>  (172) 
0

>  <s_epik_input>  (172) 
W2NIXTFbY0hdW2NIXVtuK10oW0NIM10pYyhuMTIpbltjSF1uMg==

>  <s_epik_cmdline>  (172) 
J2VwaWtfcHl0aG9uJywgJy1waHQnLCAnMi4wJywgJy1waCcsICc3LjAnLCAnLXRuJywgJzgnLCAnLW1hJywgJzIwMCcsICctaW1hZScsICc8aW5maWxlLm1hZT4nLCAnLW9tYWUnLCAnPG91dGZpbGUubWFlPic=

>  <r_lp_tautomer_probability>  (172) 
1

>  <r_epik_Ionization_Penalty>  (172) 
6.57791e-16

>  <r_epik_Ionization_Penalty_Charging>  (172) 
0

>  <r_epik_Ionization_Penalty_Neutral>  (172) 
6.57791e-16

>  <r_epik_State_Penalty>  (172) 
-0

>  <r_epik_Charging_Adjusted_Penalty>  (172) 
0

>  <i_epik_Tot_Q>  (172) 
1

>  <i_epik_Tot_abs_Q>  (172) 
1

>  <s_lp_Force_Field>  (172) 
OPLS3e

>  <r_lp_Energy>  (172) 
21.899

>  <b_lp_Chiralities_Consistent>  (172) 
1

>  <s_lp_Variant>  (172) 
47:0-1

>  <s_i_glide_gridfile>  (172) 
pfpi4k_grid

>  <i_i_glide_lignum>  (172) 
25

>  <i_i_glide_rotatable_bonds>  (172) 
0

>  <r_i_docking_score>  (172) 
-4.19744

>  <r_i_glide_ligand_efficiency>  (172) 
-0.419744

>  <r_i_glide_ligand_efficiency_sa>  (172) 
-0.904312

>  <r_i_glide_ligand_efficiency_ln>  (172) 
-1.27096

>  <r_i_glide_gscore>  (172) 
-4.19744

>  <r_i_glide_lipo>  (172) 
-0.287484

>  <r_i_glide_hbond>  (172) 
0

>  <r_i_glide_metal>  (172) 
-0

>  <r_i_glide_rewards>  (172) 
-2.25

>  <r_i_glide_evdw>  (172) 
-12.9154

>  <r_i_glide_ecoul>  (172) 
-5.17656

>  <r_i_glide_erotb>  (172) 
0

>  <r_i_glide_esite>  (172) 
-0.237708

>  <r_i_glide_emodel>  (172) 
-25.6031

>  <r_i_glide_energy>  (172) 
-18.0919

>  <r_i_glide_einternal>  (172) 
0

>  <r_i_glide_intrahb_reward>  (172) 
-0

>  <i_i_glide_confnum>  (172) 
1

>  <i_i_glide_posenum>  (172) 
1

>  <r_i_glide_eff_state_penalty>  (172) 
0

>  <ligand_id>  (172) 
47

>  <original_smiles>  (172) 
C[n+]1cccn2ncnc21

>  <smiles>  (172) 
[H]c1nc2n(n1)c([H])c([H])c([H])[n+]2C([H])([H])[H]

$$$$
47:0:1
     RDKit          3D

 17 18  0  0  1  0  0  0  0  0999 V2000
    5.3061   -0.7028   -1.2089 C   0  0  0  0  0  0  0  0  0  0  0  0
    4.2306   -1.6423   -1.5449 N   0  0  0  0  0  0  0  0  0  0  0  0
    3.6414   -1.5997   -2.7642 C   0  0  0  0  0  0  0  0  0  0  0  0
    2.6180   -2.5328   -3.0833 C   0  0  0  0  0  0  0  0  0  0  0  0
    2.2000   -3.4538   -2.1409 C   0  0  0  0  0  0  0  0  0  0  0  0
    2.8176   -3.4603   -0.9270 N   0  0  0  0  0  0  0  0  0  0  0  0
    2.6138   -4.2659    0.1412 N   0  0  0  0  0  0  0  0  0  0  0  0
    3.5139   -3.8043    1.0080 C   0  0  0  0  0  0  0  0  0  0  0  0
    4.2900   -2.7595    0.5885 N   0  0  0  0  0  0  0  0  0  0  0  0
    3.8235   -2.5570   -0.6344 C   0  0  0  0  0  0  0  0  0  0  0  0
    5.4710   -0.0566   -2.0685 H   0  0  0  0  0  0  0  0  0  0  0  0
    6.2126   -1.2643   -0.9811 H   0  0  0  0  0  0  0  0  0  0  0  0
    5.0000   -0.1181   -0.3380 H   0  0  0  0  0  0  0  0  0  0  0  0
    3.9852   -0.8292   -3.4509 H   0  0  0  0  0  0  0  0  0  0  0  0
    2.1193   -2.5039   -4.0459 H   0  0  0  0  0  0  0  0  0  0  0  0
    1.4170   -4.1794   -2.2994 H   0  0  0  0  0  0  0  0  0  0  0  0
    3.6127   -4.2422    1.9899 H   0  0  0  0  0  0  0  0  0  0  0  0
  1  2  1  0
  1 11  1  0
  1 12  1  0
  1 13  1  0
  2 10  1  0
  2  3  2  0
  3  4  1  0
  3 14  1  0
  4  5  2  0
  4 15  1  0
  5  6  1  0
  5 16  1  0
  6 10  1  0
  6  7  1  0
  7  8  2  0
  8  9  1  0
  8 17  1  0
  9 10  2  0
M  CHG  1   2   1
M  END
>  <i_m_ct_stereo_status>  (173) 
1

>  <s_m_source_file>  (173) 
/var/tmp/pbs.5076255.sched01/tmpck0ladl8/45htcshi4i.sdf

>  <i_m_source_file_index>  (173) 
25

>  <i_lp_mmshare_version>  (173) 
48012

>  <i_f3d_flags>  (173) 
0

>  <s_epik_input>  (173) 
W2NIXTFbY0hdW2NIXVtuK10oW0NIM10pYyhuMTIpbltjSF1uMg==

>  <s_epik_cmdline>  (173) 
J2VwaWtfcHl0aG9uJywgJy1waHQnLCAnMi4wJywgJy1waCcsICc3LjAnLCAnLXRuJywgJzgnLCAnLW1hJywgJzIwMCcsICctaW1hZScsICc8aW5maWxlLm1hZT4nLCAnLW9tYWUnLCAnPG91dGZpbGUubWFlPic=

>  <r_lp_tautomer_probability>  (173) 
1

>  <r_epik_Ionization_Penalty>  (173) 
6.57791e-16

>  <r_epik_Ionization_Penalty_Charging>  (173) 
0

>  <r_epik_Ionization_Penalty_Neutral>  (173) 
6.57791e-16

>  <r_epik_State_Penalty>  (173) 
-0

>  <r_epik_Charging_Adjusted_Penalty>  (173) 
0

>  <i_epik_Tot_Q>  (173) 
1

>  <i_epik_Tot_abs_Q>  (173) 
1

>  <s_lp_Force_Field>  (173) 
OPLS3e

>  <r_lp_Energy>  (173) 
21.899

>  <b_lp_Chiralities_Consistent>  (173) 
1

>  <s_lp_Variant>  (173) 
47:0-1

>  <s_i_glide_gridfile>  (173) 
pfpi4k_grid

>  <i_i_glide_lignum>  (173) 
25

>  <i_i_glide_rotatable_bonds>  (173) 
0

>  <r_i_docking_score>  (173) 
-4.07264

>  <r_i_glide_ligand_efficiency>  (173) 
-0.407264

>  <r_i_glide_ligand_efficiency_sa>  (173) 
-0.877424

>  <r_i_glide_ligand_efficiency_ln>  (173) 
-1.23317

>  <r_i_glide_gscore>  (173) 
-4.07264

>  <r_i_glide_lipo>  (173) 
-0.24802

>  <r_i_glide_hbond>  (173) 
0

>  <r_i_glide_metal>  (173) 
-0

>  <r_i_glide_rewards>  (173) 
-2.26997

>  <r_i_glide_evdw>  (173) 
-12.0215

>  <r_i_glide_ecoul>  (173) 
-5.89417

>  <r_i_glide_erotb>  (173) 
0

>  <r_i_glide_esite>  (173) 
-0.0694519

>  <r_i_glide_emodel>  (173) 
-25.2036

>  <r_i_glide_energy>  (173) 
-17.9157

>  <r_i_glide_einternal>  (173) 
0

>  <r_i_glide_intrahb_reward>  (173) 
-0

>  <i_i_glide_confnum>  (173) 
1

>  <i_i_glide_posenum>  (173) 
16

>  <r_i_glide_eff_state_penalty>  (173) 
0

>  <ligand_id>  (173) 
47

>  <original_smiles>  (173) 
C[n+]1cccn2ncnc21

>  <smiles>  (173) 
[H]c1nc2n(n1)c([H])c([H])c([H])[n+]2C([H])([H])[H]

$$$$
47:0:2
     RDKit          3D

 17 18  0  0  1  0  0  0  0  0999 V2000
    4.1739   -9.8478    2.1415 C   0  0  0  0  0  0  0  0  0  0  0  0
    2.7598   -9.4625    2.3017 N   0  0  0  0  0  0  0  0  0  0  0  0
    1.8815  -10.3225    2.8781 C   0  0  0  0  0  0  0  0  0  0  0  0
    0.5144   -9.9496    3.0256 C   0  0  0  0  0  0  0  0  0  0  0  0
    0.0702   -8.7149    2.5852 C   0  0  0  0  0  0  0  0  0  0  0  0
    0.9828   -7.8759    2.0160 N   0  0  0  0  0  0  0  0  0  0  0  0
    0.8195   -6.6211    1.5098 N   0  0  0  0  0  0  0  0  0  0  0  0
    2.0620   -6.3193    1.1221 C   0  0  0  0  0  0  0  0  0  0  0  0
    3.0217   -7.2738    1.3205 N   0  0  0  0  0  0  0  0  0  0  0  0
    2.3164   -8.2511    1.8816 C   0  0  0  0  0  0  0  0  0  0  0  0
    4.3302  -10.8536    2.5304 H   0  0  0  0  0  0  0  0  0  0  0  0
    4.7962   -9.1429    2.6930 H   0  0  0  0  0  0  0  0  0  0  0  0
    4.4270   -9.8339    1.0808 H   0  0  0  0  0  0  0  0  0  0  0  0
    2.2709  -11.2902    3.1906 H   0  0  0  0  0  0  0  0  0  0  0  0
   -0.1877  -10.6413    3.4842 H   0  0  0  0  0  0  0  0  0  0  0  0
   -0.9569   -8.3755    2.6636 H   0  0  0  0  0  0  0  0  0  0  0  0
    2.2904   -5.3689    0.6542 H   0  0  0  0  0  0  0  0  0  0  0  0
  1  2  1  0
  1 11  1  0
  1 12  1  0
  1 13  1  0
  2 10  1  0
  2  3  2  0
  3  4  1  0
  3 14  1  0
  4  5  2  0
  4 15  1  0
  5  6  1  0
  5 16  1  0
  6 10  1  0
  6  7  1  0
  7  8  2  0
  8  9  1  0
  8 17  1  0
  9 10  2  0
M  CHG  1   2   1
M  END
>  <i_m_ct_stereo_status>  (174) 
1

>  <s_m_source_file>  (174) 
/var/tmp/pbs.5076255.sched01/tmpck0ladl8/45htcshi4i.sdf

>  <i_m_source_file_index>  (174) 
25

>  <i_lp_mmshare_version>  (174) 
48012

>  <i_f3d_flags>  (174) 
0

>  <s_epik_input>  (174) 
W2NIXTFbY0hdW2NIXVtuK10oW0NIM10pYyhuMTIpbltjSF1uMg==

>  <s_epik_cmdline>  (174) 
J2VwaWtfcHl0aG9uJywgJy1waHQnLCAnMi4wJywgJy1waCcsICc3LjAnLCAnLXRuJywgJzgnLCAnLW1hJywgJzIwMCcsICctaW1hZScsICc8aW5maWxlLm1hZT4nLCAnLW9tYWUnLCAnPG91dGZpbGUubWFlPic=

>  <r_lp_tautomer_probability>  (174) 
1

>  <r_epik_Ionization_Penalty>  (174) 
6.57791e-16

>  <r_epik_Ionization_Penalty_Charging>  (174) 
0

>  <r_epik_Ionization_Penalty_Neutral>  (174) 
6.57791e-16

>  <r_epik_State_Penalty>  (174) 
-0

>  <r_epik_Charging_Adjusted_Penalty>  (174) 
0

>  <i_epik_Tot_Q>  (174) 
1

>  <i_epik_Tot_abs_Q>  (174) 
1

>  <s_lp_Force_Field>  (174) 
OPLS3e

>  <r_lp_Energy>  (174) 
21.899

>  <b_lp_Chiralities_Consistent>  (174) 
1

>  <s_lp_Variant>  (174) 
47:0-1

>  <s_i_glide_gridfile>  (174) 
pfpi4k_grid

>  <i_i_glide_lignum>  (174) 
25

>  <i_i_glide_rotatable_bonds>  (174) 
0

>  <r_i_docking_score>  (174) 
-3.91343

>  <r_i_glide_ligand_efficiency>  (174) 
-0.391343

>  <r_i_glide_ligand_efficiency_sa>  (174) 
-0.843123

>  <r_i_glide_ligand_efficiency_ln>  (174) 
-1.18496

>  <r_i_glide_gscore>  (174) 
-3.91343

>  <r_i_glide_lipo>  (174) 
-0.102877

>  <r_i_glide_hbond>  (174) 
-0.0523786

>  <r_i_glide_metal>  (174) 
-0

>  <r_i_glide_rewards>  (174) 
-2.25

>  <r_i_glide_evdw>  (174) 
-13.7397

>  <r_i_glide_ecoul>  (174) 
-4.78634

>  <r_i_glide_erotb>  (174) 
0

>  <r_i_glide_esite>  (174) 
-0.10324

>  <r_i_glide_emodel>  (174) 
-25.5302

>  <r_i_glide_energy>  (174) 
-18.526

>  <r_i_glide_einternal>  (174) 
0

>  <r_i_glide_intrahb_reward>  (174) 
-0

>  <i_i_glide_confnum>  (174) 
2

>  <i_i_glide_posenum>  (174) 
13

>  <r_i_glide_eff_state_penalty>  (174) 
0

>  <ligand_id>  (174) 
47

>  <original_smiles>  (174) 
C[n+]1cccn2ncnc21

>  <smiles>  (174) 
[H]c1nc2n(n1)c([H])c([H])c([H])[n+]2C([H])([H])[H]

$$$$
48:0:0
     RDKit          3D

 59 64  0  0  1  0  0  0  0  0999 V2000
    3.3881   -2.6424   -2.3903 C   0  0  0  0  0  0  0  0  0  0  0  0
    4.0419   -3.0791   -1.2972 C   0  0  0  0  0  0  0  0  0  0  0  0
    4.9081   -4.2091   -1.1707 C   0  0  1  0  0  0  0  0  0  0  0  0
    6.2489   -3.2936   -1.2931 C   0  0  0  0  0  0  0  0  0  0  0  0
    6.3974   -1.9152   -0.7062 O   0  0  0  0  0  0  0  0  0  0  0  0
    5.3548   -0.8996   -0.3139 C   0  0  0  0  0  0  0  0  0  0  0  0
    4.1130   -1.3095    0.6623 C   0  0  1  0  0  0  0  0  0  0  0  0
    2.9810   -0.3289    0.5424 C   0  0  0  0  0  0  0  0  0  0  0  0
    4.0411   -2.5570    0.1018 C   0  0  2  0  0  0  0  0  0  0  0  0
    5.1522   -2.9618    1.3927 C   0  0  2  0  0  0  0  0  0  0  0  0
    6.2620   -2.0648    2.0246 C   0  0  0  0  0  0  0  0  0  0  0  0
    5.8300   -4.3733    1.7792 C   0  0  0  0  0  0  0  0  0  0  0  0
    5.8390   -5.4227    0.7224 C   0  0  1  0  0  0  0  0  0  0  0  0
    4.9174   -6.4389    0.3546 O   0  0  0  0  0  0  0  0  0  0  0  0
    4.4992   -5.1102    0.1397 C   0  0  2  0  0  0  0  0  0  0  0  0
    3.1926   -4.8441    1.1440 C   0  0  1  0  0  0  0  0  0  0  0  0
    3.1015   -5.6566    2.4867 C   0  0  0  0  0  0  0  0  0  0  0  0
    2.7285   -4.9114    3.8634 C   0  0  0  0  0  0  0  0  0  0  0  0
    1.2168   -4.5626    3.8821 C   0  0  0  0  0  0  0  0  0  0  0  0
    2.9020   -5.9803    4.9684 C   0  0  0  0  0  0  0  0  0  0  0  0
    3.5405   -3.5927    4.3144 C   0  0  1  0  0  0  0  0  0  0  0  0
    4.8432   -3.9290    4.7689 O   0  0  0  0  0  0  0  0  0  0  0  0
    3.5716   -2.2632    3.4330 C   0  0  1  0  0  0  0  0  0  0  0  0
    4.3820   -1.3060    4.1220 O   0  0  0  0  0  0  0  0  0  0  0  0
    4.1340    0.0583    3.8155 C   0  0  0  0  0  0  0  0  0  0  0  0
    3.8929   -2.4753    1.9286 C   0  0  1  0  0  0  0  0  0  0  0  0
    2.8942   -3.5674    1.7792 O   0  0  0  0  0  0  0  0  0  0  0  0
    2.7468   -1.7773   -2.3530 H   0  0  0  0  0  0  0  0  0  0  0  0
    3.4886   -3.1680   -3.3330 H   0  0  0  0  0  0  0  0  0  0  0  0
    4.8482   -4.8567   -2.0478 H   0  0  0  0  0  0  0  0  0  0  0  0
    7.1528   -3.8446   -1.0404 H   0  0  0  0  0  0  0  0  0  0  0  0
    6.3744   -3.1024   -2.3622 H   0  0  0  0  0  0  0  0  0  0  0  0
    5.8920   -0.0710    0.1434 H   0  0  0  0  0  0  0  0  0  0  0  0
    4.9747   -0.4784   -1.2462 H   0  0  0  0  0  0  0  0  0  0  0  0
    2.1246   -0.6453    1.1393 H   0  0  0  0  0  0  0  0  0  0  0  0
    2.6374   -0.3537   -0.4769 H   0  0  0  0  0  0  0  0  0  0  0  0
    3.2645    0.6783    0.8514 H   0  0  0  0  0  0  0  0  0  0  0  0
    2.9335   -2.6170   -0.0226 H   0  0  0  0  0  0  0  0  0  0  0  0
    6.3142   -2.3581    3.0598 H   0  0  0  0  0  0  0  0  0  0  0  0
    6.0417   -1.0067    2.0947 H   0  0  0  0  0  0  0  0  0  0  0  0
    7.2210   -2.1607    1.5083 H   0  0  0  0  0  0  0  0  0  0  0  0
    6.8873   -4.2744    2.0406 H   0  0  0  0  0  0  0  0  0  0  0  0
    5.4405   -4.8045    2.6776 H   0  0  0  0  0  0  0  0  0  0  0  0
    6.7444   -5.4896    0.1304 H   0  0  0  0  0  0  0  0  0  0  0  0
    2.3131   -5.0827    0.5472 H   0  0  0  0  0  0  0  0  0  0  0  0
    2.3348   -6.4115    2.3192 H   0  0  0  0  0  0  0  0  0  0  0  0
    3.9832   -6.2777    2.6306 H   0  0  0  0  0  0  0  0  0  0  0  0
    0.9117   -4.2171    4.8716 H   0  0  0  0  0  0  0  0  0  0  0  0
    0.6062   -5.4334    3.6483 H   0  0  0  0  0  0  0  0  0  0  0  0
    0.9518   -3.7739    3.1800 H   0  0  0  0  0  0  0  0  0  0  0  0
    2.6548   -5.5856    5.9559 H   0  0  0  0  0  0  0  0  0  0  0  0
    3.9282   -6.3519    5.0138 H   0  0  0  0  0  0  0  0  0  0  0  0
    2.2580   -6.8427    4.7894 H   0  0  0  0  0  0  0  0  0  0  0  0
    3.0633   -3.2705    5.2392 H   0  0  0  0  0  0  0  0  0  0  0  0
    5.3581   -4.1893    4.0290 H   0  0  0  0  0  0  0  0  0  0  0  0
    2.5523   -1.8766    3.4752 H   0  0  0  0  0  0  0  0  0  0  0  0
    4.7878    0.6777    4.4286 H   0  0  0  0  0  0  0  0  0  0  0  0
    3.1014    0.3444    4.0204 H   0  0  0  0  0  0  0  0  0  0  0  0
    4.3663    0.3008    2.7824 H   0  0  0  0  0  0  0  0  0  0  0  0
  1  2  2  0
  1 28  1  0
  1 29  1  0
  2  9  1  0
  2  3  1  0
  3 15  1  0
  3  4  1  0
  3 30  1  6
  4  5  1  0
  4 31  1  0
  4 32  1  0
  5  6  1  0
  6  7  1  0
  6 33  1  0
  6 34  1  0
  7 26  1  0
  7  8  1  6
  7  9  1  0
  8 35  1  0
  8 36  1  0
  8 37  1  0
  9 10  1  0
  9 38  1  1
 10 26  1  0
 10 11  1  6
 10 12  1  0
 11 39  1  0
 11 40  1  0
 11 41  1  0
 12 13  1  0
 12 42  1  0
 12 43  1  0
 13 15  1  0
 13 14  1  0
 13 44  1  6
 15 14  1  6
 15 16  1  0
 16 27  1  0
 16 17  1  0
 16 45  1  6
 17 18  1  0
 17 46  1  0
 17 47  1  0
 18 19  1  0
 18 20  1  0
 18 21  1  0
 19 48  1  0
 19 49  1  0
 19 50  1  0
 20 51  1  0
 20 52  1  0
 20 53  1  0
 21 22  1  0
 21 23  1  0
 21 54  1  1
 22 55  1  0
 23 24  1  0
 23 26  1  0
 23 56  1  6
 24 25  1  0
 25 57  1  0
 25 58  1  0
 25 59  1  0
 26 27  1  6
M  END
>  <i_m_ct_stereo_status>  (175) 
1

>  <s_m_source_file>  (175) 
/var/tmp/pbs.5076255.sched01/tmpck0ladl8/45htcshi4i.sdf

>  <i_m_source_file_index>  (175) 
26

>  <i_lp_mmshare_version>  (175) 
48012

>  <i_f3d_flags>  (175) 
0

>  <s_epik_input>  (175) 
W0NAQF0xMjNbQ0BIXTRDKD1bQ0gyXSlbQ0BASF01W0NAXShbQ0gzXSkoW0NIMl1PW0NIMl00KVtDQEBdNihbQ0BAXTUoW0NIM10pW0NIMl1bQ0BIXTFPMilbQ0BIXShPW0NIM10pW0NASF0oW09IXSlDKFtDSDNdKShbQ0gzXSlbQ0gyXVtDQEhdM082

>  <s_epik_cmdline>  (175) 
J2VwaWtfcHl0aG9uJywgJy1waHQnLCAnMi4wJywgJy1waCcsICc3LjAnLCAnLXRuJywgJzgnLCAnLW1hJywgJzIwMCcsICctaW1hZScsICc8aW5maWxlLm1hZT4nLCAnLW9tYWUnLCAnPG91dGZpbGUubWFlPic=

>  <r_lp_tautomer_probability>  (175) 
1

>  <r_epik_Ionization_Penalty>  (175) 
4.34816e-08

>  <r_epik_Ionization_Penalty_Charging>  (175) 
0

>  <r_epik_Ionization_Penalty_Neutral>  (175) 
4.34816e-08

>  <r_epik_State_Penalty>  (175) 
-0

>  <r_epik_Charging_Adjusted_Penalty>  (175) 
0

>  <i_epik_Tot_Q>  (175) 
0

>  <i_epik_Tot_abs_Q>  (175) 
0

>  <s_lp_Force_Field>  (175) 
OPLS3e

>  <r_lp_Energy>  (175) 
376.978

>  <b_lp_Chiralities_Consistent>  (175) 
1

>  <s_lp_Variant>  (175) 
48:0-1

>  <s_i_glide_gridfile>  (175) 
pfpi4k_grid

>  <i_i_glide_lignum>  (175) 
26

>  <i_i_glide_rotatable_bonds>  (175) 
2

>  <r_i_docking_score>  (175) 
-2.44405

>  <r_i_glide_ligand_efficiency>  (175) 
-0.0905202

>  <r_i_glide_ligand_efficiency_sa>  (175) 
-0.271561

>  <r_i_glide_ligand_efficiency_ln>  (175) 
-0.568934

>  <r_i_glide_gscore>  (175) 
-2.44405

>  <r_i_glide_lipo>  (175) 
-0.410367

>  <r_i_glide_hbond>  (175) 
-0.119033

>  <r_i_glide_metal>  (175) 
-0

>  <r_i_glide_rewards>  (175) 
-0.842138

>  <r_i_glide_evdw>  (175) 
-13.811

>  <r_i_glide_ecoul>  (175) 
-2.5464

>  <r_i_glide_erotb>  (175) 
0

>  <r_i_glide_esite>  (175) 
0

>  <r_i_glide_emodel>  (175) 
-18.569

>  <r_i_glide_energy>  (175) 
-16.3574

>  <r_i_glide_einternal>  (175) 
0.00496552

>  <r_i_glide_intrahb_reward>  (175) 
-0

>  <i_i_glide_confnum>  (175) 
2

>  <i_i_glide_posenum>  (175) 
9

>  <r_i_glide_eff_state_penalty>  (175) 
0

>  <ligand_id>  (175) 
48

>  <original_smiles>  (175) 
C=C1C2COCC3(C)C1C1(C)CC4OC42C2CC(C)(C)C(O)C(OC)C31O2

>  <smiles>  (175) 
[H]OC1([H])C([H])(OC([H])([H])[H])C23OC([H])(C([H])([H])C1(C([H])([H])[H])C([H])([H])[H])C14OC1([H])C([H])([H])C2(C([H])([H])[H])C1([H])C(=C([H])[H])C4([H])C([H])([H])OC([H])([H])C13C([H])([H])[H]

$$$$
48:0:1
     RDKit          3D

 59 64  0  0  1  0  0  0  0  0999 V2000
    3.3769   -2.2016   -2.1811 C   0  0  0  0  0  0  0  0  0  0  0  0
    3.9431   -2.8957   -1.1762 C   0  0  0  0  0  0  0  0  0  0  0  0
    4.7587   -4.0693   -1.2694 C   0  0  1  0  0  0  0  0  0  0  0  0
    6.1286   -3.2094   -1.1162 C   0  0  0  0  0  0  0  0  0  0  0  0
    6.2881   -2.0165   -0.2081 O   0  0  0  0  0  0  0  0  0  0  0  0
    5.2674   -1.0510    0.3396 C   0  0  0  0  0  0  0  0  0  0  0  0
    3.9475   -1.5962    1.1174 C   0  0  1  0  0  0  0  0  0  0  0  0
    2.8526   -0.5411    1.1017 C   0  0  0  0  0  0  0  0  0  0  0  0
    3.8895   -2.7012    0.3035 C   0  0  2  0  0  0  0  0  0  0  0  0
    4.8993   -3.4281    1.5406 C   0  0  2  0  0  0  0  0  0  0  0  0
    6.0154   -2.7577    2.4134 C   0  0  0  0  0  0  0  0  0  0  0  0
    5.4927   -4.9146    1.6331 C   0  0  0  0  0  0  0  0  0  0  0  0
    5.5413   -5.6855    0.3689 C   0  0  1  0  0  0  0  0  0  0  0  0
    4.6210   -6.5727   -0.2593 O   0  0  0  0  0  0  0  0  0  0  0  0
    4.2441   -5.2064   -0.2061 C   0  0  2  0  0  0  0  0  0  0  0  0
    2.8907   -5.1129    0.7558 C   0  0  1  0  0  0  0  0  0  0  0  0
    2.6908   -6.1982    1.8805 C   0  0  0  0  0  0  0  0  0  0  0  0
    2.2693   -5.7622    3.3722 C   0  0  0  0  0  0  0  0  0  0  0  0
    0.7765   -5.3609    3.3966 C   0  0  0  0  0  0  0  0  0  0  0  0
    2.3370   -7.0563    4.2193 C   0  0  0  0  0  0  0  0  0  0  0  0
    3.0896   -4.6085    4.1455 C   0  0  1  0  0  0  0  0  0  0  0  0
    4.3486   -5.0903    4.5830 O   0  0  0  0  0  0  0  0  0  0  0  0
    3.2105   -3.1174    3.5847 C   0  0  1  0  0  0  0  0  0  0  0  0
    4.0123   -2.3737    4.5052 O   0  0  0  0  0  0  0  0  0  0  0  0
    3.8540   -0.9606    4.4767 C   0  0  0  0  0  0  0  0  0  0  0  0
    3.6176   -2.9996    2.0879 C   0  0  1  0  0  0  0  0  0  0  0  0
    2.5992   -3.9931    1.6498 O   0  0  0  0  0  0  0  0  0  0  0  0
    2.7616   -1.3353   -1.9878 H   0  0  0  0  0  0  0  0  0  0  0  0
    3.5068   -2.5074   -3.2119 H   0  0  0  0  0  0  0  0  0  0  0  0
    4.7119   -4.4981   -2.2741 H   0  0  0  0  0  0  0  0  0  0  0  0
    6.9990   -3.8421   -0.9610 H   0  0  0  0  0  0  0  0  0  0  0  0
    6.3280   -2.7867   -2.1040 H   0  0  0  0  0  0  0  0  0  0  0  0
    5.8024   -0.3625    0.9938 H   0  0  0  0  0  0  0  0  0  0  0  0
    4.9668   -0.4177   -0.4961 H   0  0  0  0  0  0  0  0  0  0  0  0
    1.9228   -0.9274    1.5189 H   0  0  0  0  0  0  0  0  0  0  0  0
    2.6300   -0.2545    0.0805 H   0  0  0  0  0  0  0  0  0  0  0  0
    3.1224    0.3598    1.6502 H   0  0  0  0  0  0  0  0  0  0  0  0
    2.7967   -2.6776    0.1075 H   0  0  0  0  0  0  0  0  0  0  0  0
    6.1100   -3.2890    3.3598 H   0  0  0  0  0  0  0  0  0  0  0  0
    5.8249   -1.7348    2.7254 H   0  0  0  0  0  0  0  0  0  0  0  0
    6.9923   -2.7654    1.9256 H   0  0  0  0  0  0  0  0  0  0  0  0
    6.5394   -4.9309    1.9524 H   0  0  0  0  0  0  0  0  0  0  0  0
    5.0350   -5.5190    2.3857 H   0  0  0  0  0  0  0  0  0  0  0  0
    6.4779   -5.6693   -0.1673 H   0  0  0  0  0  0  0  0  0  0  0  0
    2.0394   -5.1756    0.0780 H   0  0  0  0  0  0  0  0  0  0  0  0
    1.9104   -6.8650    1.5124 H   0  0  0  0  0  0  0  0  0  0  0  0
    3.5410   -6.8742    1.9269 H   0  0  0  0  0  0  0  0  0  0  0  0
    0.4157   -5.2243    4.4180 H   0  0  0  0  0  0  0  0  0  0  0  0
    0.1488   -6.1222    2.9354 H   0  0  0  0  0  0  0  0  0  0  0  0
    0.6146   -4.4178    2.8804 H   0  0  0  0  0  0  0  0  0  0  0  0
    2.0406   -6.8788    5.2545 H   0  0  0  0  0  0  0  0  0  0  0  0
    3.3443   -7.4764    4.2363 H   0  0  0  0  0  0  0  0  0  0  0  0
    1.6777   -7.8293    3.8206 H   0  0  0  0  0  0  0  0  0  0  0  0
    2.5674   -4.4799    5.0945 H   0  0  0  0  0  0  0  0  0  0  0  0
    4.8976   -5.2184    3.8304 H   0  0  0  0  0  0  0  0  0  0  0  0
    2.2039   -2.7037    3.6673 H   0  0  0  0  0  0  0  0  0  0  0  0
    4.4883   -0.5225    5.2465 H   0  0  0  0  0  0  0  0  0  0  0  0
    2.8244   -0.6597    4.6696 H   0  0  0  0  0  0  0  0  0  0  0  0
    4.1706   -0.5244    3.5331 H   0  0  0  0  0  0  0  0  0  0  0  0
  1  2  2  0
  1 28  1  0
  1 29  1  0
  2  9  1  0
  2  3  1  0
  3 15  1  0
  3  4  1  0
  3 30  1  6
  4  5  1  0
  4 31  1  0
  4 32  1  0
  5  6  1  0
  6  7  1  0
  6 33  1  0
  6 34  1  0
  7 26  1  0
  7  8  1  6
  7  9  1  0
  8 35  1  0
  8 36  1  0
  8 37  1  0
  9 10  1  0
  9 38  1  1
 10 26  1  0
 10 11  1  1
 10 12  1  0
 11 39  1  0
 11 40  1  0
 11 41  1  0
 12 13  1  0
 12 42  1  0
 12 43  1  0
 13 15  1  0
 13 14  1  0
 13 44  1  6
 15 14  1  6
 15 16  1  0
 16 27  1  0
 16 17  1  0
 16 45  1  6
 17 18  1  0
 17 46  1  0
 17 47  1  0
 18 19  1  0
 18 20  1  0
 18 21  1  0
 19 48  1  0
 19 49  1  0
 19 50  1  0
 20 51  1  0
 20 52  1  0
 20 53  1  0
 21 22  1  0
 21 23  1  0
 21 54  1  1
 22 55  1  0
 23 24  1  0
 23 26  1  0
 23 56  1  6
 24 25  1  0
 25 57  1  0
 25 58  1  0
 25 59  1  0
 26 27  1  6
M  END
>  <i_m_ct_stereo_status>  (176) 
1

>  <s_m_source_file>  (176) 
/var/tmp/pbs.5076255.sched01/tmpck0ladl8/45htcshi4i.sdf

>  <i_m_source_file_index>  (176) 
26

>  <i_lp_mmshare_version>  (176) 
48012

>  <i_f3d_flags>  (176) 
0

>  <s_epik_input>  (176) 
W0NAQF0xMjNbQ0BIXTRDKD1bQ0gyXSlbQ0BASF01W0NAXShbQ0gzXSkoW0NIMl1PW0NIMl00KVtDQEBdNihbQ0BAXTUoW0NIM10pW0NIMl1bQ0BIXTFPMilbQ0BIXShPW0NIM10pW0NASF0oW09IXSlDKFtDSDNdKShbQ0gzXSlbQ0gyXVtDQEhdM082

>  <s_epik_cmdline>  (176) 
J2VwaWtfcHl0aG9uJywgJy1waHQnLCAnMi4wJywgJy1waCcsICc3LjAnLCAnLXRuJywgJzgnLCAnLW1hJywgJzIwMCcsICctaW1hZScsICc8aW5maWxlLm1hZT4nLCAnLW9tYWUnLCAnPG91dGZpbGUubWFlPic=

>  <r_lp_tautomer_probability>  (176) 
1

>  <r_epik_Ionization_Penalty>  (176) 
4.34816e-08

>  <r_epik_Ionization_Penalty_Charging>  (176) 
0

>  <r_epik_Ionization_Penalty_Neutral>  (176) 
4.34816e-08

>  <r_epik_State_Penalty>  (176) 
-0

>  <r_epik_Charging_Adjusted_Penalty>  (176) 
0

>  <i_epik_Tot_Q>  (176) 
0

>  <i_epik_Tot_abs_Q>  (176) 
0

>  <s_lp_Force_Field>  (176) 
OPLS3e

>  <r_lp_Energy>  (176) 
376.978

>  <b_lp_Chiralities_Consistent>  (176) 
1

>  <s_lp_Variant>  (176) 
48:0-1

>  <s_i_glide_gridfile>  (176) 
pfpi4k_grid

>  <i_i_glide_lignum>  (176) 
26

>  <i_i_glide_rotatable_bonds>  (176) 
2

>  <r_i_docking_score>  (176) 
-2.27374

>  <r_i_glide_ligand_efficiency>  (176) 
-0.0842125

>  <r_i_glide_ligand_efficiency_sa>  (176) 
-0.252638

>  <r_i_glide_ligand_efficiency_ln>  (176) 
-0.529289

>  <r_i_glide_gscore>  (176) 
-2.27374

>  <r_i_glide_lipo>  (176) 
-0.381733

>  <r_i_glide_hbond>  (176) 
0

>  <r_i_glide_metal>  (176) 
-0

>  <r_i_glide_rewards>  (176) 
-0.842138

>  <r_i_glide_evdw>  (176) 
-16.8985

>  <r_i_glide_ecoul>  (176) 
-1.36629

>  <r_i_glide_erotb>  (176) 
0

>  <r_i_glide_esite>  (176) 
0

>  <r_i_glide_emodel>  (176) 
-20.4904

>  <r_i_glide_energy>  (176) 
-18.2648

>  <r_i_glide_einternal>  (176) 
0.022759

>  <r_i_glide_intrahb_reward>  (176) 
-0

>  <i_i_glide_confnum>  (176) 
1

>  <i_i_glide_posenum>  (176) 
6

>  <r_i_glide_eff_state_penalty>  (176) 
0

>  <ligand_id>  (176) 
48

>  <original_smiles>  (176) 
C=C1C2COCC3(C)C1C1(C)CC4OC42C2CC(C)(C)C(O)C(OC)C31O2

>  <smiles>  (176) 
[H]OC1([H])C([H])(OC([H])([H])[H])C23OC([H])(C([H])([H])C1(C([H])([H])[H])C([H])([H])[H])C14OC1([H])C([H])([H])C2(C([H])([H])[H])C1([H])C(=C([H])[H])C4([H])C([H])([H])OC([H])([H])C13C([H])([H])[H]

$$$$
48:0:2
     RDKit          3D

 59 64  0  0  1  0  0  0  0  0999 V2000
    0.9666   -7.4898    2.0754 C   0  0  0  0  0  0  0  0  0  0  0  0
    1.8389   -6.4949    2.3352 C   0  0  0  0  0  0  0  0  0  0  0  0
    1.5903   -5.2480    2.9965 C   0  0  1  0  0  0  0  0  0  0  0  0
    2.1845   -5.7951    4.4069 C   0  0  0  0  0  0  0  0  0  0  0  0
    3.3909   -6.6885    4.5209 O   0  0  0  0  0  0  0  0  0  0  0  0
    3.9800   -7.6821    3.5509 C   0  0  0  0  0  0  0  0  0  0  0  0
    4.3460   -7.2184    2.0405 C   0  0  1  0  0  0  0  0  0  0  0  0
    4.4123   -8.4370    1.1041 C   0  0  0  0  0  0  0  0  0  0  0  0
    3.2952   -6.3434    2.0158 C   0  0  2  0  0  0  0  0  0  0  0  0
    4.4486   -5.1910    2.6560 C   0  0  2  0  0  0  0  0  0  0  0  0
    5.6474   -5.4269    3.6651 C   0  0  0  0  0  0  0  0  0  0  0  0
    4.2489   -3.6421    3.0144 C   0  0  0  0  0  0  0  0  0  0  0  0
    2.8544   -3.1833    3.2143 C   0  0  1  0  0  0  0  0  0  0  0  0
    1.8591   -2.6491    2.3378 O   0  0  0  0  0  0  0  0  0  0  0  0
    2.2193   -4.0113    2.1363 C   0  0  2  0  0  0  0  0  0  0  0  0
    2.9358   -4.1191    0.6379 C   0  0  1  0  0  0  0  0  0  0  0  0
    3.6830   -2.8525    0.0668 C   0  0  0  0  0  0  0  0  0  0  0  0
    5.1372   -3.0122   -0.5992 C   0  0  0  0  0  0  0  0  0  0  0  0
    5.0153   -3.6506   -2.0055 C   0  0  0  0  0  0  0  0  0  0  0  0
    5.6221   -1.5653   -0.8689 C   0  0  0  0  0  0  0  0  0  0  0  0
    6.3122   -3.7919    0.1936 C   0  0  1  0  0  0  0  0  0  0  0  0
    6.7975   -2.9961    1.2575 O   0  0  0  0  0  0  0  0  0  0  0  0
    6.1844   -5.3226    0.6325 C   0  0  1  0  0  0  0  0  0  0  0  0
    7.3921   -5.6814    1.3132 O   0  0  0  0  0  0  0  0  0  0  0  0
    7.6757   -7.0745    1.4305 C   0  0  0  0  0  0  0  0  0  0  0  0
    4.8669   -5.7081    1.3531 C   0  0  1  0  0  0  0  0  0  0  0  0
    4.0305   -5.0357    0.3251 O   0  0  0  0  0  0  0  0  0  0  0  0
    1.2728   -8.3908    1.5646 H   0  0  0  0  0  0  0  0  0  0  0  0
   -0.0659   -7.4231    2.3878 H   0  0  0  0  0  0  0  0  0  0  0  0
    0.5181   -5.0716    3.1137 H   0  0  0  0  0  0  0  0  0  0  0  0
    2.3115   -5.0009    5.1388 H   0  0  0  0  0  0  0  0  0  0  0  0
    1.3957   -6.3975    4.8567 H   0  0  0  0  0  0  0  0  0  0  0  0
    4.8715   -8.0919    4.0238 H   0  0  0  0  0  0  0  0  0  0  0  0
    3.2962   -8.5281    3.5233 H   0  0  0  0  0  0  0  0  0  0  0  0
    4.5849   -8.1186    0.0725 H   0  0  0  0  0  0  0  0  0  0  0  0
    3.4880   -9.0146    1.1068 H   0  0  0  0  0  0  0  0  0  0  0  0
    5.2243   -9.1116    1.3717 H   0  0  0  0  0  0  0  0  0  0  0  0
    2.9321   -6.6107    1.0010 H   0  0  0  0  0  0  0  0  0  0  0  0
    6.4324   -4.6913    3.5074 H   0  0  0  0  0  0  0  0  0  0  0  0
    6.1634   -6.3732    3.5636 H   0  0  0  0  0  0  0  0  0  0  0  0
    5.3580   -5.3481    4.7163 H   0  0  0  0  0  0  0  0  0  0  0  0
    4.7255   -3.3616    3.9559 H   0  0  0  0  0  0  0  0  0  0  0  0
    4.7300   -2.9720    2.3300 H   0  0  0  0  0  0  0  0  0  0  0  0
    2.4968   -3.1601    4.2396 H   0  0  0  0  0  0  0  0  0  0  0  0
    2.1417   -4.3654   -0.0614 H   0  0  0  0  0  0  0  0  0  0  0  0
    3.0270   -2.4426   -0.6977 H   0  0  0  0  0  0  0  0  0  0  0  0
    3.6951   -2.0474    0.7938 H   0  0  0  0  0  0  0  0  0  0  0  0
    5.9618   -3.6114   -2.5443 H   0  0  0  0  0  0  0  0  0  0  0  0
    4.2739   -3.1385   -2.6174 H   0  0  0  0  0  0  0  0  0  0  0  0
    4.7246   -4.6992   -1.9607 H   0  0  0  0  0  0  0  0  0  0  0  0
    6.6011   -1.5623   -1.3423 H   0  0  0  0  0  0  0  0  0  0  0  0
    5.6967   -0.9802    0.0512 H   0  0  0  0  0  0  0  0  0  0  0  0
    4.9328   -1.0294   -1.5267 H   0  0  0  0  0  0  0  0  0  0  0  0
    7.1600   -3.7911   -0.4942 H   0  0  0  0  0  0  0  0  0  0  0  0
    6.1696   -3.0113    1.9513 H   0  0  0  0  0  0  0  0  0  0  0  0
    6.1938   -5.8742   -0.3009 H   0  0  0  0  0  0  0  0  0  0  0  0
    8.6214   -7.2033    1.9418 H   0  0  0  0  0  0  0  0  0  0  0  0
    7.7673   -7.5708    0.4792 H   0  0  0  0  0  0  0  0  0  0  0  0
    6.9374   -7.6250    2.0056 H   0  0  0  0  0  0  0  0  0  0  0  0
  1  2  2  0
  1 28  1  0
  1 29  1  0
  2  9  1  0
  2  3  1  0
  3 15  1  0
  3  4  1  0
  3 30  1  1
  4  5  1  0
  4 31  1  0
  4 32  1  0
  5  6  1  0
  6  7  1  0
  6 33  1  0
  6 34  1  0
  7 26  1  0
  7  8  1  6
  7  9  1  0
  8 35  1  0
  8 36  1  0
  8 37  1  0
  9 10  1  0
  9 38  1  6
 10 26  1  0
 10 11  1  1
 10 12  1  0
 11 39  1  0
 11 40  1  0
 11 41  1  0
 12 13  1  0
 12 42  1  0
 12 43  1  0
 13 15  1  0
 13 14  1  0
 13 44  1  1
 15 14  1  6
 15 16  1  0
 16 27  1  0
 16 17  1  0
 16 45  1  6
 17 18  1  0
 17 46  1  0
 17 47  1  0
 18 19  1  0
 18 20  1  0
 18 21  1  0
 19 48  1  0
 19 49  1  0
 19 50  1  0
 20 51  1  0
 20 52  1  0
 20 53  1  0
 21 22  1  0
 21 23  1  0
 21 54  1  6
 22 55  1  0
 23 24  1  0
 23 26  1  0
 23 56  1  6
 24 25  1  0
 25 57  1  0
 25 58  1  0
 25 59  1  0
 26 27  1  6
M  END
>  <i_m_ct_stereo_status>  (177) 
1

>  <s_m_source_file>  (177) 
/var/tmp/pbs.5076255.sched01/tmpck0ladl8/45htcshi4i.sdf

>  <i_m_source_file_index>  (177) 
26

>  <i_lp_mmshare_version>  (177) 
48012

>  <i_f3d_flags>  (177) 
0

>  <s_epik_input>  (177) 
W0NAQF0xMjNbQ0BIXTRDKD1bQ0gyXSlbQ0BASF01W0NAXShbQ0gzXSkoW0NIMl1PW0NIMl00KVtDQEBdNihbQ0BAXTUoW0NIM10pW0NIMl1bQ0BIXTFPMilbQ0BIXShPW0NIM10pW0NASF0oW09IXSlDKFtDSDNdKShbQ0gzXSlbQ0gyXVtDQEhdM082

>  <s_epik_cmdline>  (177) 
J2VwaWtfcHl0aG9uJywgJy1waHQnLCAnMi4wJywgJy1waCcsICc3LjAnLCAnLXRuJywgJzgnLCAnLW1hJywgJzIwMCcsICctaW1hZScsICc8aW5maWxlLm1hZT4nLCAnLW9tYWUnLCAnPG91dGZpbGUubWFlPic=

>  <r_lp_tautomer_probability>  (177) 
1

>  <r_epik_Ionization_Penalty>  (177) 
4.34816e-08

>  <r_epik_Ionization_Penalty_Charging>  (177) 
0

>  <r_epik_Ionization_Penalty_Neutral>  (177) 
4.34816e-08

>  <r_epik_State_Penalty>  (177) 
-0

>  <r_epik_Charging_Adjusted_Penalty>  (177) 
0

>  <i_epik_Tot_Q>  (177) 
0

>  <i_epik_Tot_abs_Q>  (177) 
0

>  <s_lp_Force_Field>  (177) 
OPLS3e

>  <r_lp_Energy>  (177) 
376.978

>  <b_lp_Chiralities_Consistent>  (177) 
1

>  <s_lp_Variant>  (177) 
48:0-1

>  <s_i_glide_gridfile>  (177) 
pfpi4k_grid

>  <i_i_glide_lignum>  (177) 
26

>  <i_i_glide_rotatable_bonds>  (177) 
2

>  <r_i_docking_score>  (177) 
-1.99732

>  <r_i_glide_ligand_efficiency>  (177) 
-0.0739747

>  <r_i_glide_ligand_efficiency_sa>  (177) 
-0.221924

>  <r_i_glide_ligand_efficiency_ln>  (177) 
-0.464943

>  <r_i_glide_gscore>  (177) 
-1.99732

>  <r_i_glide_lipo>  (177) 
-0.38402

>  <r_i_glide_hbond>  (177) 
0

>  <r_i_glide_metal>  (177) 
-0

>  <r_i_glide_rewards>  (177) 
-0.842138

>  <r_i_glide_evdw>  (177) 
-19.6479

>  <r_i_glide_ecoul>  (177) 
1.40824

>  <r_i_glide_erotb>  (177) 
0

>  <r_i_glide_esite>  (177) 
0

>  <r_i_glide_emodel>  (177) 
-20.0074

>  <r_i_glide_energy>  (177) 
-18.2397

>  <r_i_glide_einternal>  (177) 
0.132415

>  <r_i_glide_intrahb_reward>  (177) 
-0

>  <i_i_glide_confnum>  (177) 
2

>  <i_i_glide_posenum>  (177) 
18

>  <r_i_glide_eff_state_penalty>  (177) 
0

>  <ligand_id>  (177) 
48

>  <original_smiles>  (177) 
C=C1C2COCC3(C)C1C1(C)CC4OC42C2CC(C)(C)C(O)C(OC)C31O2

>  <smiles>  (177) 
[H]OC1([H])C([H])(OC([H])([H])[H])C23OC([H])(C([H])([H])C1(C([H])([H])[H])C([H])([H])[H])C14OC1([H])C([H])([H])C2(C([H])([H])[H])C1([H])C(=C([H])[H])C4([H])C([H])([H])OC([H])([H])C13C([H])([H])[H]

$$$$
49:0:0
     RDKit          3D

 42 44  0  0  1  0  0  0  0  0999 V2000
    0.7086    0.6496    1.7783 C   0  0  0  0  0  0  0  0  0  0  0  0
    1.3282    1.0138    2.9088 C   0  0  0  0  0  0  0  0  0  0  0  0
    2.7904    0.7441    2.9971 C   0  0  0  0  0  0  0  0  0  0  0  0
    3.3629   -0.1066    2.3205 O   0  0  0  0  0  0  0  0  0  0  0  0
    3.4590    1.4874    3.9016 O   0  0  0  0  0  0  0  0  0  0  0  0
    2.8583    2.5744    4.5880 C   0  0  1  0  0  0  0  0  0  0  0  0
    2.6976    3.8318    3.6538 C   0  0  0  0  0  0  0  0  0  0  0  0
    1.5233    4.8054    4.0427 C   0  0  1  0  0  0  0  0  0  0  0  0
    2.0819    5.9416    4.9356 C   0  0  0  0  0  0  0  0  0  0  0  0
    1.1206    5.5098    2.8804 O   0  0  0  0  0  0  0  0  0  0  0  0
    0.3067    4.0119    4.6788 C   0  0  2  0  0  0  0  0  0  0  0  0
   -0.6472    4.8761    5.2562 O   0  0  0  0  0  0  0  0  0  0  0  0
    0.9277    3.2082    5.7744 C   0  0  0  0  0  0  0  0  0  0  0  0
    1.5068    2.1866    5.1569 C   0  0  0  0  0  0  0  0  0  0  0  0
    0.5752    1.6208    4.1046 C   0  0  2  0  0  0  0  0  0  0  0  0
   -0.2395    0.4923    4.7800 C   0  0  0  0  0  0  0  0  0  0  0  0
   -0.2522    2.9012    3.7098 C   0  0  1  0  0  0  0  0  0  0  0  0
   -1.7919    2.6975    3.6991 C   0  0  0  0  0  0  0  0  0  0  0  0
   -2.5944    3.7754    2.9692 C   0  0  0  0  0  0  0  0  0  0  0  0
   -2.2036    4.9388    2.8673 O   0  0  0  0  0  0  0  0  0  0  0  0
   -3.7744    3.3333    2.5162 O   0  0  0  0  0  0  0  0  0  0  0  0
   -4.6479    4.2268    1.8446 C   0  0  0  0  0  0  0  0  0  0  0  0
   -0.3519    0.7826    1.6513 H   0  0  0  0  0  0  0  0  0  0  0  0
    1.2482    0.1988    0.9564 H   0  0  0  0  0  0  0  0  0  0  0  0
    3.4968    2.8485    5.4304 H   0  0  0  0  0  0  0  0  0  0  0  0
    3.6428    4.3683    3.6068 H   0  0  0  0  0  0  0  0  0  0  0  0
    2.5474    3.5117    2.6227 H   0  0  0  0  0  0  0  0  0  0  0  0
    2.5327    5.5820    5.8592 H   0  0  0  0  0  0  0  0  0  0  0  0
    1.3147    6.6745    5.1819 H   0  0  0  0  0  0  0  0  0  0  0  0
    2.8583    6.4963    4.4043 H   0  0  0  0  0  0  0  0  0  0  0  0
    0.7321    4.9248    2.2216 H   0  0  0  0  0  0  0  0  0  0  0  0
   -0.1671    5.5254    5.7483 H   0  0  0  0  0  0  0  0  0  0  0  0
    1.4971    3.8071    6.4680 H   0  0  0  0  0  0  0  0  0  0  0  0
    0.4175   -0.3073    5.1309 H   0  0  0  0  0  0  0  0  0  0  0  0
   -0.9586    0.0390    4.0980 H   0  0  0  0  0  0  0  0  0  0  0  0
   -0.7831    0.8626    5.6487 H   0  0  0  0  0  0  0  0  0  0  0  0
    0.0070    3.1646    2.6832 H   0  0  0  0  0  0  0  0  0  0  0  0
   -2.0316    1.7543    3.2158 H   0  0  0  0  0  0  0  0  0  0  0  0
   -2.1712    2.6120    4.7128 H   0  0  0  0  0  0  0  0  0  0  0  0
   -5.5328    3.6820    1.5375 H   0  0  0  0  0  0  0  0  0  0  0  0
   -4.1865    4.6570    0.9574 H   0  0  0  0  0  0  0  0  0  0  0  0
   -4.9664    5.0497    2.4830 H   0  0  0  0  0  0  0  0  0  0  0  0
  1  2  2  0
  1 23  1  0
  1 24  1  0
  2 15  1  0
  2  3  1  0
  3  4  2  0
  3  5  1  0
  5  6  1  0
  6 14  1  0
  6  7  1  0
  6 25  1  1
  7  8  1  0
  7 26  1  0
  7 27  1  0
  8  9  1  0
  8 10  1  6
  8 11  1  0
  9 28  1  0
  9 29  1  0
  9 30  1  0
 10 31  1  0
 11 17  1  0
 11 12  1  1
 11 13  1  0
 12 32  1  0
 13 14  2  0
 13 33  1  0
 14 15  1  0
 15 16  1  1
 15 17  1  0
 16 34  1  0
 16 35  1  0
 16 36  1  0
 17 18  1  0
 17 37  1  6
 18 19  1  0
 18 38  1  0
 18 39  1  0
 19 20  2  0
 19 21  1  0
 21 22  1  0
 22 40  1  0
 22 41  1  0
 22 42  1  0
M  END
>  <i_m_ct_stereo_status>  (178) 
1

>  <s_m_source_file>  (178) 
/var/tmp/pbs.5076255.sched01/tmpck0ladl8/45htcshi4i.sdf

>  <i_m_source_file_index>  (178) 
27

>  <i_lp_mmshare_version>  (178) 
48012

>  <i_f3d_flags>  (178) 
0

>  <s_epik_input>  (178) 
W0NIM11PQyg9TylbQ0gyXVtDQEBIXTFbQ0BAXShbQ0gzXSkoQyg9W0NIMl0pQyg9TylPMilDKD1bQ0hdMylbQ0BASF0yW0NIMl1bQ0BAXShbQ0gzXSkoW09IXSlbQ0BAXTEzW09IXQ==

>  <s_epik_cmdline>  (178) 
J2VwaWtfcHl0aG9uJywgJy1waHQnLCAnMi4wJywgJy1waCcsICc3LjAnLCAnLXRuJywgJzgnLCAnLW1hJywgJzIwMCcsICctaW1hZScsICc8aW5maWxlLm1hZT4nLCAnLW9tYWUnLCAnPG91dGZpbGUubWFlPic=

>  <r_lp_tautomer_probability>  (178) 
1

>  <r_epik_Ionization_Penalty>  (178) 
3.29831e-06

>  <r_epik_Ionization_Penalty_Charging>  (178) 
0

>  <r_epik_Ionization_Penalty_Neutral>  (178) 
3.29831e-06

>  <r_epik_State_Penalty>  (178) 
-0

>  <r_epik_Charging_Adjusted_Penalty>  (178) 
0

>  <i_epik_Tot_Q>  (178) 
0

>  <i_epik_Tot_abs_Q>  (178) 
0

>  <s_epik_Chemistry_Notes>  (178) 
This compound has an ester and may undergo hydrolysis at high or low pH.

>  <s_lp_Force_Field>  (178) 
OPLS3e

>  <r_lp_Energy>  (178) 
77.6012

>  <b_lp_Chiralities_Consistent>  (178) 
1

>  <s_lp_Variant>  (178) 
49:0-1

>  <s_i_glide_gridfile>  (178) 
pfpi4k_grid

>  <i_i_glide_lignum>  (178) 
27

>  <i_i_glide_rotatable_bonds>  (178) 
5

>  <r_i_docking_score>  (178) 
-3.47625

>  <r_i_glide_ligand_efficiency>  (178) 
-0.158011

>  <r_i_glide_ligand_efficiency_sa>  (178) 
-0.442754

>  <r_i_glide_ligand_efficiency_ln>  (178) 
-0.849722

>  <r_i_glide_gscore>  (178) 
-3.47625

>  <r_i_glide_lipo>  (178) 
-0.164874

>  <r_i_glide_hbond>  (178) 
-0.16

>  <r_i_glide_metal>  (178) 
-0

>  <r_i_glide_rewards>  (178) 
-1.31719

>  <r_i_glide_evdw>  (178) 
-17.9817

>  <r_i_glide_ecoul>  (178) 
-8.3538

>  <r_i_glide_erotb>  (178) 
0.389205

>  <r_i_glide_esite>  (178) 
-0.071233

>  <r_i_glide_emodel>  (178) 
-32.5595

>  <r_i_glide_energy>  (178) 
-26.3355

>  <r_i_glide_einternal>  (178) 
0.466209

>  <r_i_glide_intrahb_reward>  (178) 
-0

>  <i_i_glide_confnum>  (178) 
2

>  <i_i_glide_posenum>  (178) 
9

>  <r_i_glide_eff_state_penalty>  (178) 
0

>  <ligand_id>  (178) 
49

>  <original_smiles>  (178) 
C=C1C(=O)OC2CC(C)(O)C3(O)C=C2C1(C)C3CC(=O)OC

>  <smiles>  (178) 
[H]OC12C([H])=C3C([H])(OC(=O)C(=C([H])[H])C3(C([H])([H])[H])C1([H])C([H])([H])C(=O)OC([H])([H])[H])C([H])([H])C2(O[H])C([H])([H])[H]

$$$$
49:0:1
     RDKit          3D

 42 44  0  0  1  0  0  0  0  0999 V2000
    1.1522    0.6201    1.7030 C   0  0  0  0  0  0  0  0  0  0  0  0
    1.5718    0.9410    2.9395 C   0  0  0  0  0  0  0  0  0  0  0  0
    3.0221    0.7932    3.2223 C   0  0  0  0  0  0  0  0  0  0  0  0
    3.7659    0.0599    2.5638 O   0  0  0  0  0  0  0  0  0  0  0  0
    3.4908    1.5031    4.2619 O   0  0  0  0  0  0  0  0  0  0  0  0
    2.6871    2.4437    4.9597 C   0  0  1  0  0  0  0  0  0  0  0  0
    2.5069    3.7651    4.1243 C   0  0  0  0  0  0  0  0  0  0  0  0
    1.1981    4.5794    4.4456 C   0  0  1  0  0  0  0  0  0  0  0  0
    1.5042    5.6714    5.4923 C   0  0  0  0  0  0  0  0  0  0  0  0
    0.8422    5.3311    3.2855 O   0  0  0  0  0  0  0  0  0  0  0  0
    0.0111    3.6141    4.8512 C   0  0  2  0  0  0  0  0  0  0  0  0
   -1.0648    4.3326    5.4042 O   0  0  0  0  0  0  0  0  0  0  0  0
    0.5879    2.7580    5.9266 C   0  0  0  0  0  0  0  0  0  0  0  0
    1.3270    1.8674    5.2782 C   0  0  0  0  0  0  0  0  0  0  0  0
    0.5939    1.3496    4.0593 C   0  0  2  0  0  0  0  0  0  0  0  0
   -0.1729    0.0782    4.5067 C   0  0  0  0  0  0  0  0  0  0  0  0
   -0.3182    2.5872    3.6926 C   0  0  1  0  0  0  0  0  0  0  0  0
   -1.8097    2.2458    3.4117 C   0  0  0  0  0  0  0  0  0  0  0  0
   -2.6926    3.3830    2.8726 C   0  0  0  0  0  0  0  0  0  0  0  0
   -2.4278    4.5576    3.0702 O   0  0  0  0  0  0  0  0  0  0  0  0
   -3.7470    2.9507    2.1553 O   0  0  0  0  0  0  0  0  0  0  0  0
   -4.6971    3.8801    1.6660 C   0  0  0  0  0  0  0  0  0  0  0  0
    0.1018    0.6550    1.4434 H   0  0  0  0  0  0  0  0  0  0  0  0
    1.8451    0.2866    0.9326 H   0  0  0  0  0  0  0  0  0  0  0  0
    3.1476    2.6890    5.9225 H   0  0  0  0  0  0  0  0  0  0  0  0
    3.3838    4.3920    4.2501 H   0  0  0  0  0  0  0  0  0  0  0  0
    2.5170    3.5395    3.0555 H   0  0  0  0  0  0  0  0  0  0  0  0
    1.8521    5.2724    6.4373 H   0  0  0  0  0  0  0  0  0  0  0  0
    0.6305    6.2859    5.6869 H   0  0  0  0  0  0  0  0  0  0  0  0
    2.2742    6.3486    5.1284 H   0  0  0  0  0  0  0  0  0  0  0  0
    0.6049    4.7690    2.5558 H   0  0  0  0  0  0  0  0  0  0  0  0
   -1.7727    3.7246    5.5172 H   0  0  0  0  0  0  0  0  0  0  0  0
    1.0223    3.3366    6.7260 H   0  0  0  0  0  0  0  0  0  0  0  0
    0.5187   -0.6899    4.8719 H   0  0  0  0  0  0  0  0  0  0  0  0
   -0.7392   -0.3683    3.6868 H   0  0  0  0  0  0  0  0  0  0  0  0
   -0.8610    0.2898    5.3283 H   0  0  0  0  0  0  0  0  0  0  0  0
    0.0387    2.9746    2.7417 H   0  0  0  0  0  0  0  0  0  0  0  0
   -1.8309    1.4340    2.6971 H   0  0  0  0  0  0  0  0  0  0  0  0
   -2.2808    1.8584    4.3003 H   0  0  0  0  0  0  0  0  0  0  0  0
   -5.3899    3.3751    1.0060 H   0  0  0  0  0  0  0  0  0  0  0  0
   -4.2203    4.6856    1.1039 H   0  0  0  0  0  0  0  0  0  0  0  0
   -5.2301    4.3351    2.5050 H   0  0  0  0  0  0  0  0  0  0  0  0
  1  2  2  0
  1 23  1  0
  1 24  1  0
  2 15  1  0
  2  3  1  0
  3  4  2  0
  3  5  1  0
  5  6  1  0
  6 14  1  0
  6  7  1  0
  6 25  1  1
  7  8  1  0
  7 26  1  0
  7 27  1  0
  8  9  1  0
  8 10  1  6
  8 11  1  0
  9 28  1  0
  9 29  1  0
  9 30  1  0
 10 31  1  0
 11 17  1  0
 11 12  1  1
 11 13  1  0
 12 32  1  0
 13 14  2  0
 13 33  1  0
 14 15  1  0
 15 16  1  1
 15 17  1  0
 16 34  1  0
 16 35  1  0
 16 36  1  0
 17 18  1  0
 17 37  1  6
 18 19  1  0
 18 38  1  0
 18 39  1  0
 19 20  2  0
 19 21  1  0
 21 22  1  0
 22 40  1  0
 22 41  1  0
 22 42  1  0
M  END
>  <i_m_ct_stereo_status>  (179) 
1

>  <s_m_source_file>  (179) 
/var/tmp/pbs.5076255.sched01/tmpck0ladl8/45htcshi4i.sdf

>  <i_m_source_file_index>  (179) 
27

>  <i_lp_mmshare_version>  (179) 
48012

>  <i_f3d_flags>  (179) 
0

>  <s_epik_input>  (179) 
W0NIM11PQyg9TylbQ0gyXVtDQEBIXTFbQ0BAXShbQ0gzXSkoQyg9W0NIMl0pQyg9TylPMilDKD1bQ0hdMylbQ0BASF0yW0NIMl1bQ0BAXShbQ0gzXSkoW09IXSlbQ0BAXTEzW09IXQ==

>  <s_epik_cmdline>  (179) 
J2VwaWtfcHl0aG9uJywgJy1waHQnLCAnMi4wJywgJy1waCcsICc3LjAnLCAnLXRuJywgJzgnLCAnLW1hJywgJzIwMCcsICctaW1hZScsICc8aW5maWxlLm1hZT4nLCAnLW9tYWUnLCAnPG91dGZpbGUubWFlPic=

>  <r_lp_tautomer_probability>  (179) 
1

>  <r_epik_Ionization_Penalty>  (179) 
3.29831e-06

>  <r_epik_Ionization_Penalty_Charging>  (179) 
0

>  <r_epik_Ionization_Penalty_Neutral>  (179) 
3.29831e-06

>  <r_epik_State_Penalty>  (179) 
-0

>  <r_epik_Charging_Adjusted_Penalty>  (179) 
0

>  <i_epik_Tot_Q>  (179) 
0

>  <i_epik_Tot_abs_Q>  (179) 
0

>  <s_epik_Chemistry_Notes>  (179) 
This compound has an ester and may undergo hydrolysis at high or low pH.

>  <s_lp_Force_Field>  (179) 
OPLS3e

>  <r_lp_Energy>  (179) 
77.6012

>  <b_lp_Chiralities_Consistent>  (179) 
1

>  <s_lp_Variant>  (179) 
49:0-1

>  <s_i_glide_gridfile>  (179) 
pfpi4k_grid

>  <i_i_glide_lignum>  (179) 
27

>  <i_i_glide_rotatable_bonds>  (179) 
5

>  <r_i_docking_score>  (179) 
-3.40274

>  <r_i_glide_ligand_efficiency>  (179) 
-0.15467

>  <r_i_glide_ligand_efficiency_sa>  (179) 
-0.433391

>  <r_i_glide_ligand_efficiency_ln>  (179) 
-0.831754

>  <r_i_glide_gscore>  (179) 
-3.40274

>  <r_i_glide_lipo>  (179) 
-0.264627

>  <r_i_glide_hbond>  (179) 
-0.16

>  <r_i_glide_metal>  (179) 
-0

>  <r_i_glide_rewards>  (179) 
-1.30687

>  <r_i_glide_evdw>  (179) 
-20.4024

>  <r_i_glide_ecoul>  (179) 
-6.60864

>  <r_i_glide_erotb>  (179) 
0.389205

>  <r_i_glide_esite>  (179) 
-0.0490369

>  <r_i_glide_emodel>  (179) 
-32.4142

>  <r_i_glide_energy>  (179) 
-27.011

>  <r_i_glide_einternal>  (179) 
0.745564

>  <r_i_glide_intrahb_reward>  (179) 
-0

>  <i_i_glide_confnum>  (179) 
1

>  <i_i_glide_posenum>  (179) 
28

>  <r_i_glide_eff_state_penalty>  (179) 
0

>  <ligand_id>  (179) 
49

>  <original_smiles>  (179) 
C=C1C(=O)OC2CC(C)(O)C3(O)C=C2C1(C)C3CC(=O)OC

>  <smiles>  (179) 
[H]OC12C([H])=C3C([H])(OC(=O)C(=C([H])[H])C3(C([H])([H])[H])C1([H])C([H])([H])C(=O)OC([H])([H])[H])C([H])([H])C2(O[H])C([H])([H])[H]

$$$$
49:0:2
     RDKit          3D

 42 44  0  0  1  0  0  0  0  0999 V2000
    2.5239   -3.0594   -2.8646 C   0  0  0  0  0  0  0  0  0  0  0  0
    3.5510   -2.4762   -2.2399 C   0  0  0  0  0  0  0  0  0  0  0  0
    4.0051   -1.1715   -2.7813 C   0  0  0  0  0  0  0  0  0  0  0  0
    3.7938   -0.7934   -3.9351 O   0  0  0  0  0  0  0  0  0  0  0  0
    4.7159   -0.4005   -1.9297 O   0  0  0  0  0  0  0  0  0  0  0  0
    4.9084   -0.7478   -0.5588 C   0  0  1  0  0  0  0  0  0  0  0  0
    3.6219   -0.5021    0.3122 C   0  0  0  0  0  0  0  0  0  0  0  0
    3.4473   -1.4028    1.5852 C   0  0  1  0  0  0  0  0  0  0  0  0
    3.9856   -0.6460    2.8247 C   0  0  0  0  0  0  0  0  0  0  0  0
    2.0514   -1.5564    1.7889 O   0  0  0  0  0  0  0  0  0  0  0  0
    4.1158   -2.8172    1.3660 C   0  0  2  0  0  0  0  0  0  0  0  0
    4.2146   -3.4929    2.5855 O   0  0  0  0  0  0  0  0  0  0  0  0
    5.4915   -2.5130    0.8566 C   0  0  0  0  0  0  0  0  0  0  0  0
    5.2980   -2.1897   -0.4177 C   0  0  0  0  0  0  0  0  0  0  0  0
    4.3283   -3.1359   -1.0842 C   0  0  2  0  0  0  0  0  0  0  0  0
    5.2142   -4.2411   -1.6852 C   0  0  0  0  0  0  0  0  0  0  0  0
    3.4406   -3.5762    0.1448 C   0  0  1  0  0  0  0  0  0  0  0  0
    3.2331   -5.1192    0.2480 C   0  0  0  0  0  0  0  0  0  0  0  0
    2.2270   -5.5982    1.2897 C   0  0  0  0  0  0  0  0  0  0  0  0
    1.0932   -5.9310    0.9607 O   0  0  0  0  0  0  0  0  0  0  0  0
    2.6956   -5.6251    2.5263 O   0  0  0  0  0  0  0  0  0  0  0  0
    1.8570   -5.8687    3.6342 C   0  0  0  0  0  0  0  0  0  0  0  0
    2.1689   -4.0328   -2.5625 H   0  0  0  0  0  0  0  0  0  0  0  0
    2.0209   -2.5757   -3.7021 H   0  0  0  0  0  0  0  0  0  0  0  0
    5.7373   -0.1865   -0.1307 H   0  0  0  0  0  0  0  0  0  0  0  0
    3.5636    0.5498    0.5824 H   0  0  0  0  0  0  0  0  0  0  0  0
    2.7552   -0.6958   -0.3149 H   0  0  0  0  0  0  0  0  0  0  0  0
    5.0499   -0.4060    2.7511 H   0  0  0  0  0  0  0  0  0  0  0  0
    3.8487   -1.2229    3.7397 H   0  0  0  0  0  0  0  0  0  0  0  0
    3.4629    0.3005    2.9782 H   0  0  0  0  0  0  0  0  0  0  0  0
    1.5925   -1.3443    0.9800 H   0  0  0  0  0  0  0  0  0  0  0  0
    4.3761   -4.4101    2.4148 H   0  0  0  0  0  0  0  0  0  0  0  0
    6.0346   -1.8306    1.4986 H   0  0  0  0  0  0  0  0  0  0  0  0
    5.8979   -3.8478   -2.4329 H   0  0  0  0  0  0  0  0  0  0  0  0
    4.6235   -5.0075   -2.1988 H   0  0  0  0  0  0  0  0  0  0  0  0
    5.7972   -4.7498   -0.9219 H   0  0  0  0  0  0  0  0  0  0  0  0
    2.4351   -3.1792   -0.0233 H   0  0  0  0  0  0  0  0  0  0  0  0
    2.8716   -5.4543   -0.7114 H   0  0  0  0  0  0  0  0  0  0  0  0
    4.1672   -5.6249    0.4482 H   0  0  0  0  0  0  0  0  0  0  0  0
    2.3966   -5.6116    4.5405 H   0  0  0  0  0  0  0  0  0  0  0  0
    1.5294   -6.9043    3.7352 H   0  0  0  0  0  0  0  0  0  0  0  0
    0.9761   -5.2408    3.6217 H   0  0  0  0  0  0  0  0  0  0  0  0
  1  2  2  0
  1 23  1  0
  1 24  1  0
  2 15  1  0
  2  3  1  0
  3  4  2  0
  3  5  1  0
  5  6  1  0
  6 14  1  0
  6  7  1  0
  6 25  1  1
  7  8  1  0
  7 26  1  0
  7 27  1  0
  8  9  1  0
  8 10  1  1
  8 11  1  0
  9 28  1  0
  9 29  1  0
  9 30  1  0
 10 31  1  0
 11 17  1  0
 11 12  1  1
 11 13  1  0
 12 32  1  0
 13 14  2  0
 13 33  1  0
 14 15  1  0
 15 16  1  6
 15 17  1  0
 16 34  1  0
 16 35  1  0
 16 36  1  0
 17 18  1  0
 17 37  1  6
 18 19  1  0
 18 38  1  0
 18 39  1  0
 19 20  2  0
 19 21  1  0
 21 22  1  0
 22 40  1  0
 22 41  1  0
 22 42  1  0
M  END
>  <i_m_ct_stereo_status>  (180) 
1

>  <s_m_source_file>  (180) 
/var/tmp/pbs.5076255.sched01/tmpck0ladl8/45htcshi4i.sdf

>  <i_m_source_file_index>  (180) 
27

>  <i_lp_mmshare_version>  (180) 
48012

>  <i_f3d_flags>  (180) 
0

>  <s_epik_input>  (180) 
W0NIM11PQyg9TylbQ0gyXVtDQEBIXTFbQ0BAXShbQ0gzXSkoQyg9W0NIMl0pQyg9TylPMilDKD1bQ0hdMylbQ0BASF0yW0NIMl1bQ0BAXShbQ0gzXSkoW09IXSlbQ0BAXTEzW09IXQ==

>  <s_epik_cmdline>  (180) 
J2VwaWtfcHl0aG9uJywgJy1waHQnLCAnMi4wJywgJy1waCcsICc3LjAnLCAnLXRuJywgJzgnLCAnLW1hJywgJzIwMCcsICctaW1hZScsICc8aW5maWxlLm1hZT4nLCAnLW9tYWUnLCAnPG91dGZpbGUubWFlPic=

>  <r_lp_tautomer_probability>  (180) 
1

>  <r_epik_Ionization_Penalty>  (180) 
3.29831e-06

>  <r_epik_Ionization_Penalty_Charging>  (180) 
0

>  <r_epik_Ionization_Penalty_Neutral>  (180) 
3.29831e-06

>  <r_epik_State_Penalty>  (180) 
-0

>  <r_epik_Charging_Adjusted_Penalty>  (180) 
0

>  <i_epik_Tot_Q>  (180) 
0

>  <i_epik_Tot_abs_Q>  (180) 
0

>  <s_epik_Chemistry_Notes>  (180) 
This compound has an ester and may undergo hydrolysis at high or low pH.

>  <s_lp_Force_Field>  (180) 
OPLS3e

>  <r_lp_Energy>  (180) 
77.6012

>  <b_lp_Chiralities_Consistent>  (180) 
1

>  <s_lp_Variant>  (180) 
49:0-1

>  <s_i_glide_gridfile>  (180) 
pfpi4k_grid

>  <i_i_glide_lignum>  (180) 
27

>  <i_i_glide_rotatable_bonds>  (180) 
5

>  <r_i_docking_score>  (180) 
-3.40188

>  <r_i_glide_ligand_efficiency>  (180) 
-0.154631

>  <r_i_glide_ligand_efficiency_sa>  (180) 
-0.433282

>  <r_i_glide_ligand_efficiency_ln>  (180) 
-0.831545

>  <r_i_glide_gscore>  (180) 
-3.40188

>  <r_i_glide_lipo>  (180) 
-0.167496

>  <r_i_glide_hbond>  (180) 
-0.16

>  <r_i_glide_metal>  (180) 
-0

>  <r_i_glide_rewards>  (180) 
-1.30687

>  <r_i_glide_evdw>  (180) 
-19.9899

>  <r_i_glide_ecoul>  (180) 
-7.41084

>  <r_i_glide_erotb>  (180) 
0.389205

>  <r_i_glide_esite>  (180) 
-0.0456047

>  <r_i_glide_emodel>  (180) 
-32.3123

>  <r_i_glide_energy>  (180) 
-27.4008

>  <r_i_glide_einternal>  (180) 
1.21514

>  <r_i_glide_intrahb_reward>  (180) 
-0

>  <i_i_glide_confnum>  (180) 
1

>  <i_i_glide_posenum>  (180) 
40

>  <r_i_glide_eff_state_penalty>  (180) 
0

>  <ligand_id>  (180) 
49

>  <original_smiles>  (180) 
C=C1C(=O)OC2CC(C)(O)C3(O)C=C2C1(C)C3CC(=O)OC

>  <smiles>  (180) 
[H]OC12C([H])=C3C([H])(OC(=O)C(=C([H])[H])C3(C([H])([H])[H])C1([H])C([H])([H])C(=O)OC([H])([H])[H])C([H])([H])C2(O[H])C([H])([H])[H]

$$$$
50:0:0
     RDKit          3D

 70 76  0  0  1  0  0  0  0  0999 V2000
    2.7799   -0.9675    1.8446 C   0  0  0  0  0  0  0  0  0  0  0  0
    3.7959   -1.4973    0.8191 C   0  0  2  0  0  0  0  0  0  0  0  0
    3.2264   -2.4769   -0.2009 C   0  0  1  0  0  0  0  0  0  0  0  0
    3.0243   -1.8285   -1.4329 O   0  0  0  0  0  0  0  0  0  0  0  0
    4.2531   -3.6249   -0.2761 C   0  0  2  0  0  0  0  0  0  0  0  0
    4.8064   -3.8524   -1.6917 C   0  0  0  0  0  0  0  0  0  0  0  0
    3.7001   -4.9423    0.3167 C   0  0  0  0  0  0  0  0  0  0  0  0
    3.3184   -4.9121    1.8143 C   0  0  2  0  0  0  0  0  0  0  0  0
    4.4122   -4.3457    2.7701 C   0  0  1  0  0  0  0  0  0  0  0  0
    5.8109   -5.0417    2.7768 C   0  0  0  0  0  0  0  0  0  0  0  0
    6.1814   -5.9382    4.0122 C   0  0  1  0  0  0  0  0  0  0  0  0
    6.2905   -5.0722    5.2978 C   0  0  0  0  0  0  0  0  0  0  0  0
    5.1133   -7.0212    4.1790 C   0  0  0  0  0  0  0  0  0  0  0  0
    4.2321   -6.9419    5.0495 O   0  0  0  0  0  0  0  0  0  0  0  0
    5.3906   -8.1247    3.1908 C   0  0  2  0  0  0  0  0  0  0  0  0
    5.6466   -9.4919    3.8509 C   0  0  0  0  0  0  0  0  0  0  0  0
    7.0601   -9.5152    3.2815 C   0  0  0  0  0  0  0  0  0  0  0  0
    6.8963   -8.0198    2.9321 C   0  0  2  0  0  0  0  0  0  0  0  0
    7.4600   -6.8392    3.7644 C   0  0  0  0  0  0  0  0  0  0  0  0
    8.5820   -6.1198    2.9976 C   0  0  0  0  0  0  0  0  0  0  0  0
    8.0925   -7.3476    5.0850 C   0  0  0  0  0  0  0  0  0  0  0  0
    4.4542   -8.0258    1.9388 C   0  0  1  0  0  0  0  0  0  0  0  0
    4.4500   -9.2143    1.1850 O   0  0  0  0  0  0  0  0  0  0  0  0
    3.0058   -7.6060    2.2324 C   0  0  2  0  0  0  0  0  0  0  0  0
    2.1914   -8.6338    2.8617 O   0  0  0  0  0  0  0  0  0  0  0  0
    1.6714   -7.9951    1.6648 C   0  0  1  0  0  0  0  0  0  0  0  0
    1.2069   -6.5676    1.7471 C   0  0  0  0  0  0  0  0  0  0  0  0
    2.5587   -6.1436    2.3764 C   0  0  2  0  0  0  0  0  0  0  0  0
    4.5184   -2.9087    2.6644 O   0  0  0  0  0  0  0  0  0  0  0  0
    4.9347   -2.3014    1.4663 C   0  0  2  0  0  0  0  0  0  0  0  0
    6.1347   -1.4139    1.7770 C   0  0  0  0  0  0  0  0  0  0  0  0
    5.3499   -3.2048    0.5072 O   0  0  0  0  0  0  0  0  0  0  0  0
    2.2724   -1.7803    2.3664 H   0  0  0  0  0  0  0  0  0  0  0  0
    2.0116   -0.3737    1.3495 H   0  0  0  0  0  0  0  0  0  0  0  0
    3.2589   -0.3405    2.5958 H   0  0  0  0  0  0  0  0  0  0  0  0
    4.2540   -0.6592    0.2827 H   0  0  0  0  0  0  0  0  0  0  0  0
    2.2455   -2.8337    0.1024 H   0  0  0  0  0  0  0  0  0  0  0  0
    2.1465   -1.4154   -1.3534 H   0  0  0  0  0  0  0  0  0  0  0  0
    4.0231   -4.1917   -2.3702 H   0  0  0  0  0  0  0  0  0  0  0  0
    5.5574   -4.6411   -1.6463 H   0  0  0  0  0  0  0  0  0  0  0  0
    5.2814   -2.9617   -2.1280 H   0  0  0  0  0  0  0  0  0  0  0  0
    2.8292   -5.1998   -0.2772 H   0  0  0  0  0  0  0  0  0  0  0  0
    4.4356   -5.7056    0.1187 H   0  0  0  0  0  0  0  0  0  0  0  0
    2.5972   -4.0984    1.8658 H   0  0  0  0  0  0  0  0  0  0  0  0
    4.0021   -4.4428    3.7743 H   0  0  0  0  0  0  0  0  0  0  0  0
    5.9394   -5.6095    1.8486 H   0  0  0  0  0  0  0  0  0  0  0  0
    6.5707   -4.2775    2.7100 H   0  0  0  0  0  0  0  0  0  0  0  0
    7.2040   -4.5047    5.3011 H   0  0  0  0  0  0  0  0  0  0  0  0
    6.3050   -5.6789    6.2090 H   0  0  0  0  0  0  0  0  0  0  0  0
    5.4592   -4.3797    5.3913 H   0  0  0  0  0  0  0  0  0  0  0  0
    5.6898   -9.4506    4.9433 H   0  0  0  0  0  0  0  0  0  0  0  0
    5.0508  -10.3396    3.4961 H   0  0  0  0  0  0  0  0  0  0  0  0
    7.8392   -9.7671    3.9982 H   0  0  0  0  0  0  0  0  0  0  0  0
    7.1283  -10.1225    2.3757 H   0  0  0  0  0  0  0  0  0  0  0  0
    7.0876   -7.9153    1.8613 H   0  0  0  0  0  0  0  0  0  0  0  0
    9.4445   -6.7677    2.8774 H   0  0  0  0  0  0  0  0  0  0  0  0
    8.9297   -5.2460    3.5486 H   0  0  0  0  0  0  0  0  0  0  0  0
    8.2827   -5.7894    2.0068 H   0  0  0  0  0  0  0  0  0  0  0  0
    8.9353   -8.0101    4.8868 H   0  0  0  0  0  0  0  0  0  0  0  0
    7.3799   -7.8948    5.7094 H   0  0  0  0  0  0  0  0  0  0  0  0
    8.4950   -6.5277    5.6882 H   0  0  0  0  0  0  0  0  0  0  0  0
    4.8738   -7.3398    1.2183 H   0  0  0  0  0  0  0  0  0  0  0  0
    4.1404   -9.9002    1.7654 H   0  0  0  0  0  0  0  0  0  0  0  0
    1.6468   -8.4880    0.6887 H   0  0  0  0  0  0  0  0  0  0  0  0
    1.0074   -6.1195    0.7929 H   0  0  0  0  0  0  0  0  0  0  0  0
    0.3851   -6.3471    2.4420 H   0  0  0  0  0  0  0  0  0  0  0  0
    2.3404   -5.9256    3.4238 H   0  0  0  0  0  0  0  0  0  0  0  0
    6.9413   -2.0766    2.0555 H   0  0  0  0  0  0  0  0  0  0  0  0
    5.8929   -0.7013    2.5695 H   0  0  0  0  0  0  0  0  0  0  0  0
    6.4756   -0.8798    0.8906 H   0  0  0  0  0  0  0  0  0  0  0  0
  1  2  1  0
  1 33  1  0
  1 34  1  0
  1 35  1  0
  2 30  1  0
  2  3  1  0
  2 36  1  6
  3  4  1  0
  3  5  1  0
  3 37  1  1
  4 38  1  0
  5 32  1  0
  5  6  1  6
  5  7  1  0
  6 39  1  0
  6 40  1  0
  6 41  1  0
  7  8  1  0
  7 42  1  0
  7 43  1  0
  8 28  1  0
  8  9  1  0
  8 44  1  6
  9 10  1  0
  9 29  1  0
  9 45  1  1
 10 11  1  0
 10 46  1  0
 10 47  1  0
 11 19  1  0
 11 12  1  1
 11 13  1  0
 12 48  1  0
 12 49  1  0
 12 50  1  0
 13 14  2  0
 13 15  1  0
 15 18  1  0
 15 16  1  1
 15 22  1  0
 16 17  1  0
 16 51  1  0
 16 52  1  0
 17 18  1  0
 17 53  1  0
 17 54  1  0
 18 19  1  0
 18 55  1  6
 19 20  1  0
 19 21  1  0
 20 56  1  0
 20 57  1  0
 20 58  1  0
 21 59  1  0
 21 60  1  0
 21 61  1  0
 22 23  1  0
 22 24  1  0
 22 62  1  6
 23 63  1  0
 24 26  1  0
 24 28  1  0
 24 25  1  1
 25 26  1  0
 26 27  1  0
 26 64  1  6
 27 28  1  0
 27 65  1  0
 27 66  1  0
 28 67  1  1
 29 30  1  0
 30 31  1  1
 30 32  1  0
 31 68  1  0
 31 69  1  0
 31 70  1  0
M  END
>  <i_m_ct_stereo_status>  (181) 
1

>  <s_m_source_file>  (181) 
/var/tmp/pbs.5076255.sched01/tmpck0ladl8/45htcshi4i.sdf

>  <i_m_source_file_index>  (181) 
28

>  <i_lp_mmshare_version>  (181) 
48012

>  <i_f3d_flags>  (181) 
0

>  <s_epik_input>  (181) 
TzFbQ0BdKE8yKShbQ0gzXSlbQ0BIXShbQ0gzXSlbQ0BASF0oW09IXSlbQ0BdMihbQ0gzXSlbQ0gyXVtDQEBIXShbQ0BASF0zW0NAXTQoW0NAQEhdNVtPSF0pW0NAQEhdKE80KVtDSDJdMylbQ0BIXTFbQ0gyXVtDQEBdKFtDSDNdKShDNj1PKUMoW0NIM10pKFtDSDNdKVtDQEhdKFtDQF01NjcpW0NIMl1bQ0gyXTc=

>  <s_epik_cmdline>  (181) 
J2VwaWtfcHl0aG9uJywgJy1waHQnLCAnMi4wJywgJy1waCcsICc3LjAnLCAnLXRuJywgJzgnLCAnLW1hJywgJzIwMCcsICctaW1hZScsICc8aW5maWxlLm1hZT4nLCAnLW9tYWUnLCAnPG91dGZpbGUubWFlPic=

>  <r_lp_tautomer_probability>  (181) 
1

>  <r_epik_Ionization_Penalty>  (181) 
9.62023e-08

>  <r_epik_Ionization_Penalty_Charging>  (181) 
0

>  <r_epik_Ionization_Penalty_Neutral>  (181) 
9.62023e-08

>  <r_epik_State_Penalty>  (181) 
-0

>  <r_epik_Charging_Adjusted_Penalty>  (181) 
0

>  <i_epik_Tot_Q>  (181) 
0

>  <i_epik_Tot_abs_Q>  (181) 
0

>  <s_lp_Force_Field>  (181) 
OPLS3e

>  <r_lp_Energy>  (181) 
52.4065

>  <b_lp_Chiralities_Consistent>  (181) 
1

>  <s_lp_Variant>  (181) 
50:0-1

>  <s_i_glide_gridfile>  (181) 
pfpi4k_grid

>  <i_i_glide_lignum>  (181) 
28

>  <i_i_glide_rotatable_bonds>  (181) 
2

>  <r_i_docking_score>  (181) 
-2.86125

>  <r_i_glide_ligand_efficiency>  (181) 
-0.089414

>  <r_i_glide_ligand_efficiency_sa>  (181) 
-0.283872

>  <r_i_glide_ligand_efficiency_ln>  (181) 
-0.640712

>  <r_i_glide_gscore>  (181) 
-2.86125

>  <r_i_glide_lipo>  (181) 
-0.319599

>  <r_i_glide_hbond>  (181) 
0

>  <r_i_glide_metal>  (181) 
-0

>  <r_i_glide_rewards>  (181) 
-0.414712

>  <r_i_glide_evdw>  (181) 
-21.6534

>  <r_i_glide_ecoul>  (181) 
-6.96179

>  <r_i_glide_erotb>  (181) 
0

>  <r_i_glide_esite>  (181) 
0

>  <r_i_glide_emodel>  (181) 
-32.2873

>  <r_i_glide_energy>  (181) 
-28.6152

>  <r_i_glide_einternal>  (181) 
1.08973

>  <r_i_glide_intrahb_reward>  (181) 
-0

>  <i_i_glide_confnum>  (181) 
1

>  <i_i_glide_posenum>  (181) 
9

>  <r_i_glide_eff_state_penalty>  (181) 
0

>  <ligand_id>  (181) 
50

>  <original_smiles>  (181) 
CC1C(O)C2(C)CC3C(CC4(C)C(=O)C5(CCC5C4(C)C)C(O)C45OC4CC35)OC1(C)O2

>  <smiles>  (181) 
[H]OC1([H])C([H])(C([H])([H])[H])C2(C([H])([H])[H])OC3([H])C([H])([H])C4(C([H])([H])[H])C(=O)C5(C([H])([H])C([H])([H])C5([H])C4(C([H])([H])[H])C([H])([H])[H])C([H])(O[H])C45OC4([H])C([H])([H])C5([H])C3([H])C([H])([H])C1(C([H])([H])[H])O2

$$$$
50:0:1
     RDKit          3D

 70 76  0  0  1  0  0  0  0  0999 V2000
    6.8663   -9.0894    1.4540 C   0  0  0  0  0  0  0  0  0  0  0  0
    7.4479   -8.1119    2.4934 C   0  0  2  0  0  0  0  0  0  0  0  0
    6.7521   -8.1734    3.8467 C   0  0  1  0  0  0  0  0  0  0  0  0
    7.5634   -8.8898    4.7645 O   0  0  0  0  0  0  0  0  0  0  0  0
    6.5370   -6.6884    4.2317 C   0  0  2  0  0  0  0  0  0  0  0  0
    7.1380   -6.2891    5.5958 C   0  0  0  0  0  0  0  0  0  0  0  0
    5.0551   -6.2720    4.1942 C   0  0  0  0  0  0  0  0  0  0  0  0
    4.3529   -6.3752    2.8188 C   0  0  2  0  0  0  0  0  0  0  0  0
    5.0855   -5.6923    1.6258 C   0  0  1  0  0  0  0  0  0  0  0  0
    5.4195   -4.1712    1.7259 C   0  0  0  0  0  0  0  0  0  0  0  0
    4.5666   -3.1854    0.8575 C   0  0  1  0  0  0  0  0  0  0  0  0
    4.8585   -3.4214   -0.6364 C   0  0  0  0  0  0  0  0  0  0  0  0
    3.0902   -3.3922    1.1988 C   0  0  0  0  0  0  0  0  0  0  0  0
    2.3711   -4.0641    0.4382 O   0  0  0  0  0  0  0  0  0  0  0  0
    2.7752   -2.6653    2.4792 C   0  0  2  0  0  0  0  0  0  0  0  0
    1.7086   -1.5511    2.3206 C   0  0  0  0  0  0  0  0  0  0  0  0
    2.7293   -0.4924    2.7294 C   0  0  0  0  0  0  0  0  0  0  0  0
    3.8332   -1.5473    2.5308 C   0  0  2  0  0  0  0  0  0  0  0  0
    4.7462   -1.6764    1.2897 C   0  0  0  0  0  0  0  0  0  0  0  0
    6.1979   -1.3177    1.6288 C   0  0  0  0  0  0  0  0  0  0  0  0
    4.3046   -0.6840    0.1789 C   0  0  0  0  0  0  0  0  0  0  0  0
    2.7093   -3.6463    3.6935 C   0  0  1  0  0  0  0  0  0  0  0  0
    2.0488   -3.0643    4.7971 O   0  0  0  0  0  0  0  0  0  0  0  0
    2.0610   -5.0082    3.4213 C   0  0  2  0  0  0  0  0  0  0  0  0
    0.6255   -4.9772    3.3222 O   0  0  0  0  0  0  0  0  0  0  0  0
    1.1974   -5.9323    4.2435 C   0  0  1  0  0  0  0  0  0  0  0  0
    1.9232   -7.1156    3.6665 C   0  0  0  0  0  0  0  0  0  0  0  0
    2.8120   -6.2024    2.8138 C   0  0  2  0  0  0  0  0  0  0  0  0
    6.2162   -6.4676    1.2143 O   0  0  0  0  0  0  0  0  0  0  0  0
    7.3126   -6.6310    2.0664 C   0  0  2  0  0  0  0  0  0  0  0  0
    8.5514   -6.1147    1.3242 C   0  0  0  0  0  0  0  0  0  0  0  0
    7.2196   -5.9190    3.2550 O   0  0  0  0  0  0  0  0  0  0  0  0
    5.7989   -8.9412    1.2898 H   0  0  0  0  0  0  0  0  0  0  0  0
    6.9905  -10.1206    1.7869 H   0  0  0  0  0  0  0  0  0  0  0  0
    7.3798   -8.9992    0.4961 H   0  0  0  0  0  0  0  0  0  0  0  0
    8.5131   -8.3021    2.6416 H   0  0  0  0  0  0  0  0  0  0  0  0
    5.8086   -8.7158    3.7898 H   0  0  0  0  0  0  0  0  0  0  0  0
    7.6107   -9.7894    4.4919 H   0  0  0  0  0  0  0  0  0  0  0  0
    6.6511   -6.8204    6.4166 H   0  0  0  0  0  0  0  0  0  0  0  0
    7.0016   -5.2205    5.7712 H   0  0  0  0  0  0  0  0  0  0  0  0
    8.2124   -6.4908    5.6532 H   0  0  0  0  0  0  0  0  0  0  0  0
    4.5364   -6.8986    4.9132 H   0  0  0  0  0  0  0  0  0  0  0  0
    4.9998   -5.2633    4.5734 H   0  0  0  0  0  0  0  0  0  0  0  0
    4.4897   -7.4212    2.5568 H   0  0  0  0  0  0  0  0  0  0  0  0
    4.4392   -5.8340    0.7629 H   0  0  0  0  0  0  0  0  0  0  0  0
    5.4058   -3.8745    2.7721 H   0  0  0  0  0  0  0  0  0  0  0  0
    6.4529   -4.0236    1.4168 H   0  0  0  0  0  0  0  0  0  0  0  0
    5.8511   -3.0520   -0.8892 H   0  0  0  0  0  0  0  0  0  0  0  0
    4.1299   -2.9238   -1.2874 H   0  0  0  0  0  0  0  0  0  0  0  0
    4.8240   -4.4801   -0.9020 H   0  0  0  0  0  0  0  0  0  0  0  0
    1.4076   -1.3902    1.2808 H   0  0  0  0  0  0  0  0  0  0  0  0
    0.8622   -1.5914    3.0105 H   0  0  0  0  0  0  0  0  0  0  0  0
    2.7508    0.3749    2.0638 H   0  0  0  0  0  0  0  0  0  0  0  0
    2.6292   -0.1906    3.7741 H   0  0  0  0  0  0  0  0  0  0  0  0
    4.3842   -1.6100    3.4735 H   0  0  0  0  0  0  0  0  0  0  0  0
    6.2567   -0.2677    1.9095 H   0  0  0  0  0  0  0  0  0  0  0  0
    6.8667   -1.4844    0.7841 H   0  0  0  0  0  0  0  0  0  0  0  0
    6.5774   -1.8938    2.4710 H   0  0  0  0  0  0  0  0  0  0  0  0
    4.3864    0.3494    0.5218 H   0  0  0  0  0  0  0  0  0  0  0  0
    3.2728   -0.8455   -0.1368 H   0  0  0  0  0  0  0  0  0  0  0  0
    4.9378   -0.7519   -0.7055 H   0  0  0  0  0  0  0  0  0  0  0  0
    3.7050   -3.7896    4.0942 H   0  0  0  0  0  0  0  0  0  0  0  0
    2.4068   -2.2086    4.9260 H   0  0  0  0  0  0  0  0  0  0  0  0
    1.1691   -5.7963    5.3265 H   0  0  0  0  0  0  0  0  0  0  0  0
    2.4532   -7.7032    4.4123 H   0  0  0  0  0  0  0  0  0  0  0  0
    1.3441   -7.7859    3.0326 H   0  0  0  0  0  0  0  0  0  0  0  0
    2.4810   -6.3404    1.7876 H   0  0  0  0  0  0  0  0  0  0  0  0
    8.4563   -5.0552    1.0895 H   0  0  0  0  0  0  0  0  0  0  0  0
    8.6988   -6.6784    0.4024 H   0  0  0  0  0  0  0  0  0  0  0  0
    9.4239   -6.2474    1.9598 H   0  0  0  0  0  0  0  0  0  0  0  0
  1  2  1  0
  1 33  1  0
  1 34  1  0
  1 35  1  0
  2 30  1  0
  2  3  1  0
  2 36  1  1
  3  4  1  0
  3  5  1  0
  3 37  1  6
  4 38  1  0
  5 32  1  0
  5  6  1  1
  5  7  1  0
  6 39  1  0
  6 40  1  0
  6 41  1  0
  7  8  1  0
  7 42  1  0
  7 43  1  0
  8 28  1  0
  8  9  1  0
  8 44  1  6
  9 10  1  0
  9 29  1  0
  9 45  1  6
 10 11  1  0
 10 46  1  0
 10 47  1  0
 11 19  1  0
 11 12  1  6
 11 13  1  0
 12 48  1  0
 12 49  1  0
 12 50  1  0
 13 14  2  0
 13 15  1  0
 15 18  1  0
 15 16  1  6
 15 22  1  0
 16 17  1  0
 16 51  1  0
 16 52  1  0
 17 18  1  0
 17 53  1  0
 17 54  1  0
 18 19  1  0
 18 55  1  1
 19 20  1  0
 19 21  1  0
 20 56  1  0
 20 57  1  0
 20 58  1  0
 21 59  1  0
 21 60  1  0
 21 61  1  0
 22 23  1  0
 22 24  1  0
 22 62  1  1
 23 63  1  0
 24 26  1  0
 24 28  1  0
 24 25  1  6
 25 26  1  0
 26 27  1  0
 26 64  1  1
 27 28  1  0
 27 65  1  0
 27 66  1  0
 28 67  1  6
 29 30  1  0
 30 31  1  6
 30 32  1  0
 31 68  1  0
 31 69  1  0
 31 70  1  0
M  END
>  <i_m_ct_stereo_status>  (182) 
1

>  <s_m_source_file>  (182) 
/var/tmp/pbs.5076255.sched01/tmpck0ladl8/45htcshi4i.sdf

>  <i_m_source_file_index>  (182) 
28

>  <i_lp_mmshare_version>  (182) 
48012

>  <i_f3d_flags>  (182) 
0

>  <s_epik_input>  (182) 
TzFbQ0BdKE8yKShbQ0gzXSlbQ0BIXShbQ0gzXSlbQ0BASF0oW09IXSlbQ0BdMihbQ0gzXSlbQ0gyXVtDQEBIXShbQ0BASF0zW0NAXTQoW0NAQEhdNVtPSF0pW0NAQEhdKE80KVtDSDJdMylbQ0BIXTFbQ0gyXVtDQEBdKFtDSDNdKShDNj1PKUMoW0NIM10pKFtDSDNdKVtDQEhdKFtDQF01NjcpW0NIMl1bQ0gyXTc=

>  <s_epik_cmdline>  (182) 
J2VwaWtfcHl0aG9uJywgJy1waHQnLCAnMi4wJywgJy1waCcsICc3LjAnLCAnLXRuJywgJzgnLCAnLW1hJywgJzIwMCcsICctaW1hZScsICc8aW5maWxlLm1hZT4nLCAnLW9tYWUnLCAnPG91dGZpbGUubWFlPic=

>  <r_lp_tautomer_probability>  (182) 
1

>  <r_epik_Ionization_Penalty>  (182) 
9.62023e-08

>  <r_epik_Ionization_Penalty_Charging>  (182) 
0

>  <r_epik_Ionization_Penalty_Neutral>  (182) 
9.62023e-08

>  <r_epik_State_Penalty>  (182) 
-0

>  <r_epik_Charging_Adjusted_Penalty>  (182) 
0

>  <i_epik_Tot_Q>  (182) 
0

>  <i_epik_Tot_abs_Q>  (182) 
0

>  <s_lp_Force_Field>  (182) 
OPLS3e

>  <r_lp_Energy>  (182) 
52.4065

>  <b_lp_Chiralities_Consistent>  (182) 
1

>  <s_lp_Variant>  (182) 
50:0-1

>  <s_i_glide_gridfile>  (182) 
pfpi4k_grid

>  <i_i_glide_lignum>  (182) 
28

>  <i_i_glide_rotatable_bonds>  (182) 
2

>  <r_i_docking_score>  (182) 
-2.06007

>  <r_i_glide_ligand_efficiency>  (182) 
-0.0643773

>  <r_i_glide_ligand_efficiency_sa>  (182) 
-0.204385

>  <r_i_glide_ligand_efficiency_ln>  (182) 
-0.461307

>  <r_i_glide_gscore>  (182) 
-2.06007

>  <r_i_glide_lipo>  (182) 
-0.491314

>  <r_i_glide_hbond>  (182) 
-0.00520518

>  <r_i_glide_metal>  (182) 
-0

>  <r_i_glide_rewards>  (182) 
-0.379462

>  <r_i_glide_evdw>  (182) 
-24.3939

>  <r_i_glide_ecoul>  (182) 
0.251908

>  <r_i_glide_erotb>  (182) 
0

>  <r_i_glide_esite>  (182) 
-0.00218622

>  <r_i_glide_emodel>  (182) 
-26.9591

>  <r_i_glide_energy>  (182) 
-24.142

>  <r_i_glide_einternal>  (182) 
0.664058

>  <r_i_glide_intrahb_reward>  (182) 
-0

>  <i_i_glide_confnum>  (182) 
1

>  <i_i_glide_posenum>  (182) 
32

>  <r_i_glide_eff_state_penalty>  (182) 
0

>  <ligand_id>  (182) 
50

>  <original_smiles>  (182) 
CC1C(O)C2(C)CC3C(CC4(C)C(=O)C5(CCC5C4(C)C)C(O)C45OC4CC35)OC1(C)O2

>  <smiles>  (182) 
[H]OC1([H])C([H])(C([H])([H])[H])C2(C([H])([H])[H])OC3([H])C([H])([H])C4(C([H])([H])[H])C(=O)C5(C([H])([H])C([H])([H])C5([H])C4(C([H])([H])[H])C([H])([H])[H])C([H])(O[H])C45OC4([H])C([H])([H])C5([H])C3([H])C([H])([H])C1(C([H])([H])[H])O2

$$$$
50:0:2
     RDKit          3D

 70 76  0  0  1  0  0  0  0  0999 V2000
    2.0308   -9.5536    2.6059 C   0  0  0  0  0  0  0  0  0  0  0  0
    3.5329   -9.2886    2.8200 C   0  0  2  0  0  0  0  0  0  0  0  0
    3.9186   -8.9336    4.2538 C   0  0  1  0  0  0  0  0  0  0  0  0
    4.4974  -10.0595    4.8918 O   0  0  0  0  0  0  0  0  0  0  0  0
    4.8761   -7.7214    4.1166 C   0  0  2  0  0  0  0  0  0  0  0  0
    6.2544   -7.9197    4.7816 C   0  0  0  0  0  0  0  0  0  0  0  0
    4.2546   -6.3964    4.6215 C   0  0  0  0  0  0  0  0  0  0  0  0
    2.9870   -5.9046    3.8824 C   0  0  2  0  0  0  0  0  0  0  0  0
    3.0901   -5.8429    2.3283 C   0  0  1  0  0  0  0  0  0  0  0  0
    4.2160   -4.9656    1.6917 C   0  0  0  0  0  0  0  0  0  0  0  0
    3.7923   -3.6041    1.0330 C   0  0  1  0  0  0  0  0  0  0  0  0
    2.9326   -3.8774   -0.2211 C   0  0  0  0  0  0  0  0  0  0  0  0
    3.0553   -2.7542    2.0832 C   0  0  0  0  0  0  0  0  0  0  0  0
    1.8203   -2.6467    2.0928 O   0  0  0  0  0  0  0  0  0  0  0  0
    4.0613   -2.0998    2.9744 C   0  0  2  0  0  0  0  0  0  0  0  0
    3.9920   -0.5540    2.9301 C   0  0  0  0  0  0  0  0  0  0  0  0
    5.4148   -0.5131    2.3873 C   0  0  0  0  0  0  0  0  0  0  0  0
    5.3273   -2.0233    2.1068 C   0  0  2  0  0  0  0  0  0  0  0  0
    5.0299   -2.6622    0.7309 C   0  0  0  0  0  0  0  0  0  0  0  0
    6.2601   -3.4199    0.1928 C   0  0  0  0  0  0  0  0  0  0  0  0
    4.6950   -1.5683   -0.3252 C   0  0  0  0  0  0  0  0  0  0  0  0
    4.1797   -2.8421    4.3442 C   0  0  1  0  0  0  0  0  0  0  0  0
    4.7918   -2.0224    5.3198 O   0  0  0  0  0  0  0  0  0  0  0  0
    2.8673   -3.3836    4.9343 C   0  0  2  0  0  0  0  0  0  0  0  0
    1.9985   -2.3699    5.5089 O   0  0  0  0  0  0  0  0  0  0  0  0
    2.3335   -3.5156    6.3409 C   0  0  1  0  0  0  0  0  0  0  0  0
    1.6994   -4.8312    5.9712 C   0  0  0  0  0  0  0  0  0  0  0  0
    2.2187   -4.7164    4.5278 C   0  0  2  0  0  0  0  0  0  0  0  0
    3.0413   -7.1577    1.7518 O   0  0  0  0  0  0  0  0  0  0  0  0
    4.0611   -8.0916    1.9965 C   0  0  2  0  0  0  0  0  0  0  0  0
    4.6143   -8.5304    0.6383 C   0  0  0  0  0  0  0  0  0  0  0  0
    5.1250   -7.5871    2.7289 O   0  0  0  0  0  0  0  0  0  0  0  0
    1.4200   -8.7118    2.9314 H   0  0  0  0  0  0  0  0  0  0  0  0
    1.7103  -10.4239    3.1803 H   0  0  0  0  0  0  0  0  0  0  0  0
    1.8072   -9.7469    1.5569 H   0  0  0  0  0  0  0  0  0  0  0  0
    4.0977  -10.1705    2.5065 H   0  0  0  0  0  0  0  0  0  0  0  0
    3.0428   -8.6781    4.8452 H   0  0  0  0  0  0  0  0  0  0  0  0
    5.1488  -10.4260    4.3219 H   0  0  0  0  0  0  0  0  0  0  0  0
    6.1572   -8.0243    5.8640 H   0  0  0  0  0  0  0  0  0  0  0  0
    6.8963   -7.0578    4.5918 H   0  0  0  0  0  0  0  0  0  0  0  0
    6.7779   -8.8002    4.4012 H   0  0  0  0  0  0  0  0  0  0  0  0
    4.0318   -6.5422    5.6751 H   0  0  0  0  0  0  0  0  0  0  0  0
    5.0322   -5.6481    4.5782 H   0  0  0  0  0  0  0  0  0  0  0  0
    2.3036   -6.7449    3.9998 H   0  0  0  0  0  0  0  0  0  0  0  0
    2.1354   -5.4443    1.9891 H   0  0  0  0  0  0  0  0  0  0  0  0
    5.0004   -4.8057    2.4289 H   0  0  0  0  0  0  0  0  0  0  0  0
    4.6976   -5.5422    0.9070 H   0  0  0  0  0  0  0  0  0  0  0  0
    3.5591   -4.2589   -1.0228 H   0  0  0  0  0  0  0  0  0  0  0  0
    2.4237   -2.9789   -0.5861 H   0  0  0  0  0  0  0  0  0  0  0  0
    2.1610   -4.6215   -0.0336 H   0  0  0  0  0  0  0  0  0  0  0  0
    3.2936   -0.1610    2.1872 H   0  0  0  0  0  0  0  0  0  0  0  0
    3.8953   -0.0361    3.8872 H   0  0  0  0  0  0  0  0  0  0  0  0
    5.5508    0.1371    1.5217 H   0  0  0  0  0  0  0  0  0  0  0  0
    6.1490   -0.2941    3.1630 H   0  0  0  0  0  0  0  0  0  0  0  0
    6.1608   -2.5097    2.6254 H   0  0  0  0  0  0  0  0  0  0  0  0
    7.0783   -2.7341   -0.0209 H   0  0  0  0  0  0  0  0  0  0  0  0
    6.0284   -3.9464   -0.7337 H   0  0  0  0  0  0  0  0  0  0  0  0
    6.6460   -4.1537    0.8998 H   0  0  0  0  0  0  0  0  0  0  0  0
    5.5361   -0.8899   -0.4708 H   0  0  0  0  0  0  0  0  0  0  0  0
    3.8305   -0.9649   -0.0414 H   0  0  0  0  0  0  0  0  0  0  0  0
    4.4835   -1.9991   -1.3053 H   0  0  0  0  0  0  0  0  0  0  0  0
    4.8848   -3.6559    4.2562 H   0  0  0  0  0  0  0  0  0  0  0  0
    4.1905   -1.3092    5.4522 H   0  0  0  0  0  0  0  0  0  0  0  0
    3.0321   -3.4501    7.1784 H   0  0  0  0  0  0  0  0  0  0  0  0
    2.0998   -5.6661    6.5305 H   0  0  0  0  0  0  0  0  0  0  0  0
    0.6099   -4.8852    5.9861 H   0  0  0  0  0  0  0  0  0  0  0  0
    1.3405   -4.5276    3.9038 H   0  0  0  0  0  0  0  0  0  0  0  0
    5.0121   -7.6767    0.0890 H   0  0  0  0  0  0  0  0  0  0  0  0
    3.8279   -9.0091    0.0651 H   0  0  0  0  0  0  0  0  0  0  0  0
    5.4104   -9.2576    0.7676 H   0  0  0  0  0  0  0  0  0  0  0  0
  1  2  1  0
  1 33  1  0
  1 34  1  0
  1 35  1  0
  2 30  1  0
  2  3  1  0
  2 36  1  6
  3  4  1  0
  3  5  1  0
  3 37  1  1
  4 38  1  0
  5 32  1  0
  5  6  1  1
  5  7  1  0
  6 39  1  0
  6 40  1  0
  6 41  1  0
  7  8  1  0
  7 42  1  0
  7 43  1  0
  8 28  1  0
  8  9  1  0
  8 44  1  6
  9 10  1  0
  9 29  1  0
  9 45  1  6
 10 11  1  0
 10 46  1  0
 10 47  1  0
 11 19  1  0
 11 12  1  6
 11 13  1  0
 12 48  1  0
 12 49  1  0
 12 50  1  0
 13 14  2  0
 13 15  1  0
 15 18  1  0
 15 16  1  1
 15 22  1  0
 16 17  1  0
 16 51  1  0
 16 52  1  0
 17 18  1  0
 17 53  1  0
 17 54  1  0
 18 19  1  0
 18 55  1  1
 19 20  1  0
 19 21  1  0
 20 56  1  0
 20 57  1  0
 20 58  1  0
 21 59  1  0
 21 60  1  0
 21 61  1  0
 22 23  1  0
 22 24  1  0
 22 62  1  6
 23 63  1  0
 24 26  1  0
 24 28  1  0
 24 25  1  6
 25 26  1  0
 26 27  1  0
 26 64  1  1
 27 28  1  0
 27 65  1  0
 27 66  1  0
 28 67  1  6
 29 30  1  0
 30 31  1  6
 30 32  1  0
 31 68  1  0
 31 69  1  0
 31 70  1  0
M  END
>  <i_m_ct_stereo_status>  (183) 
1

>  <s_m_source_file>  (183) 
/var/tmp/pbs.5076255.sched01/tmpck0ladl8/45htcshi4i.sdf

>  <i_m_source_file_index>  (183) 
28

>  <i_lp_mmshare_version>  (183) 
48012

>  <i_f3d_flags>  (183) 
0

>  <s_epik_input>  (183) 
TzFbQ0BdKE8yKShbQ0gzXSlbQ0BIXShbQ0gzXSlbQ0BASF0oW09IXSlbQ0BdMihbQ0gzXSlbQ0gyXVtDQEBIXShbQ0BASF0zW0NAXTQoW0NAQEhdNVtPSF0pW0NAQEhdKE80KVtDSDJdMylbQ0BIXTFbQ0gyXVtDQEBdKFtDSDNdKShDNj1PKUMoW0NIM10pKFtDSDNdKVtDQEhdKFtDQF01NjcpW0NIMl1bQ0gyXTc=

>  <s_epik_cmdline>  (183) 
J2VwaWtfcHl0aG9uJywgJy1waHQnLCAnMi4wJywgJy1waCcsICc3LjAnLCAnLXRuJywgJzgnLCAnLW1hJywgJzIwMCcsICctaW1hZScsICc8aW5maWxlLm1hZT4nLCAnLW9tYWUnLCAnPG91dGZpbGUubWFlPic=

>  <r_lp_tautomer_probability>  (183) 
1

>  <r_epik_Ionization_Penalty>  (183) 
9.62023e-08

>  <r_epik_Ionization_Penalty_Charging>  (183) 
0

>  <r_epik_Ionization_Penalty_Neutral>  (183) 
9.62023e-08

>  <r_epik_State_Penalty>  (183) 
-0

>  <r_epik_Charging_Adjusted_Penalty>  (183) 
0

>  <i_epik_Tot_Q>  (183) 
0

>  <i_epik_Tot_abs_Q>  (183) 
0

>  <s_lp_Force_Field>  (183) 
OPLS3e

>  <r_lp_Energy>  (183) 
52.4065

>  <b_lp_Chiralities_Consistent>  (183) 
1

>  <s_lp_Variant>  (183) 
50:0-1

>  <s_i_glide_gridfile>  (183) 
pfpi4k_grid

>  <i_i_glide_lignum>  (183) 
28

>  <i_i_glide_rotatable_bonds>  (183) 
2

>  <r_i_docking_score>  (183) 
-1.73114

>  <r_i_glide_ligand_efficiency>  (183) 
-0.054098

>  <r_i_glide_ligand_efficiency_sa>  (183) 
-0.17175

>  <r_i_glide_ligand_efficiency_ln>  (183) 
-0.387649

>  <r_i_glide_gscore>  (183) 
-1.73114

>  <r_i_glide_lipo>  (183) 
-0.389864

>  <r_i_glide_hbond>  (183) 
0

>  <r_i_glide_metal>  (183) 
-0

>  <r_i_glide_rewards>  (183) 
-0.364252

>  <r_i_glide_evdw>  (183) 
-25.0456

>  <r_i_glide_ecoul>  (183) 
1.89047

>  <r_i_glide_erotb>  (183) 
0

>  <r_i_glide_esite>  (183) 
-0.00830797

>  <r_i_glide_emodel>  (183) 
-25.654

>  <r_i_glide_energy>  (183) 
-23.1552

>  <r_i_glide_einternal>  (183) 
0.10158

>  <r_i_glide_intrahb_reward>  (183) 
-0

>  <i_i_glide_confnum>  (183) 
1

>  <i_i_glide_posenum>  (183) 
6

>  <r_i_glide_eff_state_penalty>  (183) 
0

>  <ligand_id>  (183) 
50

>  <original_smiles>  (183) 
CC1C(O)C2(C)CC3C(CC4(C)C(=O)C5(CCC5C4(C)C)C(O)C45OC4CC35)OC1(C)O2

>  <smiles>  (183) 
[H]OC1([H])C([H])(C([H])([H])[H])C2(C([H])([H])[H])OC3([H])C([H])([H])C4(C([H])([H])[H])C(=O)C5(C([H])([H])C([H])([H])C5([H])C4(C([H])([H])[H])C([H])([H])[H])C([H])(O[H])C45OC4([H])C([H])([H])C5([H])C3([H])C([H])([H])C1(C([H])([H])[H])O2

$$$$
51:0:0
     RDKit          3D

 47 51  0  0  1  0  0  0  0  0999 V2000
    3.8989   -2.0449   -0.1835 C   0  0  0  0  0  0  0  0  0  0  0  0
    4.0666   -3.5055    0.2820 C   0  0  0  0  0  0  0  0  0  0  0  0
    5.0286   -4.1331   -0.7425 C   0  0  0  0  0  0  0  0  0  0  0  0
    4.3294   -3.6952    1.7950 C   0  0  2  0  0  0  0  0  0  0  0  0
    5.1683   -4.9367    2.1005 C   0  0  0  0  0  0  0  0  0  0  0  0
    4.5941   -6.1548    2.1761 C   0  0  0  0  0  0  0  0  0  0  0  0
    3.0843   -6.3002    1.9874 C   0  0  2  0  0  0  0  0  0  0  0  0
    2.7461   -5.8428    0.5323 C   0  0  0  0  0  0  0  0  0  0  0  0
    2.7609   -4.3033    0.5509 C   0  0  1  0  0  0  0  0  0  0  0  0
    2.7974   -3.9104    2.0325 C   0  0  2  0  0  0  0  0  0  0  0  0
    2.0034   -2.6898    2.5312 C   0  0  0  0  0  0  0  0  0  0  0  0
    2.4076   -5.1794    2.8197 C   0  0  2  0  0  0  0  0  0  0  0  0
    2.7876   -5.1074    4.3245 C   0  0  0  0  0  0  0  0  0  0  0  0
    1.0046   -5.4146    2.6666 O   0  0  0  0  0  0  0  0  0  0  0  0
    0.4952   -6.5485    3.3640 C   0  0  2  0  0  0  0  0  0  0  0  0
    1.2750   -7.8258    3.1135 C   0  0  2  0  0  0  0  0  0  0  0  0
    2.6182   -7.7382    2.3732 C   0  0  1  0  0  0  0  0  0  0  0  0
    2.6875   -8.6512    1.2922 O   0  0  0  0  0  0  0  0  0  0  0  0
   -0.1200   -7.6495    2.5385 C   0  0  1  0  0  0  0  0  0  0  0  0
   -1.2945   -8.4699    3.0308 C   0  0  0  0  0  0  0  0  0  0  0  0
   -0.1922   -7.4155    1.1563 O   0  0  0  0  0  0  0  0  0  0  0  0
    4.8449   -1.6135   -0.5138 H   0  0  0  0  0  0  0  0  0  0  0  0
    3.5462   -1.3874    0.6104 H   0  0  0  0  0  0  0  0  0  0  0  0
    3.1950   -1.9635   -1.0144 H   0  0  0  0  0  0  0  0  0  0  0  0
    5.2735   -5.1726   -0.5158 H   0  0  0  0  0  0  0  0  0  0  0  0
    5.9770   -3.5976   -0.7932 H   0  0  0  0  0  0  0  0  0  0  0  0
    4.5887   -4.1336   -1.7424 H   0  0  0  0  0  0  0  0  0  0  0  0
    4.7308   -2.8057    2.2866 H   0  0  0  0  0  0  0  0  0  0  0  0
    6.2307   -4.7993    2.2366 H   0  0  0  0  0  0  0  0  0  0  0  0
    5.1802   -7.0347    2.3879 H   0  0  0  0  0  0  0  0  0  0  0  0
    3.4191   -6.2712   -0.2078 H   0  0  0  0  0  0  0  0  0  0  0  0
    1.7519   -6.1774    0.2531 H   0  0  0  0  0  0  0  0  0  0  0  0
    1.9202   -3.8557    0.0244 H   0  0  0  0  0  0  0  0  0  0  0  0
    1.0124   -2.9515    2.8949 H   0  0  0  0  0  0  0  0  0  0  0  0
    1.8443   -1.9559    1.7516 H   0  0  0  0  0  0  0  0  0  0  0  0
    2.5178   -2.1873    3.3503 H   0  0  0  0  0  0  0  0  0  0  0  0
    3.8053   -4.7554    4.4742 H   0  0  0  0  0  0  0  0  0  0  0  0
    2.7170   -6.0757    4.8170 H   0  0  0  0  0  0  0  0  0  0  0  0
    2.1356   -4.4168    4.8624 H   0  0  0  0  0  0  0  0  0  0  0  0
    0.1234   -6.3317    4.3611 H   0  0  0  0  0  0  0  0  0  0  0  0
    1.3389   -8.4983    3.9684 H   0  0  0  0  0  0  0  0  0  0  0  0
    3.3419   -8.1213    3.0983 H   0  0  0  0  0  0  0  0  0  0  0  0
    2.4778   -9.5190    1.6063 H   0  0  0  0  0  0  0  0  0  0  0  0
   -1.2398   -8.6163    4.1076 H   0  0  0  0  0  0  0  0  0  0  0  0
   -1.2978   -9.4476    2.5536 H   0  0  0  0  0  0  0  0  0  0  0  0
   -2.2275   -7.9646    2.7935 H   0  0  0  0  0  0  0  0  0  0  0  0
   -0.1324   -8.2527    0.7167 H   0  0  0  0  0  0  0  0  0  0  0  0
  1  2  1  0
  1 22  1  0
  1 23  1  0
  1 24  1  0
  2  9  1  0
  2  3  1  0
  2  4  1  0
  3 25  1  0
  3 26  1  0
  3 27  1  0
  4 10  1  0
  4  5  1  0
  4 28  1  1
  5  6  2  0
  5 29  1  0
  6  7  1  0
  6 30  1  0
  7 12  1  0
  7 17  1  0
  7  8  1  6
  8  9  1  0
  8 31  1  0
  8 32  1  0
  9 10  1  0
  9 33  1  6
 10 11  1  6
 10 12  1  0
 11 34  1  0
 11 35  1  0
 11 36  1  0
 12 13  1  1
 12 14  1  0
 13 37  1  0
 13 38  1  0
 13 39  1  0
 14 15  1  0
 15 19  1  0
 15 16  1  0
 15 40  1  1
 16 17  1  0
 16 19  1  0
 16 41  1  1
 17 18  1  0
 17 42  1  1
 18 43  1  0
 19 20  1  0
 19 21  1  6
 20 44  1  0
 20 45  1  0
 20 46  1  0
 21 47  1  0
M  END
>  <i_m_ct_stereo_status>  (184) 
1

>  <s_m_source_file>  (184) 
/var/tmp/pbs.5076255.sched01/tmpck0ladl8/45htcshi4i.sdf

>  <i_m_source_file_index>  (184) 
29

>  <i_lp_mmshare_version>  (184) 
48012

>  <i_f3d_flags>  (184) 
0

>  <s_epik_input>  (184) 
W0NIMl0xW0NAQEhdMkMoW0NIM10pKFtDSDNdKVtDQEhdKFtDSF09W0NIXTMpW0NAXTIoW0NIM10pW0NAQF0oW0NAQF0xMzQpKFtDSDNdKU9bQ0BASF01W0NASF0oW0NASF00W09IXSlbQ0BdNShbQ0gzXSlbT0hd

>  <s_epik_cmdline>  (184) 
J2VwaWtfcHl0aG9uJywgJy1waHQnLCAnMi4wJywgJy1waCcsICc3LjAnLCAnLXRuJywgJzgnLCAnLW1hJywgJzIwMCcsICctaW1hZScsICc8aW5maWxlLm1hZT4nLCAnLW9tYWUnLCAnPG91dGZpbGUubWFlPic=

>  <r_lp_tautomer_probability>  (184) 
1

>  <r_epik_Ionization_Penalty>  (184) 
3.01922e-07

>  <r_epik_Ionization_Penalty_Charging>  (184) 
0

>  <r_epik_Ionization_Penalty_Neutral>  (184) 
3.01922e-07

>  <r_epik_State_Penalty>  (184) 
-0

>  <r_epik_Charging_Adjusted_Penalty>  (184) 
0

>  <i_epik_Tot_Q>  (184) 
0

>  <i_epik_Tot_abs_Q>  (184) 
0

>  <s_lp_Force_Field>  (184) 
OPLS3e

>  <r_lp_Energy>  (184) 
42.9176

>  <b_lp_Chiralities_Consistent>  (184) 
1

>  <s_lp_Variant>  (184) 
51:0-1

>  <s_i_glide_gridfile>  (184) 
pfpi4k_grid

>  <i_i_glide_lignum>  (184) 
29

>  <i_i_glide_rotatable_bonds>  (184) 
2

>  <r_i_docking_score>  (184) 
-3.26029

>  <r_i_glide_ligand_efficiency>  (184) 
-0.155252

>  <r_i_glide_ligand_efficiency_sa>  (184) 
-0.428328

>  <r_i_glide_ligand_efficiency_ln>  (184) 
-0.8061

>  <r_i_glide_gscore>  (184) 
-3.26029

>  <r_i_glide_lipo>  (184) 
-0.126043

>  <r_i_glide_hbond>  (184) 
-0.0141695

>  <r_i_glide_metal>  (184) 
-0

>  <r_i_glide_rewards>  (184) 
-1.42911

>  <r_i_glide_evdw>  (184) 
-16.8324

>  <r_i_glide_ecoul>  (184) 
-5.66232

>  <r_i_glide_erotb>  (184) 
0

>  <r_i_glide_esite>  (184) 
0

>  <r_i_glide_emodel>  (184) 
-27.6297

>  <r_i_glide_energy>  (184) 
-22.4947

>  <r_i_glide_einternal>  (184) 
0.365623

>  <r_i_glide_intrahb_reward>  (184) 
-0

>  <i_i_glide_confnum>  (184) 
1

>  <i_i_glide_posenum>  (184) 
34

>  <r_i_glide_eff_state_penalty>  (184) 
0

>  <ligand_id>  (184) 
51

>  <original_smiles>  (184) 
CC1(C)C2C=CC34CC1C2(C)C3(C)OC1C(C4O)C1(C)O

>  <smiles>  (184) 
[H]OC1([H])C2([H])C([H])(OC3(C([H])([H])[H])C14C([H])=C([H])C1([H])C(C([H])([H])[H])(C([H])([H])[H])C([H])(C4([H])[H])C13C([H])([H])[H])C2(O[H])C([H])([H])[H]

$$$$
51:0:1
     RDKit          3D

 47 51  0  0  1  0  0  0  0  0999 V2000
    2.5343   -6.6854    4.9132 C   0  0  0  0  0  0  0  0  0  0  0  0
    2.9491   -5.3420    4.2966 C   0  0  0  0  0  0  0  0  0  0  0  0
    2.3447   -4.2930    5.2403 C   0  0  0  0  0  0  0  0  0  0  0  0
    4.4337   -5.2269    3.8609 C   0  0  2  0  0  0  0  0  0  0  0  0
    4.9610   -3.7989    3.9635 C   0  0  0  0  0  0  0  0  0  0  0  0
    4.7443   -2.9149    2.9679 C   0  0  0  0  0  0  0  0  0  0  0  0
    3.9808   -3.3495    1.7201 C   0  0  2  0  0  0  0  0  0  0  0  0
    2.5383   -3.7389    2.1720 C   0  0  0  0  0  0  0  0  0  0  0  0
    2.6584   -5.1292    2.7856 C   0  0  1  0  0  0  0  0  0  0  0  0
    4.0445   -5.6548    2.4137 C   0  0  2  0  0  0  0  0  0  0  0  0
    4.2648   -7.1223    2.0398 C   0  0  0  0  0  0  0  0  0  0  0  0
    4.5493   -4.7313    1.2850 C   0  0  2  0  0  0  0  0  0  0  0  0
    6.0826   -4.8048    1.0710 C   0  0  0  0  0  0  0  0  0  0  0  0
    3.8493   -5.0453    0.0837 O   0  0  0  0  0  0  0  0  0  0  0  0
    4.2310   -4.2724   -1.0495 C   0  0  2  0  0  0  0  0  0  0  0  0
    4.2078   -2.7691   -0.7987 C   0  0  2  0  0  0  0  0  0  0  0  0
    4.0541   -2.2487    0.6111 C   0  0  1  0  0  0  0  0  0  0  0  0
    3.0293   -1.2660    0.7303 O   0  0  0  0  0  0  0  0  0  0  0  0
    3.1691   -3.4183   -1.7189 C   0  0  1  0  0  0  0  0  0  0  0  0
    3.1120   -3.1496   -3.1876 C   0  0  0  0  0  0  0  0  0  0  0  0
    1.8715   -3.4607   -1.1325 O   0  0  0  0  0  0  0  0  0  0  0  0
    2.6217   -6.6820    6.0001 H   0  0  0  0  0  0  0  0  0  0  0  0
    3.1689   -7.5115    4.5806 H   0  0  0  0  0  0  0  0  0  0  0  0
    1.5020   -6.9444    4.6696 H   0  0  0  0  0  0  0  0  0  0  0  0
    2.5905   -3.2673    4.9485 H   0  0  0  0  0  0  0  0  0  0  0  0
    2.6961   -4.4118    6.2653 H   0  0  0  0  0  0  0  0  0  0  0  0
    1.2542   -4.3563    5.2498 H   0  0  0  0  0  0  0  0  0  0  0  0
    5.0865   -5.9473    4.3708 H   0  0  0  0  0  0  0  0  0  0  0  0
    5.5026   -3.5343    4.8607 H   0  0  0  0  0  0  0  0  0  0  0  0
    5.1155   -1.9026    3.0235 H   0  0  0  0  0  0  0  0  0  0  0  0
    2.0944   -2.9912    2.8288 H   0  0  0  0  0  0  0  0  0  0  0  0
    1.8905   -3.7921    1.3075 H   0  0  0  0  0  0  0  0  0  0  0  0
    1.8774   -5.8284    2.4498 H   0  0  0  0  0  0  0  0  0  0  0  0
    4.1945   -7.3082    0.9707 H   0  0  0  0  0  0  0  0  0  0  0  0
    3.5262   -7.7761    2.4960 H   0  0  0  0  0  0  0  0  0  0  0  0
    5.2451   -7.4783    2.3596 H   0  0  0  0  0  0  0  0  0  0  0  0
    6.6351   -4.7486    2.0054 H   0  0  0  0  0  0  0  0  0  0  0  0
    6.4545   -3.9971    0.4402 H   0  0  0  0  0  0  0  0  0  0  0  0
    6.3669   -5.7472    0.5952 H   0  0  0  0  0  0  0  0  0  0  0  0
    5.0067   -4.7154   -1.6626 H   0  0  0  0  0  0  0  0  0  0  0  0
    4.9840   -2.2231   -1.3576 H   0  0  0  0  0  0  0  0  0  0  0  0
    4.9847   -1.7085    0.7959 H   0  0  0  0  0  0  0  0  0  0  0  0
    2.3308   -1.4297    0.1186 H   0  0  0  0  0  0  0  0  0  0  0  0
    4.1197   -3.1220   -3.6044 H   0  0  0  0  0  0  0  0  0  0  0  0
    2.6247   -2.2000   -3.3879 H   0  0  0  0  0  0  0  0  0  0  0  0
    2.5550   -3.9353   -3.6921 H   0  0  0  0  0  0  0  0  0  0  0  0
    1.4904   -2.5828   -1.2386 H   0  0  0  0  0  0  0  0  0  0  0  0
  1  2  1  0
  1 22  1  0
  1 23  1  0
  1 24  1  0
  2  9  1  0
  2  3  1  0
  2  4  1  0
  3 25  1  0
  3 26  1  0
  3 27  1  0
  4 10  1  0
  4  5  1  0
  4 28  1  1
  5  6  2  0
  5 29  1  0
  6  7  1  0
  6 30  1  0
  7 12  1  0
  7 17  1  0
  7  8  1  1
  8  9  1  0
  8 31  1  0
  8 32  1  0
  9 10  1  0
  9 33  1  6
 10 11  1  6
 10 12  1  0
 11 34  1  0
 11 35  1  0
 11 36  1  0
 12 13  1  6
 12 14  1  0
 13 37  1  0
 13 38  1  0
 13 39  1  0
 14 15  1  0
 15 19  1  0
 15 16  1  0
 15 40  1  6
 16 17  1  0
 16 19  1  0
 16 41  1  6
 17 18  1  0
 17 42  1  1
 18 43  1  0
 19 20  1  0
 19 21  1  1
 20 44  1  0
 20 45  1  0
 20 46  1  0
 21 47  1  0
M  END
>  <i_m_ct_stereo_status>  (185) 
1

>  <s_m_source_file>  (185) 
/var/tmp/pbs.5076255.sched01/tmpck0ladl8/45htcshi4i.sdf

>  <i_m_source_file_index>  (185) 
29

>  <i_lp_mmshare_version>  (185) 
48012

>  <i_f3d_flags>  (185) 
0

>  <s_epik_input>  (185) 
W0NIMl0xW0NAQEhdMkMoW0NIM10pKFtDSDNdKVtDQEhdKFtDSF09W0NIXTMpW0NAXTIoW0NIM10pW0NAQF0oW0NAQF0xMzQpKFtDSDNdKU9bQ0BASF01W0NASF0oW0NASF00W09IXSlbQ0BdNShbQ0gzXSlbT0hd

>  <s_epik_cmdline>  (185) 
J2VwaWtfcHl0aG9uJywgJy1waHQnLCAnMi4wJywgJy1waCcsICc3LjAnLCAnLXRuJywgJzgnLCAnLW1hJywgJzIwMCcsICctaW1hZScsICc8aW5maWxlLm1hZT4nLCAnLW9tYWUnLCAnPG91dGZpbGUubWFlPic=

>  <r_lp_tautomer_probability>  (185) 
1

>  <r_epik_Ionization_Penalty>  (185) 
3.01922e-07

>  <r_epik_Ionization_Penalty_Charging>  (185) 
0

>  <r_epik_Ionization_Penalty_Neutral>  (185) 
3.01922e-07

>  <r_epik_State_Penalty>  (185) 
-0

>  <r_epik_Charging_Adjusted_Penalty>  (185) 
0

>  <i_epik_Tot_Q>  (185) 
0

>  <i_epik_Tot_abs_Q>  (185) 
0

>  <s_lp_Force_Field>  (185) 
OPLS3e

>  <r_lp_Energy>  (185) 
42.9176

>  <b_lp_Chiralities_Consistent>  (185) 
1

>  <s_lp_Variant>  (185) 
51:0-1

>  <s_i_glide_gridfile>  (185) 
pfpi4k_grid

>  <i_i_glide_lignum>  (185) 
29

>  <i_i_glide_rotatable_bonds>  (185) 
2

>  <r_i_docking_score>  (185) 
-3.14647

>  <r_i_glide_ligand_efficiency>  (185) 
-0.149832

>  <r_i_glide_ligand_efficiency_sa>  (185) 
-0.413375

>  <r_i_glide_ligand_efficiency_ln>  (185) 
-0.777958

>  <r_i_glide_gscore>  (185) 
-3.14647

>  <r_i_glide_lipo>  (185) 
-0.369989

>  <r_i_glide_hbond>  (185) 
0

>  <r_i_glide_metal>  (185) 
-0

>  <r_i_glide_rewards>  (185) 
-1.42911

>  <r_i_glide_evdw>  (185) 
-13.136

>  <r_i_glide_ecoul>  (185) 
-4.6038

>  <r_i_glide_erotb>  (185) 
0

>  <r_i_glide_esite>  (185) 
0

>  <r_i_glide_emodel>  (185) 
-22.1646

>  <r_i_glide_energy>  (185) 
-17.7398

>  <r_i_glide_einternal>  (185) 
0.902153

>  <r_i_glide_intrahb_reward>  (185) 
-0

>  <i_i_glide_confnum>  (185) 
1

>  <i_i_glide_posenum>  (185) 
37

>  <r_i_glide_eff_state_penalty>  (185) 
0

>  <ligand_id>  (185) 
51

>  <original_smiles>  (185) 
CC1(C)C2C=CC34CC1C2(C)C3(C)OC1C(C4O)C1(C)O

>  <smiles>  (185) 
[H]OC1([H])C2([H])C([H])(OC3(C([H])([H])[H])C14C([H])=C([H])C1([H])C(C([H])([H])[H])(C([H])([H])[H])C([H])(C4([H])[H])C13C([H])([H])[H])C2(O[H])C([H])([H])[H]

$$$$
51:0:2
     RDKit          3D

 47 51  0  0  1  0  0  0  0  0999 V2000
    3.4604   -0.7681   -3.0844 C   0  0  0  0  0  0  0  0  0  0  0  0
    4.1214   -1.9444   -2.3576 C   0  0  0  0  0  0  0  0  0  0  0  0
    4.7028   -2.7238   -3.5403 C   0  0  0  0  0  0  0  0  0  0  0  0
    5.0498   -1.5950   -1.1716 C   0  0  2  0  0  0  0  0  0  0  0  0
    6.2165   -2.5494   -1.0260 C   0  0  0  0  0  0  0  0  0  0  0  0
    6.0563   -3.7447   -0.3898 C   0  0  0  0  0  0  0  0  0  0  0  0
    4.7074   -4.1129    0.1687 C   0  0  2  0  0  0  0  0  0  0  0  0
    3.7371   -4.1708   -1.0221 C   0  0  0  0  0  0  0  0  0  0  0  0
    3.3068   -2.7237   -1.3281 C   0  0  1  0  0  0  0  0  0  0  0  0
    3.8866   -1.9109   -0.1699 C   0  0  2  0  0  0  0  0  0  0  0  0
    3.1575   -0.6966    0.4245 C   0  0  0  0  0  0  0  0  0  0  0  0
    4.1613   -2.9197    0.9488 C   0  0  2  0  0  0  0  0  0  0  0  0
    5.0736   -2.3029    2.0411 C   0  0  0  0  0  0  0  0  0  0  0  0
    2.8901   -3.3438    1.4799 O   0  0  0  0  0  0  0  0  0  0  0  0
    3.0027   -4.2636    2.5649 C   0  0  2  0  0  0  0  0  0  0  0  0
    3.9184   -5.4424    2.2892 C   0  0  2  0  0  0  0  0  0  0  0  0
    4.7856   -5.4086    1.0180 C   0  0  1  0  0  0  0  0  0  0  0  0
    4.6188   -6.6046    0.2597 O   0  0  0  0  0  0  0  0  0  0  0  0
    2.4159   -5.6248    2.3695 C   0  0  1  0  0  0  0  0  0  0  0  0
    1.8047   -6.3993    3.5356 C   0  0  0  0  0  0  0  0  0  0  0  0
    1.7164   -5.8432    1.1887 O   0  0  0  0  0  0  0  0  0  0  0  0
    4.0498   -0.3515   -3.9211 H   0  0  0  0  0  0  0  0  0  0  0  0
    3.3757    0.0680   -2.4280 H   0  0  0  0  0  0  0  0  0  0  0  0
    2.4825   -1.0314   -3.4954 H   0  0  0  0  0  0  0  0  0  0  0  0
    5.3399   -3.5600   -3.2927 H   0  0  0  0  0  0  0  0  0  0  0  0
    5.3223   -1.9894   -3.9806 H   0  0  0  0  0  0  0  0  0  0  0  0
    3.9156   -3.0821   -4.2263 H   0  0  0  0  0  0  0  0  0  0  0  0
    5.3450   -0.5547   -1.1628 H   0  0  0  0  0  0  0  0  0  0  0  0
    7.1597   -2.2630   -1.4628 H   0  0  0  0  0  0  0  0  0  0  0  0
    6.8709   -4.4398   -0.3017 H   0  0  0  0  0  0  0  0  0  0  0  0
    4.2199   -4.6580   -1.8881 H   0  0  0  0  0  0  0  0  0  0  0  0
    2.8450   -4.7427   -0.7854 H   0  0  0  0  0  0  0  0  0  0  0  0
    2.2628   -2.6214   -1.5139 H   0  0  0  0  0  0  0  0  0  0  0  0
    2.3851   -0.9778    1.1458 H   0  0  0  0  0  0  0  0  0  0  0  0
    2.6639   -0.2735   -0.3958 H   0  0  0  0  0  0  0  0  0  0  0  0
    3.8328    0.0704    0.8022 H   0  0  0  0  0  0  0  0  0  0  0  0
    5.9318   -1.7997    1.5951 H   0  0  0  0  0  0  0  0  0  0  0  0
    5.4536   -3.0783    2.6971 H   0  0  0  0  0  0  0  0  0  0  0  0
    4.5308   -1.5686    2.6277 H   0  0  0  0  0  0  0  0  0  0  0  0
    3.0369   -3.7932    3.5409 H   0  0  0  0  0  0  0  0  0  0  0  0
    4.4838   -5.7944    3.1180 H   0  0  0  0  0  0  0  0  0  0  0  0
    5.8184   -5.4733    1.3952 H   0  0  0  0  0  0  0  0  0  0  0  0
    4.7107   -7.3483    0.8590 H   0  0  0  0  0  0  0  0  0  0  0  0
    2.3268   -6.1832    4.4624 H   0  0  0  0  0  0  0  0  0  0  0  0
    1.8614   -7.4792    3.3446 H   0  0  0  0  0  0  0  0  0  0  0  0
    0.7601   -6.1213    3.6413 H   0  0  0  0  0  0  0  0  0  0  0  0
    2.0054   -6.6980    0.8796 H   0  0  0  0  0  0  0  0  0  0  0  0
  1  2  1  0
  1 22  1  0
  1 23  1  0
  1 24  1  0
  2  9  1  0
  2  3  1  0
  2  4  1  0
  3 25  1  0
  3 26  1  0
  3 27  1  0
  4 10  1  0
  4  5  1  0
  4 28  1  6
  5  6  2  0
  5 29  1  0
  6  7  1  0
  6 30  1  0
  7 12  1  0
  7 17  1  0
  7  8  1  6
  8  9  1  0
  8 31  1  0
  8 32  1  0
  9 10  1  0
  9 33  1  6
 10 11  1  1
 10 12  1  0
 11 34  1  0
 11 35  1  0
 11 36  1  0
 12 13  1  1
 12 14  1  0
 13 37  1  0
 13 38  1  0
 13 39  1  0
 14 15  1  0
 15 19  1  0
 15 16  1  0
 15 40  1  1
 16 17  1  0
 16 19  1  0
 16 41  1  1
 17 18  1  0
 17 42  1  1
 18 43  1  0
 19 20  1  0
 19 21  1  6
 20 44  1  0
 20 45  1  0
 20 46  1  0
 21 47  1  0
M  END
>  <i_m_ct_stereo_status>  (186) 
1

>  <s_m_source_file>  (186) 
/var/tmp/pbs.5076255.sched01/tmpck0ladl8/45htcshi4i.sdf

>  <i_m_source_file_index>  (186) 
29

>  <i_lp_mmshare_version>  (186) 
48012

>  <i_f3d_flags>  (186) 
0

>  <s_epik_input>  (186) 
W0NIMl0xW0NAQEhdMkMoW0NIM10pKFtDSDNdKVtDQEhdKFtDSF09W0NIXTMpW0NAXTIoW0NIM10pW0NAQF0oW0NAQF0xMzQpKFtDSDNdKU9bQ0BASF01W0NASF0oW0NASF00W09IXSlbQ0BdNShbQ0gzXSlbT0hd

>  <s_epik_cmdline>  (186) 
J2VwaWtfcHl0aG9uJywgJy1waHQnLCAnMi4wJywgJy1waCcsICc3LjAnLCAnLXRuJywgJzgnLCAnLW1hJywgJzIwMCcsICctaW1hZScsICc8aW5maWxlLm1hZT4nLCAnLW9tYWUnLCAnPG91dGZpbGUubWFlPic=

>  <r_lp_tautomer_probability>  (186) 
1

>  <r_epik_Ionization_Penalty>  (186) 
3.01922e-07

>  <r_epik_Ionization_Penalty_Charging>  (186) 
0

>  <r_epik_Ionization_Penalty_Neutral>  (186) 
3.01922e-07

>  <r_epik_State_Penalty>  (186) 
-0

>  <r_epik_Charging_Adjusted_Penalty>  (186) 
0

>  <i_epik_Tot_Q>  (186) 
0

>  <i_epik_Tot_abs_Q>  (186) 
0

>  <s_lp_Force_Field>  (186) 
OPLS3e

>  <r_lp_Energy>  (186) 
42.9176

>  <b_lp_Chiralities_Consistent>  (186) 
1

>  <s_lp_Variant>  (186) 
51:0-1

>  <s_i_glide_gridfile>  (186) 
pfpi4k_grid

>  <i_i_glide_lignum>  (186) 
29

>  <i_i_glide_rotatable_bonds>  (186) 
2

>  <r_i_docking_score>  (186) 
-2.36232

>  <r_i_glide_ligand_efficiency>  (186) 
-0.112491

>  <r_i_glide_ligand_efficiency_sa>  (186) 
-0.310355

>  <r_i_glide_ligand_efficiency_ln>  (186) 
-0.584078

>  <r_i_glide_gscore>  (186) 
-2.36232

>  <r_i_glide_lipo>  (186) 
-0.391288

>  <r_i_glide_hbond>  (186) 
0

>  <r_i_glide_metal>  (186) 
-0

>  <r_i_glide_rewards>  (186) 
-1.42911

>  <r_i_glide_evdw>  (186) 
-11.6062

>  <r_i_glide_ecoul>  (186) 
0.255941

>  <r_i_glide_erotb>  (186) 
0

>  <r_i_glide_esite>  (186) 
0

>  <r_i_glide_emodel>  (186) 
-13.0527

>  <r_i_glide_energy>  (186) 
-11.3503

>  <r_i_glide_einternal>  (186) 
0.386286

>  <r_i_glide_intrahb_reward>  (186) 
-0

>  <i_i_glide_confnum>  (186) 
2

>  <i_i_glide_posenum>  (186) 
6

>  <r_i_glide_eff_state_penalty>  (186) 
0

>  <ligand_id>  (186) 
51

>  <original_smiles>  (186) 
CC1(C)C2C=CC34CC1C2(C)C3(C)OC1C(C4O)C1(C)O

>  <smiles>  (186) 
[H]OC1([H])C2([H])C([H])(OC3(C([H])([H])[H])C14C([H])=C([H])C1([H])C(C([H])([H])[H])(C([H])([H])[H])C([H])(C4([H])[H])C13C([H])([H])[H])C2(O[H])C([H])([H])[H]

$$$$
52:0:0
     RDKit          3D

 70 76  0  0  1  0  0  0  0  0999 V2000
    3.7319   -1.9610   -1.6267 C   0  0  0  0  0  0  0  0  0  0  0  0
    4.7656   -2.2283   -0.5177 C   0  0  2  0  0  0  0  0  0  0  0  0
    5.8164   -3.2372   -1.0270 C   0  0  0  0  0  0  0  0  0  0  0  0
    6.9198   -3.5243    0.0133 C   0  0  0  0  0  0  0  0  0  0  0  0
    6.3929   -3.8721    1.4260 C   0  0  2  0  0  0  0  0  0  0  0  0
    6.0624   -5.3797    1.7021 C   0  0  2  0  0  0  0  0  0  0  0  0
    5.3376   -6.1375    0.5751 C   0  0  0  0  0  0  0  0  0  0  0  0
    4.9657   -7.5870    0.9318 C   0  0  0  0  0  0  0  0  0  0  0  0
    4.1681   -7.7256    2.2456 C   0  0  1  0  0  0  0  0  0  0  0  0
    4.8990   -6.9947    3.3900 C   0  0  2  0  0  0  0  0  0  0  0  0
    4.1583   -7.1503    4.7312 C   0  0  0  0  0  0  0  0  0  0  0  0
    2.6484   -6.8628    4.6424 C   0  0  0  0  0  0  0  0  0  0  0  0
    1.9454   -7.7301    3.5598 C   0  0  1  0  0  0  0  0  0  0  0  0
    0.4819   -7.5374    3.5526 N   0  0  0  0  0  0  0  0  0  0  0  0
   -0.4632   -7.8356    2.6446 C   0  0  0  0  0  0  0  0  0  0  0  0
   -1.6899   -7.4911    2.9952 N   0  0  0  0  0  0  0  0  0  0  0  0
   -1.4480   -7.0566    4.2617 C   0  0  0  0  0  0  0  0  0  0  0  0
   -0.1670   -7.0511    4.6423 N   0  0  0  0  0  0  0  0  0  0  0  0
    2.6180   -7.5162    2.1645 C   0  0  1  0  0  0  0  0  0  0  0  0
    2.1408   -6.2261    1.4509 C   0  0  0  0  0  0  0  0  0  0  0  0
    2.2237   -8.5923    1.3383 O   0  0  0  0  0  0  0  0  0  0  0  0
    5.3797   -5.5495    3.0862 C   0  0  2  0  0  0  0  0  0  0  0  0
    4.3407   -4.5978    3.2401 O   0  0  0  0  0  0  0  0  0  0  0  0
    4.8192   -3.2911    3.3010 C   0  0  2  0  0  0  0  0  0  0  0  0
    3.8615   -2.4246    3.8213 O   0  0  0  0  0  0  0  0  0  0  0  0
    4.0093   -1.0717    3.4029 C   0  0  2  0  0  0  0  0  0  0  0  0
    3.6308   -0.1944    4.6091 C   0  0  0  0  0  0  0  0  0  0  0  0
    3.0633   -0.8215    2.2065 C   0  0  0  0  0  0  0  0  0  0  0  0
    2.8800   -2.0581    1.3202 C   0  0  0  0  0  0  0  0  0  0  0  0
    4.1685   -2.7464    0.8263 C   0  0  2  0  0  0  0  0  0  0  0  0
    5.2993   -2.8580    1.8857 C   0  0  2  0  0  0  0  0  0  0  0  0
    5.9179   -1.5730    1.9757 O   0  0  0  0  0  0  0  0  0  0  0  0
    5.3671   -0.7478    3.1311 O   0  0  0  0  0  0  0  0  0  0  0  0
    3.0814   -2.8213   -1.7847 H   0  0  0  0  0  0  0  0  0  0  0  0
    4.2192   -1.7271   -2.5725 H   0  0  0  0  0  0  0  0  0  0  0  0
    3.1051   -1.1004   -1.3846 H   0  0  0  0  0  0  0  0  0  0  0  0
    5.2746   -1.2789   -0.3408 H   0  0  0  0  0  0  0  0  0  0  0  0
    5.3238   -4.1630   -1.3183 H   0  0  0  0  0  0  0  0  0  0  0  0
    6.2839   -2.8643   -1.9392 H   0  0  0  0  0  0  0  0  0  0  0  0
    7.5855   -4.3105   -0.3401 H   0  0  0  0  0  0  0  0  0  0  0  0
    7.5434   -2.6329    0.0857 H   0  0  0  0  0  0  0  0  0  0  0  0
    7.2412   -3.7039    2.0774 H   0  0  0  0  0  0  0  0  0  0  0  0
    7.0242   -5.8883    1.7820 H   0  0  0  0  0  0  0  0  0  0  0  0
    4.4636   -5.6172    0.2226 H   0  0  0  0  0  0  0  0  0  0  0  0
    6.0063   -6.1728   -0.2794 H   0  0  0  0  0  0  0  0  0  0  0  0
    4.4394   -8.0501    0.0972 H   0  0  0  0  0  0  0  0  0  0  0  0
    5.8903   -8.1586    1.0367 H   0  0  0  0  0  0  0  0  0  0  0  0
    4.2653   -8.7849    2.5053 H   0  0  0  0  0  0  0  0  0  0  0  0
    5.8326   -7.5513    3.5137 H   0  0  0  0  0  0  0  0  0  0  0  0
    4.2879   -8.1746    5.0848 H   0  0  0  0  0  0  0  0  0  0  0  0
    4.6163   -6.5088    5.4854 H   0  0  0  0  0  0  0  0  0  0  0  0
    2.2333   -7.0744    5.6300 H   0  0  0  0  0  0  0  0  0  0  0  0
    2.4730   -5.8049    4.4612 H   0  0  0  0  0  0  0  0  0  0  0  0
    2.1196   -8.7645    3.8524 H   0  0  0  0  0  0  0  0  0  0  0  0
   -0.2701   -8.2764    1.6706 H   0  0  0  0  0  0  0  0  0  0  0  0
   -2.2339   -6.6958    4.8973 H   0  0  0  0  0  0  0  0  0  0  0  0
    2.4746   -5.3256    1.9630 H   0  0  0  0  0  0  0  0  0  0  0  0
    1.0584   -6.1484    1.3886 H   0  0  0  0  0  0  0  0  0  0  0  0
    2.4751   -6.1887    0.4162 H   0  0  0  0  0  0  0  0  0  0  0  0
    1.2850   -8.6685    1.3304 H   0  0  0  0  0  0  0  0  0  0  0  0
    6.1334   -5.3472    3.8535 H   0  0  0  0  0  0  0  0  0  0  0  0
    5.6483   -3.2400    4.0136 H   0  0  0  0  0  0  0  0  0  0  0  0
    4.3281   -0.3654    5.4287 H   0  0  0  0  0  0  0  0  0  0  0  0
    2.6287   -0.4198    4.9792 H   0  0  0  0  0  0  0  0  0  0  0  0
    3.6674    0.8651    4.3574 H   0  0  0  0  0  0  0  0  0  0  0  0
    2.0695   -0.5779    2.5830 H   0  0  0  0  0  0  0  0  0  0  0  0
    3.3820    0.0421    1.6286 H   0  0  0  0  0  0  0  0  0  0  0  0
    2.3219   -2.7969    1.8962 H   0  0  0  0  0  0  0  0  0  0  0  0
    2.2144   -1.8383    0.4939 H   0  0  0  0  0  0  0  0  0  0  0  0
    3.8124   -3.7477    0.6259 H   0  0  0  0  0  0  0  0  0  0  0  0
  1  2  1  0
  1 34  1  0
  1 35  1  0
  1 36  1  0
  2 30  1  0
  2  3  1  0
  2 37  1  1
  3  4  1  0
  3 38  1  0
  3 39  1  0
  4  5  1  0
  4 40  1  0
  4 41  1  0
  5 31  1  0
  5  6  1  0
  5 42  1  1
  6 22  1  0
  6  7  1  0
  6 43  1  1
  7  8  1  0
  7 44  1  0
  7 45  1  0
  8  9  1  0
  8 46  1  0
  8 47  1  0
  9 19  1  0
  9 10  1  0
  9 48  1  1
 10 11  1  0
 10 22  1  0
 10 49  1  1
 11 12  1  0
 11 50  1  0
 11 51  1  0
 12 13  1  0
 12 52  1  0
 12 53  1  0
 13 14  1  0
 13 19  1  0
 13 54  1  1
 14 18  1  0
 14 15  1  0
 15 16  2  0
 15 55  1  0
 16 17  1  0
 17 18  2  0
 17 56  1  0
 19 20  1  0
 19 21  1  6
 20 57  1  0
 20 58  1  0
 20 59  1  0
 21 60  1  0
 22 23  1  0
 22 61  1  1
 23 24  1  0
 24 31  1  0
 24 25  1  0
 24 62  1  1
 25 26  1  0
 26 33  1  0
 26 27  1  1
 26 28  1  0
 27 63  1  0
 27 64  1  0
 27 65  1  0
 28 29  1  0
 28 66  1  0
 28 67  1  0
 29 30  1  0
 29 68  1  0
 29 69  1  0
 30 31  1  0
 30 70  1  6
 31 32  1  1
 32 33  1  0
M  END
>  <i_m_ct_stereo_status>  (187) 
1

>  <s_m_source_file>  (187) 
/var/tmp/pbs.5076255.sched01/tmpck0ladl8/45htcshi4i.sdf

>  <i_m_source_file_index>  (187) 
30

>  <i_lp_mmshare_version>  (187) 
48012

>  <i_f3d_flags>  (187) 
0

>  <s_epik_input>  (187) 
W0NIMl0xW0NIMl1bQ0BASF0oW0NIM10pW0NAQEhdMltDSDJdW0NIMl1bQ0BdKFtDSDNdKShPTzMpT1tDQEhdNE9bQ0BIXShbQ0BASF01W0NAQEhdMVtDQF0yMzQpW0NAQEhdNltDQEhdKFtDSDJdW0NIMl01KVtDQEBdKFtDSDNdKShbT0hdKVtDQEBIXShbQ0gyXVtDSDJdNiluN1tjSF1uW2NIXW43

>  <s_epik_cmdline>  (187) 
J2VwaWtfcHl0aG9uJywgJy1waHQnLCAnMi4wJywgJy1waCcsICc3LjAnLCAnLXRuJywgJzgnLCAnLW1hJywgJzIwMCcsICctaW1hZScsICc8aW5maWxlLm1hZT4nLCAnLW9tYWUnLCAnPG91dGZpbGUubWFlPic=

>  <r_lp_tautomer_probability>  (187) 
1

>  <r_epik_Ionization_Penalty>  (187) 
0.000411106

>  <r_epik_Ionization_Penalty_Charging>  (187) 
0

>  <r_epik_Ionization_Penalty_Neutral>  (187) 
0.000411106

>  <r_epik_State_Penalty>  (187) 
0.000251793

>  <r_epik_Charging_Adjusted_Penalty>  (187) 
0.000251793

>  <i_epik_Tot_Q>  (187) 
0

>  <i_epik_Tot_abs_Q>  (187) 
0

>  <s_epik_Chemistry_Notes>  (187) 
This compound contains an acetal/aminal-like group ( X-CH(R)-Y where X, Y are N, S, or O) that may be acid/base labile, releasing an aldehyde.

>  <s_lp_Force_Field>  (187) 
OPLS3e

>  <r_lp_Energy>  (187) 
60.3219

>  <b_lp_Chiralities_Consistent>  (187) 
1

>  <s_lp_Variant>  (187) 
52:0-1

>  <s_i_glide_gridfile>  (187) 
pfpi4k_grid

>  <i_i_glide_lignum>  (187) 
30

>  <i_i_glide_rotatable_bonds>  (187) 
2

>  <r_i_docking_score>  (187) 
-2.97592

>  <r_i_glide_ligand_efficiency>  (187) 
-0.0901793

>  <r_i_glide_ligand_efficiency_sa>  (187) 
-0.289253

>  <r_i_glide_ligand_efficiency_ln>  (187) 
-0.661829

>  <r_i_glide_gscore>  (187) 
-2.97592

>  <r_i_glide_lipo>  (187) 
-0.575665

>  <r_i_glide_hbond>  (187) 
-0.0468403

>  <r_i_glide_metal>  (187) 
-0

>  <r_i_glide_rewards>  (187) 
-0.333984

>  <r_i_glide_evdw>  (187) 
-31.8994

>  <r_i_glide_ecoul>  (187) 
-2.50437

>  <r_i_glide_erotb>  (187) 
0.0952677

>  <r_i_glide_esite>  (187) 
-0.14407

>  <r_i_glide_emodel>  (187) 
-38.0824

>  <r_i_glide_energy>  (187) 
-34.4038

>  <r_i_glide_einternal>  (187) 
3.71705

>  <r_i_glide_intrahb_reward>  (187) 
-0

>  <i_i_glide_confnum>  (187) 
2

>  <i_i_glide_posenum>  (187) 
34

>  <r_i_glide_eff_state_penalty>  (187) 
0

>  <ligand_id>  (187) 
52

>  <original_smiles>  (187) 
CC1CCC2C3CCC4C(CCC(n5cncn5)C4(C)O)C3OC3OC4(C)CCC1C32OO4

>  <smiles>  (187) 
[H]OC1(C([H])([H])[H])C([H])(n2nc([H])nc2[H])C([H])([H])C([H])([H])C2([H])C3([H])OC4([H])OC5(C([H])([H])[H])OOC46C([H])(C([H])([H])C5([H])[H])C([H])(C([H])([H])[H])C([H])([H])C([H])([H])C6([H])C3([H])C([H])([H])C([H])([H])C21[H]

$$$$
52:0:1
     RDKit          3D

 70 76  0  0  1  0  0  0  0  0999 V2000
    3.7812   -2.1592   -1.9140 C   0  0  0  0  0  0  0  0  0  0  0  0
    4.7994   -2.3257   -0.7737 C   0  0  2  0  0  0  0  0  0  0  0  0
    5.8894   -3.3292   -1.1984 C   0  0  0  0  0  0  0  0  0  0  0  0
    6.9794   -3.5170   -0.1239 C   0  0  0  0  0  0  0  0  0  0  0  0
    6.4377   -3.7971    1.2950 C   0  0  2  0  0  0  0  0  0  0  0  0
    6.1416   -5.2934    1.6597 C   0  0  2  0  0  0  0  0  0  0  0  0
    5.4590   -6.1429    0.5700 C   0  0  0  0  0  0  0  0  0  0  0  0
    5.1198   -7.5793    1.0123 C   0  0  0  0  0  0  0  0  0  0  0  0
    4.3001   -7.6674    2.3142 C   0  0  1  0  0  0  0  0  0  0  0  0
    4.9890   -6.8383    3.4226 C   0  0  2  0  0  0  0  0  0  0  0  0
    4.2212   -6.9321    4.7565 C   0  0  0  0  0  0  0  0  0  0  0  0
    2.7018   -6.6994    4.6163 C   0  0  0  0  0  0  0  0  0  0  0  0
    2.0487   -7.6487    3.5695 C   0  0  1  0  0  0  0  0  0  0  0  0
    0.5789   -7.5105    3.5313 N   0  0  0  0  0  0  0  0  0  0  0  0
   -0.3162   -7.6985    2.5526 C   0  0  0  0  0  0  0  0  0  0  0  0
   -1.5676   -7.4665    2.9130 N   0  0  0  0  0  0  0  0  0  0  0  0
   -1.3825   -7.2071    4.2411 C   0  0  0  0  0  0  0  0  0  0  0  0
   -0.1151   -7.2140    4.6634 N   0  0  0  0  0  0  0  0  0  0  0  0
    2.7447   -7.5029    2.1712 C   0  0  1  0  0  0  0  0  0  0  0  0
    2.2852   -6.2432    1.3800 C   0  0  0  0  0  0  0  0  0  0  0  0
    2.3434   -8.6173    1.3926 O   0  0  0  0  0  0  0  0  0  0  0  0
    5.4348   -5.3982    3.0403 C   0  0  2  0  0  0  0  0  0  0  0  0
    4.3667   -4.4691    3.1189 O   0  0  0  0  0  0  0  0  0  0  0  0
    4.8067   -3.1508    3.1030 C   0  0  2  0  0  0  0  0  0  0  0  0
    3.8122   -2.2822    3.5471 O   0  0  0  0  0  0  0  0  0  0  0  0
    3.9340   -0.9542    3.0568 C   0  0  2  0  0  0  0  0  0  0  0  0
    3.4971   -0.0163    4.1932 C   0  0  0  0  0  0  0  0  0  0  0  0
    3.0118   -0.8101    1.8257 C   0  0  0  0  0  0  0  0  0  0  0  0
    2.8847   -2.1122    1.0271 C   0  0  0  0  0  0  0  0  0  0  0  0
    4.1961   -2.7849    0.5896 C   0  0  2  0  0  0  0  0  0  0  0  0
    5.3053   -2.7954    1.6723 C   0  0  2  0  0  0  0  0  0  0  0  0
    5.8747   -1.4845    1.6936 O   0  0  0  0  0  0  0  0  0  0  0  0
    5.2902   -0.6200    2.8010 O   0  0  0  0  0  0  0  0  0  0  0  0
    3.1630   -3.0498   -2.0337 H   0  0  0  0  0  0  0  0  0  0  0  0
    4.2869   -1.9717   -2.8611 H   0  0  0  0  0  0  0  0  0  0  0  0
    3.1251   -1.3061   -1.7364 H   0  0  0  0  0  0  0  0  0  0  0  0
    5.2759   -1.3523   -0.6439 H   0  0  0  0  0  0  0  0  0  0  0  0
    5.4297   -4.2852   -1.4389 H   0  0  0  0  0  0  0  0  0  0  0  0
    6.3688   -3.0004   -2.1191 H   0  0  0  0  0  0  0  0  0  0  0  0
    7.6778   -4.2995   -0.4093 H   0  0  0  0  0  0  0  0  0  0  0  0
    7.5728   -2.6027   -0.0866 H   0  0  0  0  0  0  0  0  0  0  0  0
    7.2655   -3.5561    1.9510 H   0  0  0  0  0  0  0  0  0  0  0  0
    7.1150   -5.7662    1.7872 H   0  0  0  0  0  0  0  0  0  0  0  0
    4.5829   -5.6662    0.1688 H   0  0  0  0  0  0  0  0  0  0  0  0
    6.1353   -6.2062   -0.2746 H   0  0  0  0  0  0  0  0  0  0  0  0
    4.6193   -8.1027    0.1979 H   0  0  0  0  0  0  0  0  0  0  0  0
    6.0608   -8.1120    1.1657 H   0  0  0  0  0  0  0  0  0  0  0  0
    4.4303   -8.7022    2.6457 H   0  0  0  0  0  0  0  0  0  0  0  0
    5.9392   -7.3553    3.6044 H   0  0  0  0  0  0  0  0  0  0  0  0
    4.3765   -7.9275    5.1787 H   0  0  0  0  0  0  0  0  0  0  0  0
    4.6430   -6.2291    5.4783 H   0  0  0  0  0  0  0  0  0  0  0  0
    2.2713   -6.8560    5.6078 H   0  0  0  0  0  0  0  0  0  0  0  0
    2.5049   -5.6578    4.3652 H   0  0  0  0  0  0  0  0  0  0  0  0
    2.2462   -8.6562    3.9354 H   0  0  0  0  0  0  0  0  0  0  0  0
   -0.0538   -8.0101    1.5387 H   0  0  0  0  0  0  0  0  0  0  0  0
   -2.1986   -6.9731    4.8934 H   0  0  0  0  0  0  0  0  0  0  0  0
    2.6084   -5.3188    1.8537 H   0  0  0  0  0  0  0  0  0  0  0  0
    1.2086   -6.1646    1.2715 H   0  0  0  0  0  0  0  0  0  0  0  0
    2.6542   -6.2652    0.3565 H   0  0  0  0  0  0  0  0  0  0  0  0
    2.5652   -9.4143    1.8573 H   0  0  0  0  0  0  0  0  0  0  0  0
    6.1630   -5.1266    3.8094 H   0  0  0  0  0  0  0  0  0  0  0  0
    5.6191   -3.0255    3.8241 H   0  0  0  0  0  0  0  0  0  0  0  0
    4.1819   -0.1166    5.0350 H   0  0  0  0  0  0  0  0  0  0  0  0
    2.4932   -0.2520    4.5495 H   0  0  0  0  0  0  0  0  0  0  0  0
    3.5095    1.0253    3.8695 H   0  0  0  0  0  0  0  0  0  0  0  0
    2.0009   -0.5746    2.1638 H   0  0  0  0  0  0  0  0  0  0  0  0
    3.3127    0.0271    1.1976 H   0  0  0  0  0  0  0  0  0  0  0  0
    2.3330   -2.8280    1.6410 H   0  0  0  0  0  0  0  0  0  0  0  0
    2.2365   -1.9749    0.1726 H   0  0  0  0  0  0  0  0  0  0  0  0
    3.8690   -3.8029    0.4447 H   0  0  0  0  0  0  0  0  0  0  0  0
  1  2  1  0
  1 34  1  0
  1 35  1  0
  1 36  1  0
  2 30  1  0
  2  3  1  0
  2 37  1  1
  3  4  1  0
  3 38  1  0
  3 39  1  0
  4  5  1  0
  4 40  1  0
  4 41  1  0
  5 31  1  0
  5  6  1  0
  5 42  1  1
  6 22  1  0
  6  7  1  0
  6 43  1  1
  7  8  1  0
  7 44  1  0
  7 45  1  0
  8  9  1  0
  8 46  1  0
  8 47  1  0
  9 19  1  0
  9 10  1  0
  9 48  1  1
 10 11  1  0
 10 22  1  0
 10 49  1  1
 11 12  1  0
 11 50  1  0
 11 51  1  0
 12 13  1  0
 12 52  1  0
 12 53  1  0
 13 14  1  0
 13 19  1  0
 13 54  1  1
 14 18  1  0
 14 15  1  0
 15 16  2  0
 15 55  1  0
 16 17  1  0
 17 18  2  0
 17 56  1  0
 19 20  1  0
 19 21  1  6
 20 57  1  0
 20 58  1  0
 20 59  1  0
 21 60  1  0
 22 23  1  0
 22 61  1  1
 23 24  1  0
 24 31  1  0
 24 25  1  0
 24 62  1  1
 25 26  1  0
 26 33  1  0
 26 27  1  1
 26 28  1  0
 27 63  1  0
 27 64  1  0
 27 65  1  0
 28 29  1  0
 28 66  1  0
 28 67  1  0
 29 30  1  0
 29 68  1  0
 29 69  1  0
 30 31  1  0
 30 70  1  6
 31 32  1  1
 32 33  1  0
M  END
>  <i_m_ct_stereo_status>  (188) 
1

>  <s_m_source_file>  (188) 
/var/tmp/pbs.5076255.sched01/tmpck0ladl8/45htcshi4i.sdf

>  <i_m_source_file_index>  (188) 
30

>  <i_lp_mmshare_version>  (188) 
48012

>  <i_f3d_flags>  (188) 
0

>  <s_epik_input>  (188) 
W0NIMl0xW0NIMl1bQ0BASF0oW0NIM10pW0NAQEhdMltDSDJdW0NIMl1bQ0BdKFtDSDNdKShPTzMpT1tDQEhdNE9bQ0BIXShbQ0BASF01W0NAQEhdMVtDQF0yMzQpW0NAQEhdNltDQEhdKFtDSDJdW0NIMl01KVtDQEBdKFtDSDNdKShbT0hdKVtDQEBIXShbQ0gyXVtDSDJdNiluN1tjSF1uW2NIXW43

>  <s_epik_cmdline>  (188) 
J2VwaWtfcHl0aG9uJywgJy1waHQnLCAnMi4wJywgJy1waCcsICc3LjAnLCAnLXRuJywgJzgnLCAnLW1hJywgJzIwMCcsICctaW1hZScsICc8aW5maWxlLm1hZT4nLCAnLW9tYWUnLCAnPG91dGZpbGUubWFlPic=

>  <r_lp_tautomer_probability>  (188) 
1

>  <r_epik_Ionization_Penalty>  (188) 
0.000411106

>  <r_epik_Ionization_Penalty_Charging>  (188) 
0

>  <r_epik_Ionization_Penalty_Neutral>  (188) 
0.000411106

>  <r_epik_State_Penalty>  (188) 
0.000251793

>  <r_epik_Charging_Adjusted_Penalty>  (188) 
0.000251793

>  <i_epik_Tot_Q>  (188) 
0

>  <i_epik_Tot_abs_Q>  (188) 
0

>  <s_epik_Chemistry_Notes>  (188) 
This compound contains an acetal/aminal-like group ( X-CH(R)-Y where X, Y are N, S, or O) that may be acid/base labile, releasing an aldehyde.

>  <s_lp_Force_Field>  (188) 
OPLS3e

>  <r_lp_Energy>  (188) 
60.3219

>  <b_lp_Chiralities_Consistent>  (188) 
1

>  <s_lp_Variant>  (188) 
52:0-1

>  <s_i_glide_gridfile>  (188) 
pfpi4k_grid

>  <i_i_glide_lignum>  (188) 
30

>  <i_i_glide_rotatable_bonds>  (188) 
2

>  <r_i_docking_score>  (188) 
-2.86433

>  <r_i_glide_ligand_efficiency>  (188) 
-0.0867977

>  <r_i_glide_ligand_efficiency_sa>  (188) 
-0.278407

>  <r_i_glide_ligand_efficiency_ln>  (188) 
-0.637011

>  <r_i_glide_gscore>  (188) 
-2.86433

>  <r_i_glide_lipo>  (188) 
-0.615641

>  <r_i_glide_hbond>  (188) 
-0.0418871

>  <r_i_glide_metal>  (188) 
-0

>  <r_i_glide_rewards>  (188) 
-0.341922

>  <r_i_glide_evdw>  (188) 
-31.5761

>  <r_i_glide_ecoul>  (188) 
-1.56748

>  <r_i_glide_erotb>  (188) 
0.0952677

>  <r_i_glide_esite>  (188) 
-0.146216

>  <r_i_glide_emodel>  (188) 
-36.7799

>  <r_i_glide_energy>  (188) 
-33.1436

>  <r_i_glide_einternal>  (188) 
3.39883

>  <r_i_glide_intrahb_reward>  (188) 
-0

>  <i_i_glide_confnum>  (188) 
1

>  <i_i_glide_posenum>  (188) 
10

>  <r_i_glide_eff_state_penalty>  (188) 
0

>  <ligand_id>  (188) 
52

>  <original_smiles>  (188) 
CC1CCC2C3CCC4C(CCC(n5cncn5)C4(C)O)C3OC3OC4(C)CCC1C32OO4

>  <smiles>  (188) 
[H]OC1(C([H])([H])[H])C([H])(n2nc([H])nc2[H])C([H])([H])C([H])([H])C2([H])C3([H])OC4([H])OC5(C([H])([H])[H])OOC46C([H])(C([H])([H])C5([H])[H])C([H])(C([H])([H])[H])C([H])([H])C([H])([H])C6([H])C3([H])C([H])([H])C([H])([H])C21[H]

$$$$
52:0:2
     RDKit          3D

 70 76  0  0  1  0  0  0  0  0999 V2000
    3.8846   -2.6167   -2.1586 C   0  0  0  0  0  0  0  0  0  0  0  0
    4.7622   -2.5857   -0.8920 C   0  0  2  0  0  0  0  0  0  0  0  0
    6.0042   -3.4676   -1.1246 C   0  0  0  0  0  0  0  0  0  0  0  0
    6.9509   -3.4789    0.0796 C   0  0  0  0  0  0  0  0  0  0  0  0
    6.2520   -3.7345    1.4281 C   0  0  2  0  0  0  0  0  0  0  0  0
    6.1082   -5.2252    1.8972 C   0  0  2  0  0  0  0  0  0  0  0  0
    5.6793   -6.2204    0.8091 C   0  0  0  0  0  0  0  0  0  0  0  0
    5.4411   -7.6583    1.3010 C   0  0  0  0  0  0  0  0  0  0  0  0
    4.4628   -7.7648    2.4875 C   0  0  1  0  0  0  0  0  0  0  0  0
    4.9106   -6.7951    3.6078 C   0  0  2  0  0  0  0  0  0  0  0  0
    4.0005   -6.8988    4.8514 C   0  0  0  0  0  0  0  0  0  0  0  0
    2.4968   -6.8518    4.5251 C   0  0  0  0  0  0  0  0  0  0  0  0
    2.1177   -7.9247    3.4982 C   0  0  1  0  0  0  0  0  0  0  0  0
    0.6600   -8.0111    3.3245 N   0  0  0  0  0  0  0  0  0  0  0  0
   -0.1523   -9.0598    3.3859 C   0  0  0  0  0  0  0  0  0  0  0  0
   -1.4208   -8.8044    3.0985 N   0  0  0  0  0  0  0  0  0  0  0  0
   -1.3234   -7.4617    2.8855 C   0  0  0  0  0  0  0  0  0  0  0  0
   -0.1103   -6.9250    3.0350 N   0  0  0  0  0  0  0  0  0  0  0  0
    2.9229   -7.7921    2.1727 C   0  0  1  0  0  0  0  0  0  0  0  0
    2.4246   -6.6610    1.2448 C   0  0  0  0  0  0  0  0  0  0  0  0
    2.6982   -8.9916    1.4544 O   0  0  0  0  0  0  0  0  0  0  0  0
    5.2496   -5.3407    3.1797 C   0  0  2  0  0  0  0  0  0  0  0  0
    4.0832   -4.5461    3.0588 O   0  0  0  0  0  0  0  0  0  0  0  0
    4.3728   -3.1821    3.0040 C   0  0  2  0  0  0  0  0  0  0  0  0
    3.2398   -2.4150    3.2747 O   0  0  0  0  0  0  0  0  0  0  0  0
    3.2731   -1.1162    2.6948 C   0  0  2  0  0  0  0  0  0  0  0  0
    2.5859   -0.1727    3.6903 C   0  0  0  0  0  0  0  0  0  0  0  0
    2.5219   -1.1709    1.3585 C   0  0  0  0  0  0  0  0  0  0  0  0
    2.6437   -2.5306    0.6595 C   0  0  0  0  0  0  0  0  0  0  0  0
    4.0513   -3.0486    0.4213 C   0  0  2  0  0  0  0  0  0  0  0  0
    4.9987   -2.8488    1.6185 C   0  0  2  0  0  0  0  0  0  0  0  0
    5.4382   -1.4799    1.6126 O   0  0  0  0  0  0  0  0  0  0  0  0
    4.6099   -0.6251    2.5793 O   0  0  0  0  0  0  0  0  0  0  0  0
    3.3904   -3.5835   -2.2857 H   0  0  0  0  0  0  0  0  0  0  0  0
    4.4785   -2.4272   -3.0535 H   0  0  0  0  0  0  0  0  0  0  0  0
    3.1179   -1.8398   -2.1308 H   0  0  0  0  0  0  0  0  0  0  0  0
    5.1020   -1.5519   -0.7818 H   0  0  0  0  0  0  0  0  0  0  0  0
    5.6777   -4.4836   -1.3358 H   0  0  0  0  0  0  0  0  0  0  0  0
    6.5533   -3.1379   -2.0074 H   0  0  0  0  0  0  0  0  0  0  0  0
    7.7550   -4.1987   -0.0727 H   0  0  0  0  0  0  0  0  0  0  0  0
    7.4417   -2.5012    0.1277 H   0  0  0  0  0  0  0  0  0  0  0  0
    7.0055   -3.3133    2.0832 H   0  0  0  0  0  0  0  0  0  0  0  0
    7.1097   -5.5561    2.1715 H   0  0  0  0  0  0  0  0  0  0  0  0
    4.8238   -5.8764    0.2536 H   0  0  0  0  0  0  0  0  0  0  0  0
    6.4843   -6.2629    0.0820 H   0  0  0  0  0  0  0  0  0  0  0  0
    5.1090   -8.2913    0.4775 H   0  0  0  0  0  0  0  0  0  0  0  0
    6.4093   -8.0648    1.6090 H   0  0  0  0  0  0  0  0  0  0  0  0
    4.6536   -8.7595    2.8985 H   0  0  0  0  0  0  0  0  0  0  0  0
    5.8790   -7.1783    3.9364 H   0  0  0  0  0  0  0  0  0  0  0  0
    4.2138   -7.8443    5.3614 H   0  0  0  0  0  0  0  0  0  0  0  0
    4.2487   -6.1074    5.5611 H   0  0  0  0  0  0  0  0  0  0  0  0
    1.9332   -7.0107    5.4442 H   0  0  0  0  0  0  0  0  0  0  0  0
    2.2207   -5.8624    4.1703 H   0  0  0  0  0  0  0  0  0  0  0  0
    2.4209   -8.8729    3.9365 H   0  0  0  0  0  0  0  0  0  0  0  0
    0.1769  -10.0561    3.6437 H   0  0  0  0  0  0  0  0  0  0  0  0
   -2.1795   -6.8455    2.5981 H   0  0  0  0  0  0  0  0  0  0  0  0
    2.5152   -5.6758    1.6949 H   0  0  0  0  0  0  0  0  0  0  0  0
    1.3851   -6.8017    0.9557 H   0  0  0  0  0  0  0  0  0  0  0  0
    2.9436   -6.6435    0.2901 H   0  0  0  0  0  0  0  0  0  0  0  0
    1.7679   -9.0971    1.2969 H   0  0  0  0  0  0  0  0  0  0  0  0
    5.8329   -4.9349    4.0077 H   0  0  0  0  0  0  0  0  0  0  0  0
    5.0706   -2.9159    3.7994 H   0  0  0  0  0  0  0  0  0  0  0  0
    3.1572   -0.1283    4.6188 H   0  0  0  0  0  0  0  0  0  0  0  0
    1.5768   -0.4993    3.9464 H   0  0  0  0  0  0  0  0  0  0  0  0
    2.5174    0.8463    3.3011 H   0  0  0  0  0  0  0  0  0  0  0  0
    1.4584   -1.0364    1.5587 H   0  0  0  0  0  0  0  0  0  0  0  0
    2.7946   -0.3390    0.7134 H   0  0  0  0  0  0  0  0  0  0  0  0
    2.1020   -3.2678    1.2519 H   0  0  0  0  0  0  0  0  0  0  0  0
    2.1524   -2.5719   -0.2978 H   0  0  0  0  0  0  0  0  0  0  0  0
    3.8668   -4.1068    0.3066 H   0  0  0  0  0  0  0  0  0  0  0  0
  1  2  1  0
  1 34  1  0
  1 35  1  0
  1 36  1  0
  2 30  1  0
  2  3  1  0
  2 37  1  1
  3  4  1  0
  3 38  1  0
  3 39  1  0
  4  5  1  0
  4 40  1  0
  4 41  1  0
  5 31  1  0
  5  6  1  0
  5 42  1  1
  6 22  1  0
  6  7  1  0
  6 43  1  1
  7  8  1  0
  7 44  1  0
  7 45  1  0
  8  9  1  0
  8 46  1  0
  8 47  1  0
  9 19  1  0
  9 10  1  0
  9 48  1  1
 10 11  1  0
 10 22  1  0
 10 49  1  1
 11 12  1  0
 11 50  1  0
 11 51  1  0
 12 13  1  0
 12 52  1  0
 12 53  1  0
 13 14  1  0
 13 19  1  0
 13 54  1  1
 14 18  1  0
 14 15  1  0
 15 16  2  0
 15 55  1  0
 16 17  1  0
 17 18  2  0
 17 56  1  0
 19 20  1  0
 19 21  1  6
 20 57  1  0
 20 58  1  0
 20 59  1  0
 21 60  1  0
 22 23  1  0
 22 61  1  1
 23 24  1  0
 24 31  1  0
 24 25  1  0
 24 62  1  1
 25 26  1  0
 26 33  1  0
 26 27  1  1
 26 28  1  0
 27 63  1  0
 27 64  1  0
 27 65  1  0
 28 29  1  0
 28 66  1  0
 28 67  1  0
 29 30  1  0
 29 68  1  0
 29 69  1  0
 30 31  1  0
 30 70  1  6
 31 32  1  1
 32 33  1  0
M  END
>  <i_m_ct_stereo_status>  (189) 
1

>  <s_m_source_file>  (189) 
/var/tmp/pbs.5076255.sched01/tmpck0ladl8/45htcshi4i.sdf

>  <i_m_source_file_index>  (189) 
30

>  <i_lp_mmshare_version>  (189) 
48012

>  <i_f3d_flags>  (189) 
0

>  <s_epik_input>  (189) 
W0NIMl0xW0NIMl1bQ0BASF0oW0NIM10pW0NAQEhdMltDSDJdW0NIMl1bQ0BdKFtDSDNdKShPTzMpT1tDQEhdNE9bQ0BIXShbQ0BASF01W0NAQEhdMVtDQF0yMzQpW0NAQEhdNltDQEhdKFtDSDJdW0NIMl01KVtDQEBdKFtDSDNdKShbT0hdKVtDQEBIXShbQ0gyXVtDSDJdNiluN1tjSF1uW2NIXW43

>  <s_epik_cmdline>  (189) 
J2VwaWtfcHl0aG9uJywgJy1waHQnLCAnMi4wJywgJy1waCcsICc3LjAnLCAnLXRuJywgJzgnLCAnLW1hJywgJzIwMCcsICctaW1hZScsICc8aW5maWxlLm1hZT4nLCAnLW9tYWUnLCAnPG91dGZpbGUubWFlPic=

>  <r_lp_tautomer_probability>  (189) 
1

>  <r_epik_Ionization_Penalty>  (189) 
0.000411106

>  <r_epik_Ionization_Penalty_Charging>  (189) 
0

>  <r_epik_Ionization_Penalty_Neutral>  (189) 
0.000411106

>  <r_epik_State_Penalty>  (189) 
0.000251793

>  <r_epik_Charging_Adjusted_Penalty>  (189) 
0.000251793

>  <i_epik_Tot_Q>  (189) 
0

>  <i_epik_Tot_abs_Q>  (189) 
0

>  <s_epik_Chemistry_Notes>  (189) 
This compound contains an acetal/aminal-like group ( X-CH(R)-Y where X, Y are N, S, or O) that may be acid/base labile, releasing an aldehyde.

>  <s_lp_Force_Field>  (189) 
OPLS3e

>  <r_lp_Energy>  (189) 
60.3219

>  <b_lp_Chiralities_Consistent>  (189) 
1

>  <s_lp_Variant>  (189) 
52:0-1

>  <s_i_glide_gridfile>  (189) 
pfpi4k_grid

>  <i_i_glide_lignum>  (189) 
30

>  <i_i_glide_rotatable_bonds>  (189) 
2

>  <r_i_docking_score>  (189) 
-2.69614

>  <r_i_glide_ligand_efficiency>  (189) 
-0.0817013

>  <r_i_glide_ligand_efficiency_sa>  (189) 
-0.26206

>  <r_i_glide_ligand_efficiency_ln>  (189) 
-0.599608

>  <r_i_glide_gscore>  (189) 
-2.69614

>  <r_i_glide_lipo>  (189) 
-0.591116

>  <r_i_glide_hbond>  (189) 
-0.056128

>  <r_i_glide_metal>  (189) 
-0

>  <r_i_glide_rewards>  (189) 
-0.294579

>  <r_i_glide_evdw>  (189) 
-31.4017

>  <r_i_glide_ecoul>  (189) 
-0.881527

>  <r_i_glide_erotb>  (189) 
0.0952677

>  <r_i_glide_esite>  (189) 
-0.147275

>  <r_i_glide_emodel>  (189) 
-36.8513

>  <r_i_glide_energy>  (189) 
-32.2832

>  <r_i_glide_einternal>  (189) 
0.102316

>  <r_i_glide_intrahb_reward>  (189) 
-0

>  <i_i_glide_confnum>  (189) 
2

>  <i_i_glide_posenum>  (189) 
40

>  <r_i_glide_eff_state_penalty>  (189) 
0

>  <ligand_id>  (189) 
52

>  <original_smiles>  (189) 
CC1CCC2C3CCC4C(CCC(n5cncn5)C4(C)O)C3OC3OC4(C)CCC1C32OO4

>  <smiles>  (189) 
[H]OC1(C([H])([H])[H])C([H])(n2nc([H])nc2[H])C([H])([H])C([H])([H])C2([H])C3([H])OC4([H])OC5(C([H])([H])[H])OOC46C([H])(C([H])([H])C5([H])[H])C([H])(C([H])([H])[H])C([H])([H])C([H])([H])C6([H])C3([H])C([H])([H])C([H])([H])C21[H]

$$$$
53:0:0
     RDKit          3D

 56 60  0  0  1  0  0  0  0  0999 V2000
    1.6087   -7.6373    1.9437 C   0  0  0  0  0  0  0  0  0  0  0  0
    2.5358   -6.5506    1.4395 C   0  0  0  0  0  0  0  0  0  0  0  0
    2.1216   -5.5940    0.5790 C   0  0  0  0  0  0  0  0  0  0  0  0
    3.0999   -4.5633    0.0737 C   0  0  1  0  0  0  0  0  0  0  0  0
    2.6209   -3.2541   -0.5479 C   0  0  2  0  0  0  0  0  0  0  0  0
    2.2669   -3.2953   -2.0404 C   0  0  0  0  0  0  0  0  0  0  0  0
    3.4813   -2.9740   -2.6941 O   0  0  0  0  0  0  0  0  0  0  0  0
    4.4147   -2.4372   -1.9072 C   0  0  0  0  0  0  0  0  0  0  0  0
    5.5285   -2.0672   -2.2734 O   0  0  0  0  0  0  0  0  0  0  0  0
    3.8992   -2.4103   -0.4677 C   0  0  2  0  0  0  0  0  0  0  0  0
    4.8518   -3.0621    0.4668 N   0  0  0  0  0  0  0  0  0  0  0  0
    5.4254   -2.2260    1.5202 C   0  0  1  0  0  0  0  0  0  0  0  0
    6.0315   -0.8686    1.0985 C   0  0  0  0  0  0  0  0  0  0  0  0
    7.2917   -1.0571    0.4884 O   0  0  0  0  0  0  0  0  0  0  0  0
    4.3866   -2.2156    2.6517 C   0  0  1  0  0  0  0  0  0  0  0  0
    3.6145   -0.9099    2.8894 C   0  0  0  0  0  0  0  0  0  0  0  0
    4.0662    0.0164    3.8589 C   0  0  0  0  0  0  0  0  0  0  0  0
    3.3456    1.2056    4.1017 C   0  0  0  0  0  0  0  0  0  0  0  0
    2.1618    1.4780    3.3886 C   0  0  0  0  0  0  0  0  0  0  0  0
    1.6939    0.5591    2.4311 C   0  0  0  0  0  0  0  0  0  0  0  0
    0.4210    0.7926    1.6398 C   0  0  0  0  0  0  0  0  0  0  0  0
   -0.3858    1.8543    2.1008 O   0  0  0  0  0  0  0  0  0  0  0  0
    2.4208   -0.6213    2.1896 C   0  0  0  0  0  0  0  0  0  0  0  0
    3.5022   -3.3715    2.3388 N   0  0  2  0  0  0  0  0  0  0  0  0
    3.0682   -4.1003    3.5638 C   0  0  0  0  0  0  0  0  0  0  0  0
    4.0904   -4.1056    1.1464 C   0  0  1  0  0  0  0  0  0  0  0  0
    4.8423   -5.3870    1.5763 C   0  0  0  0  0  0  0  0  0  0  0  0
    6.0651   -5.4261    1.6237 O   0  0  0  0  0  0  0  0  0  0  0  0
    3.9839   -6.6242    1.9497 C   0  0  0  0  0  0  0  0  0  0  0  0
    1.5612   -7.6129    3.0337 H   0  0  0  0  0  0  0  0  0  0  0  0
    1.9729   -8.6200    1.6380 H   0  0  0  0  0  0  0  0  0  0  0  0
    0.5986   -7.5138    1.5509 H   0  0  0  0  0  0  0  0  0  0  0  0
    1.1199   -5.5814    0.1849 H   0  0  0  0  0  0  0  0  0  0  0  0
    3.6626   -5.0795   -0.7071 H   0  0  0  0  0  0  0  0  0  0  0  0
    1.8123   -2.8259    0.0420 H   0  0  0  0  0  0  0  0  0  0  0  0
    1.8531   -4.2529   -2.3489 H   0  0  0  0  0  0  0  0  0  0  0  0
    1.5308   -2.5423   -2.3093 H   0  0  0  0  0  0  0  0  0  0  0  0
    3.6505   -1.3847   -0.1992 H   0  0  0  0  0  0  0  0  0  0  0  0
    6.2592   -2.7921    1.9423 H   0  0  0  0  0  0  0  0  0  0  0  0
    5.3944   -0.2643    0.4495 H   0  0  0  0  0  0  0  0  0  0  0  0
    6.2146   -0.2744    1.9959 H   0  0  0  0  0  0  0  0  0  0  0  0
    7.8783   -0.4268    0.8849 H   0  0  0  0  0  0  0  0  0  0  0  0
    4.9230   -2.4260    3.5803 H   0  0  0  0  0  0  0  0  0  0  0  0
    4.9722   -0.1738    4.4169 H   0  0  0  0  0  0  0  0  0  0  0  0
    3.6998    1.9187    4.8325 H   0  0  0  0  0  0  0  0  0  0  0  0
    1.6181    2.3905    3.5849 H   0  0  0  0  0  0  0  0  0  0  0  0
    0.6794    0.9594    0.5969 H   0  0  0  0  0  0  0  0  0  0  0  0
   -0.1707   -0.1190    1.6691 H   0  0  0  0  0  0  0  0  0  0  0  0
   -0.1145    2.6639    1.6712 H   0  0  0  0  0  0  0  0  0  0  0  0
    2.0184   -1.2905    1.4548 H   0  0  0  0  0  0  0  0  0  0  0  0
    3.9006   -4.5937    4.0745 H   0  0  0  0  0  0  0  0  0  0  0  0
    2.2734   -4.8227    3.3657 H   0  0  0  0  0  0  0  0  0  0  0  0
    2.6473   -3.3754    4.2644 H   0  0  0  0  0  0  0  0  0  0  0  0
    3.9836   -6.7469    3.0329 H   0  0  0  0  0  0  0  0  0  0  0  0
    4.4551   -7.5167    1.5349 H   0  0  0  0  0  0  0  0  0  0  0  0
    2.6709   -2.9388    1.9659 H   0  0  0  0  0  0  0  0  0  0  0  0
  1  2  1  0
  1 30  1  0
  1 31  1  0
  1 32  1  0
  2 29  1  0
  2  3  2  0
  3  4  1  0
  3 33  1  0
  4 26  1  0
  4  5  1  0
  4 34  1  6
  5 10  1  0
  5  6  1  0
  5 35  1  1
  6  7  1  0
  6 36  1  0
  6 37  1  0
  7  8  1  0
  8  9  2  0
  8 10  1  0
 10 11  1  0
 10 38  1  1
 11 26  1  0
 11 12  1  0
 12 13  1  0
 12 15  1  0
 12 39  1  1
 13 14  1  0
 13 40  1  0
 13 41  1  0
 14 42  1  0
 15 16  1  0
 15 24  1  0
 15 43  1  1
 16 23  1  0
 16 17  2  0
 17 18  1  0
 17 44  1  0
 18 19  2  0
 18 45  1  0
 19 20  1  0
 19 46  1  0
 20 21  1  0
 20 23  2  0
 21 22  1  0
 21 47  1  0
 21 48  1  0
 22 49  1  0
 23 50  1  0
 24 25  1  0
 24 26  1  0
 24 56  1  6
 25 51  1  0
 25 52  1  0
 25 53  1  0
 26 27  1  1
 27 28  2  0
 27 29  1  0
 29 54  1  0
 29 55  1  0
M  CHG  1  24   1
M  END
>  <i_m_ct_stereo_status>  (190) 
1

>  <s_m_source_file>  (190) 
/var/tmp/pbs.5076255.sched01/tmpck0ladl8/45htcshi4i.sdf

>  <i_m_source_file_index>  (190) 
31

>  <i_lp_mmshare_version>  (190) 
48012

>  <i_f3d_flags>  (190) 
0

>  <s_epik_input>  (190) 
Tz1DMVtDSDJdQyhbQ0gzXSk9W0NIXVtDQEhdKFtDQEBdMTIzKVtDQEhdNFtDQEhdKEMoPU8pT1tDSDJdNClOMltDQEBIXShbQ0gyXVtPSF0pW0NASF0oTjNbQ0gzXSljNVtjSF1bY0hdW2NIXWMoW2NIXTUpW0NIMl1bT0hd

>  <s_epik_cmdline>  (190) 
J2VwaWtfcHl0aG9uJywgJy1waHQnLCAnMi4wJywgJy1waCcsICc3LjAnLCAnLXRuJywgJzgnLCAnLW1hJywgJzIwMCcsICctaW1hZScsICc8aW5maWxlLm1hZT4nLCAnLW9tYWUnLCAnPG91dGZpbGUubWFlPic=

>  <r_epik_Ionization_Penalty>  (190) 
0.167869

>  <r_epik_Ionization_Penalty_Charging>  (190) 
0.159749

>  <r_epik_Ionization_Penalty_Neutral>  (190) 
0.00811945

>  <r_epik_State_Penalty>  (190) 
0.180488

>  <r_epik_Charging_Adjusted_Penalty>  (190) 
0.340238

>  <i_epik_Tot_Q>  (190) 
1

>  <i_epik_Tot_abs_Q>  (190) 
1

>  <s_epik_Chemistry_Notes>  (190) 
This compound has an ester and may undergo hydrolysis at high or low pH.

>  <s_lp_Force_Field>  (190) 
OPLS3e

>  <r_lp_Energy>  (190) 
42.0552

>  <b_lp_Chiralities_Consistent>  (190) 
1

>  <s_lp_Variant>  (190) 
53:0-1

>  <s_i_glide_gridfile>  (190) 
pfpi4k_grid

>  <i_i_glide_lignum>  (190) 
31

>  <i_i_glide_rotatable_bonds>  (190) 
5

>  <r_i_docking_score>  (190) 
-3.92411

>  <r_i_glide_ligand_efficiency>  (190) 
-0.135314

>  <r_i_glide_ligand_efficiency_sa>  (190) 
-0.415728

>  <r_i_glide_ligand_efficiency_ln>  (190) 
-0.898521

>  <r_i_glide_gscore>  (190) 
-3.92411

>  <r_i_glide_lipo>  (190) 
-0.407161

>  <r_i_glide_hbond>  (190) 
-0.152959

>  <r_i_glide_metal>  (190) 
-0

>  <r_i_glide_rewards>  (190) 
-0.755079

>  <r_i_glide_evdw>  (190) 
-27.6172

>  <r_i_glide_ecoul>  (190) 
-10.6082

>  <r_i_glide_erotb>  (190) 
0.368394

>  <r_i_glide_esite>  (190) 
-0.0052041

>  <r_i_glide_emodel>  (190) 
-44.0797

>  <r_i_glide_energy>  (190) 
-38.2255

>  <r_i_glide_einternal>  (190) 
7.10025

>  <r_i_glide_intrahb_reward>  (190) 
-0

>  <i_i_glide_confnum>  (190) 
4

>  <i_i_glide_posenum>  (190) 
18

>  <r_i_glide_eff_state_penalty>  (190) 
0

>  <ligand_id>  (190) 
53

>  <original_smiles>  (190) 
CC1=CC2C3COC(=O)C3N3C(CO)C(c4cccc(CO)c4)N(C)C23C(=O)C1

>  <smiles>  (190) 
[H]OC([H])([H])c1c([H])c([H])c([H])c(C2([H])C([H])(C([H])([H])O[H])N3C4([H])C(=O)OC([H])([H])C4([H])C4([H])C([H])=C(C([H])([H])[H])C([H])([H])C(=O)C34[N+]2([H])C([H])([H])[H])c1[H]

$$$$
53:0:1
     RDKit          3D

 56 60  0  0  1  0  0  0  0  0999 V2000
    1.8270   -7.6725    1.4299 C   0  0  0  0  0  0  0  0  0  0  0  0
    2.6162   -6.3808    1.4482 C   0  0  0  0  0  0  0  0  0  0  0  0
    2.4820   -5.4449    0.4810 C   0  0  0  0  0  0  0  0  0  0  0  0
    3.3416   -4.2072    0.5350 C   0  0  1  0  0  0  0  0  0  0  0  0
    2.9796   -2.9658   -0.2713 C   0  0  2  0  0  0  0  0  0  0  0  0
    3.4172   -2.9102   -1.7363 C   0  0  0  0  0  0  0  0  0  0  0  0
    4.7010   -2.2943   -1.7077 O   0  0  0  0  0  0  0  0  0  0  0  0
    5.0268   -1.7190   -0.5578 C   0  0  0  0  0  0  0  0  0  0  0  0
    6.0527   -1.0854   -0.3050 O   0  0  0  0  0  0  0  0  0  0  0  0
    3.8899   -1.9464    0.3998 C   0  0  2  0  0  0  0  0  0  0  0  0
    4.2934   -2.4346    1.7426 N   0  0  0  0  0  0  0  0  0  0  0  0
    4.0313   -1.5980    2.9174 C   0  0  1  0  0  0  0  0  0  0  0  0
    4.4860   -0.1171    2.8693 C   0  0  0  0  0  0  0  0  0  0  0  0
    5.8254   -0.0076    3.2899 O   0  0  0  0  0  0  0  0  0  0  0  0
    2.5924   -1.9051    3.3411 C   0  0  1  0  0  0  0  0  0  0  0  0
    1.4983   -0.8260    3.1997 C   0  0  0  0  0  0  0  0  0  0  0  0
    1.4589    0.1364    2.1517 C   0  0  0  0  0  0  0  0  0  0  0  0
    0.4550    1.1054    2.0436 C   0  0  0  0  0  0  0  0  0  0  0  0
   -0.5470    1.1740    3.0082 C   0  0  0  0  0  0  0  0  0  0  0  0
   -0.5307    0.2645    4.0799 C   0  0  0  0  0  0  0  0  0  0  0  0
   -1.5928    0.3658    5.1389 C   0  0  0  0  0  0  0  0  0  0  0  0
   -2.5373   -0.6651    4.9903 O   0  0  0  0  0  0  0  0  0  0  0  0
    0.4801   -0.7248    4.1699 C   0  0  0  0  0  0  0  0  0  0  0  0
    2.2720   -3.1693    2.6417 N   0  0  2  0  0  0  0  0  0  0  0  0
    1.4723   -4.0864    3.4871 C   0  0  0  0  0  0  0  0  0  0  0  0
    3.5269   -3.6576    1.9496 C   0  0  1  0  0  0  0  0  0  0  0  0
    4.2157   -4.8052    2.7241 C   0  0  0  0  0  0  0  0  0  0  0  0
    5.2174   -4.6101    3.3951 O   0  0  0  0  0  0  0  0  0  0  0  0
    3.5938   -6.2198    2.6258 C   0  0  0  0  0  0  0  0  0  0  0  0
    1.2459   -7.7742    2.3480 H   0  0  0  0  0  0  0  0  0  0  0  0
    2.5054   -8.5269    1.3563 H   0  0  0  0  0  0  0  0  0  0  0  0
    1.1343   -7.7048    0.5858 H   0  0  0  0  0  0  0  0  0  0  0  0
    1.8203   -5.5723   -0.3701 H   0  0  0  0  0  0  0  0  0  0  0  0
    4.3095   -4.5438    0.1485 H   0  0  0  0  0  0  0  0  0  0  0  0
    1.9220   -2.7238   -0.1411 H   0  0  0  0  0  0  0  0  0  0  0  0
    3.4588   -3.8881   -2.2060 H   0  0  0  0  0  0  0  0  0  0  0  0
    2.7370   -2.2806   -2.3100 H   0  0  0  0  0  0  0  0  0  0  0  0
    3.3577   -0.9907    0.4165 H   0  0  0  0  0  0  0  0  0  0  0  0
    4.6197   -2.0302    3.7296 H   0  0  0  0  0  0  0  0  0  0  0  0
    4.3754    0.3490    1.8903 H   0  0  0  0  0  0  0  0  0  0  0  0
    3.9036    0.4763    3.5747 H   0  0  0  0  0  0  0  0  0  0  0  0
    6.3878   -0.3499    2.6126 H   0  0  0  0  0  0  0  0  0  0  0  0
    2.6501   -2.1010    4.4075 H   0  0  0  0  0  0  0  0  0  0  0  0
    2.2109    0.2430    1.3724 H   0  0  0  0  0  0  0  0  0  0  0  0
    0.4941    1.8043    1.2118 H   0  0  0  0  0  0  0  0  0  0  0  0
   -1.3052    1.9454    2.9105 H   0  0  0  0  0  0  0  0  0  0  0  0
   -1.1164    0.2987    6.1168 H   0  0  0  0  0  0  0  0  0  0  0  0
   -2.0915    1.3389    5.0893 H   0  0  0  0  0  0  0  0  0  0  0  0
   -3.1167   -0.3972    4.2837 H   0  0  0  0  0  0  0  0  0  0  0  0
    0.4689   -1.4004    5.0241 H   0  0  0  0  0  0  0  0  0  0  0  0
    2.0104   -4.4568    4.3632 H   0  0  0  0  0  0  0  0  0  0  0  0
    1.0637   -4.9385    2.9435 H   0  0  0  0  0  0  0  0  0  0  0  0
    0.5992   -3.5648    3.8774 H   0  0  0  0  0  0  0  0  0  0  0  0
    3.0791   -6.4524    3.5630 H   0  0  0  0  0  0  0  0  0  0  0  0
    4.3986   -6.9554    2.5208 H   0  0  0  0  0  0  0  0  0  0  0  0
    1.6700   -2.8702    1.9049 H   0  0  0  0  0  0  0  0  0  0  0  0
  1  2  1  0
  1 30  1  0
  1 31  1  0
  1 32  1  0
  2 29  1  0
  2  3  2  0
  3  4  1  0
  3 33  1  0
  4 26  1  0
  4  5  1  0
  4 34  1  6
  5 10  1  0
  5  6  1  0
  5 35  1  6
  6  7  1  0
  6 36  1  0
  6 37  1  0
  7  8  1  0
  8  9  2  0
  8 10  1  0
 10 11  1  0
 10 38  1  1
 11 26  1  0
 11 12  1  0
 12 13  1  0
 12 15  1  0
 12 39  1  1
 13 14  1  0
 13 40  1  0
 13 41  1  0
 14 42  1  0
 15 16  1  0
 15 24  1  0
 15 43  1  1
 16 23  1  0
 16 17  2  0
 17 18  1  0
 17 44  1  0
 18 19  2  0
 18 45  1  0
 19 20  1  0
 19 46  1  0
 20 21  1  0
 20 23  2  0
 21 22  1  0
 21 47  1  0
 21 48  1  0
 22 49  1  0
 23 50  1  0
 24 25  1  0
 24 26  1  0
 24 56  1  6
 25 51  1  0
 25 52  1  0
 25 53  1  0
 26 27  1  1
 27 28  2  0
 27 29  1  0
 29 54  1  0
 29 55  1  0
M  CHG  1  24   1
M  END
>  <i_m_ct_stereo_status>  (191) 
1

>  <s_m_source_file>  (191) 
/var/tmp/pbs.5076255.sched01/tmpck0ladl8/45htcshi4i.sdf

>  <i_m_source_file_index>  (191) 
31

>  <i_lp_mmshare_version>  (191) 
48012

>  <i_f3d_flags>  (191) 
0

>  <s_epik_input>  (191) 
Tz1DMVtDSDJdQyhbQ0gzXSk9W0NIXVtDQEhdKFtDQEBdMTIzKVtDQEhdNFtDQEhdKEMoPU8pT1tDSDJdNClOMltDQEBIXShbQ0gyXVtPSF0pW0NASF0oTjNbQ0gzXSljNVtjSF1bY0hdW2NIXWMoW2NIXTUpW0NIMl1bT0hd

>  <s_epik_cmdline>  (191) 
J2VwaWtfcHl0aG9uJywgJy1waHQnLCAnMi4wJywgJy1waCcsICc3LjAnLCAnLXRuJywgJzgnLCAnLW1hJywgJzIwMCcsICctaW1hZScsICc8aW5maWxlLm1hZT4nLCAnLW9tYWUnLCAnPG91dGZpbGUubWFlPic=

>  <r_epik_Ionization_Penalty>  (191) 
0.167869

>  <r_epik_Ionization_Penalty_Charging>  (191) 
0.159749

>  <r_epik_Ionization_Penalty_Neutral>  (191) 
0.00811945

>  <r_epik_State_Penalty>  (191) 
0.180488

>  <r_epik_Charging_Adjusted_Penalty>  (191) 
0.340238

>  <i_epik_Tot_Q>  (191) 
1

>  <i_epik_Tot_abs_Q>  (191) 
1

>  <s_epik_Chemistry_Notes>  (191) 
This compound has an ester and may undergo hydrolysis at high or low pH.

>  <s_lp_Force_Field>  (191) 
OPLS3e

>  <r_lp_Energy>  (191) 
42.0552

>  <b_lp_Chiralities_Consistent>  (191) 
1

>  <s_lp_Variant>  (191) 
53:0-1

>  <s_i_glide_gridfile>  (191) 
pfpi4k_grid

>  <i_i_glide_lignum>  (191) 
31

>  <i_i_glide_rotatable_bonds>  (191) 
5

>  <r_i_docking_score>  (191) 
-3.78174

>  <r_i_glide_ligand_efficiency>  (191) 
-0.130405

>  <r_i_glide_ligand_efficiency_sa>  (191) 
-0.400644

>  <r_i_glide_ligand_efficiency_ln>  (191) 
-0.865921

>  <r_i_glide_gscore>  (191) 
-3.78174

>  <r_i_glide_lipo>  (191) 
-0.057443

>  <r_i_glide_hbond>  (191) 
-0.44581

>  <r_i_glide_metal>  (191) 
-0

>  <r_i_glide_rewards>  (191) 
-0.690917

>  <r_i_glide_evdw>  (191) 
-26.6525

>  <r_i_glide_ecoul>  (191) 
-10.6442

>  <r_i_glide_erotb>  (191) 
0.368394

>  <r_i_glide_esite>  (191) 
-0.026705

>  <r_i_glide_emodel>  (191) 
-43.8467

>  <r_i_glide_energy>  (191) 
-37.2967

>  <r_i_glide_einternal>  (191) 
4.85064

>  <r_i_glide_intrahb_reward>  (191) 
-0

>  <i_i_glide_confnum>  (191) 
2

>  <i_i_glide_posenum>  (191) 
1

>  <r_i_glide_eff_state_penalty>  (191) 
0

>  <ligand_id>  (191) 
53

>  <original_smiles>  (191) 
CC1=CC2C3COC(=O)C3N3C(CO)C(c4cccc(CO)c4)N(C)C23C(=O)C1

>  <smiles>  (191) 
[H]OC([H])([H])c1c([H])c([H])c([H])c(C2([H])C([H])(C([H])([H])O[H])N3C4([H])C(=O)OC([H])([H])C4([H])C4([H])C([H])=C(C([H])([H])[H])C([H])([H])C(=O)C34[N+]2([H])C([H])([H])[H])c1[H]

$$$$
53:0:2
     RDKit          3D

 56 60  0  0  1  0  0  0  0  0999 V2000
    4.0326   -1.4763   -3.7838 C   0  0  0  0  0  0  0  0  0  0  0  0
    4.3245   -1.6846   -2.3112 C   0  0  0  0  0  0  0  0  0  0  0  0
    3.3381   -1.8112   -1.4127 C   0  0  0  0  0  0  0  0  0  0  0  0
    3.6409   -1.8834    0.0762 C   0  0  1  0  0  0  0  0  0  0  0  0
    2.6127   -2.3632    1.1088 C   0  0  2  0  0  0  0  0  0  0  0  0
    1.6706   -1.2941    1.6854 C   0  0  0  0  0  0  0  0  0  0  0  0
    2.3209   -0.8275    2.8505 O   0  0  0  0  0  0  0  0  0  0  0  0
    3.3547   -1.5524    3.2553 C   0  0  0  0  0  0  0  0  0  0  0  0
    4.0360   -1.3471    4.2582 O   0  0  0  0  0  0  0  0  0  0  0  0
    3.5282   -2.7259    2.2998 C   0  0  2  0  0  0  0  0  0  0  0  0
    4.9195   -2.8621    1.8003 N   0  0  0  0  0  0  0  0  0  0  0  0
    5.6105   -4.1131    2.1036 C   0  0  1  0  0  0  0  0  0  0  0  0
    5.5674   -4.6049    3.5692 C   0  0  0  0  0  0  0  0  0  0  0  0
    6.4903   -5.6629    3.7467 O   0  0  0  0  0  0  0  0  0  0  0  0
    5.2084   -5.1044    0.9978 C   0  0  1  0  0  0  0  0  0  0  0  0
    4.2977   -6.2832    1.3803 C   0  0  0  0  0  0  0  0  0  0  0  0
    4.7900   -7.6094    1.3650 C   0  0  0  0  0  0  0  0  0  0  0  0
    3.9577   -8.6937    1.7261 C   0  0  0  0  0  0  0  0  0  0  0  0
    2.6300   -8.4553    2.1387 C   0  0  0  0  0  0  0  0  0  0  0  0
    2.1272   -7.1413    2.1569 C   0  0  0  0  0  0  0  0  0  0  0  0
    0.7217   -6.8337    2.6254 C   0  0  0  0  0  0  0  0  0  0  0  0
   -0.1686   -6.6675    1.5442 O   0  0  0  0  0  0  0  0  0  0  0  0
    2.9444   -6.0745    1.7369 C   0  0  0  0  0  0  0  0  0  0  0  0
    4.6093   -4.2465   -0.0560 N   0  0  2  0  0  0  0  0  0  0  0  0
    4.9861   -4.7067   -1.4077 C   0  0  0  0  0  0  0  0  0  0  0  0
    4.8316   -2.7964    0.3415 C   0  0  1  0  0  0  0  0  0  0  0  0
    6.0184   -2.1406   -0.4229 C   0  0  0  0  0  0  0  0  0  0  0  0
    7.1028   -1.9285    0.1094 O   0  0  0  0  0  0  0  0  0  0  0  0
    5.7976   -1.7440   -1.9066 C   0  0  0  0  0  0  0  0  0  0  0  0
    4.4533   -2.3037   -4.3508 H   0  0  0  0  0  0  0  0  0  0  0  0
    4.4667   -0.5357   -4.1280 H   0  0  0  0  0  0  0  0  0  0  0  0
    2.9560   -1.4323   -3.9692 H   0  0  0  0  0  0  0  0  0  0  0  0
    2.3178   -1.8003   -1.7725 H   0  0  0  0  0  0  0  0  0  0  0  0
    3.9046   -0.8638    0.3671 H   0  0  0  0  0  0  0  0  0  0  0  0
    2.0675   -3.2194    0.7094 H   0  0  0  0  0  0  0  0  0  0  0  0
    1.4916   -0.4518    1.0180 H   0  0  0  0  0  0  0  0  0  0  0  0
    0.7134   -1.7376    1.9637 H   0  0  0  0  0  0  0  0  0  0  0  0
    3.1850   -3.5914    2.8569 H   0  0  0  0  0  0  0  0  0  0  0  0
    6.6630   -3.8876    1.9192 H   0  0  0  0  0  0  0  0  0  0  0  0
    5.8152   -3.7774    4.2394 H   0  0  0  0  0  0  0  0  0  0  0  0
    4.5783   -4.9603    3.8600 H   0  0  0  0  0  0  0  0  0  0  0  0
    7.3670   -5.3469    3.5776 H   0  0  0  0  0  0  0  0  0  0  0  0
    6.1391   -5.5370    0.6340 H   0  0  0  0  0  0  0  0  0  0  0  0
    5.8155   -7.8087    1.0830 H   0  0  0  0  0  0  0  0  0  0  0  0
    4.3392   -9.7085    1.7044 H   0  0  0  0  0  0  0  0  0  0  0  0
    1.9967   -9.2853    2.4246 H   0  0  0  0  0  0  0  0  0  0  0  0
    0.3506   -7.6002    3.3013 H   0  0  0  0  0  0  0  0  0  0  0  0
    0.7373   -5.9071    3.1986 H   0  0  0  0  0  0  0  0  0  0  0  0
   -0.2776   -7.5185    1.1436 H   0  0  0  0  0  0  0  0  0  0  0  0
    2.4945   -5.1019    1.7173 H   0  0  0  0  0  0  0  0  0  0  0  0
    6.0393   -4.5142   -1.5548 H   0  0  0  0  0  0  0  0  0  0  0  0
    4.4077   -4.2371   -2.2079 H   0  0  0  0  0  0  0  0  0  0  0  0
    4.8113   -5.7845   -1.4639 H   0  0  0  0  0  0  0  0  0  0  0  0
    6.3131   -2.4474   -2.5663 H   0  0  0  0  0  0  0  0  0  0  0  0
    6.2149   -0.7555   -2.0728 H   0  0  0  0  0  0  0  0  0  0  0  0
    3.6147   -4.4033    0.0291 H   0  0  0  0  0  0  0  0  0  0  0  0
  1  2  1  0
  1 30  1  0
  1 31  1  0
  1 32  1  0
  2 29  1  0
  2  3  2  0
  3  4  1  0
  3 33  1  0
  4 26  1  0
  4  5  1  0
  4 34  1  1
  5 10  1  0
  5  6  1  0
  5 35  1  6
  6  7  1  0
  6 36  1  0
  6 37  1  0
  7  8  1  0
  8  9  2  0
  8 10  1  0
 10 11  1  0
 10 38  1  1
 11 26  1  0
 11 12  1  0
 12 13  1  0
 12 15  1  0
 12 39  1  6
 13 14  1  0
 13 40  1  0
 13 41  1  0
 14 42  1  0
 15 16  1  0
 15 24  1  0
 15 43  1  6
 16 23  1  0
 16 17  2  0
 17 18  1  0
 17 44  1  0
 18 19  2  0
 18 45  1  0
 19 20  1  0
 19 46  1  0
 20 21  1  0
 20 23  2  0
 21 22  1  0
 21 47  1  0
 21 48  1  0
 22 49  1  0
 23 50  1  0
 24 25  1  0
 24 26  1  0
 24 56  1  6
 25 51  1  0
 25 52  1  0
 25 53  1  0
 26 27  1  6
 27 28  2  0
 27 29  1  0
 29 54  1  0
 29 55  1  0
M  CHG  1  24   1
M  END
>  <i_m_ct_stereo_status>  (192) 
1

>  <s_m_source_file>  (192) 
/var/tmp/pbs.5076255.sched01/tmpck0ladl8/45htcshi4i.sdf

>  <i_m_source_file_index>  (192) 
31

>  <i_lp_mmshare_version>  (192) 
48012

>  <i_f3d_flags>  (192) 
0

>  <s_epik_input>  (192) 
Tz1DMVtDSDJdQyhbQ0gzXSk9W0NIXVtDQEhdKFtDQEBdMTIzKVtDQEhdNFtDQEhdKEMoPU8pT1tDSDJdNClOMltDQEBIXShbQ0gyXVtPSF0pW0NASF0oTjNbQ0gzXSljNVtjSF1bY0hdW2NIXWMoW2NIXTUpW0NIMl1bT0hd

>  <s_epik_cmdline>  (192) 
J2VwaWtfcHl0aG9uJywgJy1waHQnLCAnMi4wJywgJy1waCcsICc3LjAnLCAnLXRuJywgJzgnLCAnLW1hJywgJzIwMCcsICctaW1hZScsICc8aW5maWxlLm1hZT4nLCAnLW9tYWUnLCAnPG91dGZpbGUubWFlPic=

>  <r_epik_Ionization_Penalty>  (192) 
0.167869

>  <r_epik_Ionization_Penalty_Charging>  (192) 
0.159749

>  <r_epik_Ionization_Penalty_Neutral>  (192) 
0.00811945

>  <r_epik_State_Penalty>  (192) 
0.180488

>  <r_epik_Charging_Adjusted_Penalty>  (192) 
0.340238

>  <i_epik_Tot_Q>  (192) 
1

>  <i_epik_Tot_abs_Q>  (192) 
1

>  <s_epik_Chemistry_Notes>  (192) 
This compound has an ester and may undergo hydrolysis at high or low pH.

>  <s_lp_Force_Field>  (192) 
OPLS3e

>  <r_lp_Energy>  (192) 
42.0552

>  <b_lp_Chiralities_Consistent>  (192) 
1

>  <s_lp_Variant>  (192) 
53:0-1

>  <s_i_glide_gridfile>  (192) 
pfpi4k_grid

>  <i_i_glide_lignum>  (192) 
31

>  <i_i_glide_rotatable_bonds>  (192) 
5

>  <r_i_docking_score>  (192) 
-3.56255

>  <r_i_glide_ligand_efficiency>  (192) 
-0.122846

>  <r_i_glide_ligand_efficiency_sa>  (192) 
-0.377423

>  <r_i_glide_ligand_efficiency_ln>  (192) 
-0.815733

>  <r_i_glide_gscore>  (192) 
-3.56255

>  <r_i_glide_lipo>  (192) 
-0.400472

>  <r_i_glide_hbond>  (192) 
-0.260251

>  <r_i_glide_metal>  (192) 
-0

>  <r_i_glide_rewards>  (192) 
-0.708616

>  <r_i_glide_evdw>  (192) 
-22.1089

>  <r_i_glide_ecoul>  (192) 
-9.55389

>  <r_i_glide_erotb>  (192) 
0.368394

>  <r_i_glide_esite>  (192) 
-0.023071

>  <r_i_glide_emodel>  (192) 
-39.8999

>  <r_i_glide_energy>  (192) 
-31.6628

>  <r_i_glide_einternal>  (192) 
0.704997

>  <r_i_glide_intrahb_reward>  (192) 
-0

>  <i_i_glide_confnum>  (192) 
4

>  <i_i_glide_posenum>  (192) 
21

>  <r_i_glide_eff_state_penalty>  (192) 
0

>  <ligand_id>  (192) 
53

>  <original_smiles>  (192) 
CC1=CC2C3COC(=O)C3N3C(CO)C(c4cccc(CO)c4)N(C)C23C(=O)C1

>  <smiles>  (192) 
[H]OC([H])([H])c1c([H])c([H])c([H])c(C2([H])C([H])(C([H])([H])O[H])N3C4([H])C(=O)OC([H])([H])C4([H])C4([H])C([H])=C(C([H])([H])[H])C([H])([H])C(=O)C34[N+]2([H])C([H])([H])[H])c1[H]

$$$$
53:1:0
     RDKit          3D

 56 60  0  0  1  0  0  0  0  0999 V2000
    2.9059   -1.9460    3.4495 C   0  0  0  0  0  0  0  0  0  0  0  0
    2.7381   -3.0214    4.5115 C   0  0  0  0  0  0  0  0  0  0  0  0
    1.5173   -3.4550    4.9019 C   0  0  0  0  0  0  0  0  0  0  0  0
    1.4067   -4.5048    5.9717 C   0  0  1  0  0  0  0  0  0  0  0  0
    0.1384   -5.3398    6.1080 C   0  0  2  0  0  0  0  0  0  0  0  0
   -0.9910   -4.6251    6.8479 C   0  0  0  0  0  0  0  0  0  0  0  0
   -0.7015   -4.8926    8.2145 O   0  0  0  0  0  0  0  0  0  0  0  0
    0.1453   -5.8979    8.4347 C   0  0  0  0  0  0  0  0  0  0  0  0
    0.5024   -6.3312    9.5316 O   0  0  0  0  0  0  0  0  0  0  0  0
    0.6300   -6.4246    7.0872 C   0  0  2  0  0  0  0  0  0  0  0  0
    2.1414   -6.4705    7.0250 N   0  0  1  0  0  0  0  0  0  0  0  0
    2.7140   -7.8006    6.6782 C   0  0  1  0  0  0  0  0  0  0  0  0
    2.0311   -9.0444    7.3182 C   0  0  0  0  0  0  0  0  0  0  0  0
    2.8832  -10.1730    7.2364 O   0  0  0  0  0  0  0  0  0  0  0  0
    2.8585   -7.7759    5.1415 C   0  0  1  0  0  0  0  0  0  0  0  0
    2.1595   -8.8887    4.3577 C   0  0  0  0  0  0  0  0  0  0  0  0
    2.7834  -10.1472    4.1789 C   0  0  0  0  0  0  0  0  0  0  0  0
    2.1239  -11.1703    3.4699 C   0  0  0  0  0  0  0  0  0  0  0  0
    0.8591  -10.9345    2.9042 C   0  0  0  0  0  0  0  0  0  0  0  0
    0.2512   -9.6774    3.0331 C   0  0  0  0  0  0  0  0  0  0  0  0
   -1.0762   -9.3909    2.3693 C   0  0  0  0  0  0  0  0  0  0  0  0
   -2.0649   -9.0457    3.3086 O   0  0  0  0  0  0  0  0  0  0  0  0
    0.8853   -8.6735    3.7753 C   0  0  0  0  0  0  0  0  0  0  0  0
    2.4087   -6.4400    4.7389 N   0  0  0  0  0  0  0  0  0  0  0  0
    2.9597   -6.0510    3.4373 C   0  0  0  0  0  0  0  0  0  0  0  0
    2.5047   -5.5571    5.9140 C   0  0  1  0  0  0  0  0  0  0  0  0
    3.8423   -4.7943    6.0706 C   0  0  0  0  0  0  0  0  0  0  0  0
    4.6887   -5.1387    6.8789 O   0  0  0  0  0  0  0  0  0  0  0  0
    4.0476   -3.5792    5.1117 C   0  0  0  0  0  0  0  0  0  0  0  0
    3.4756   -2.3267    2.6013 H   0  0  0  0  0  0  0  0  0  0  0  0
    3.4327   -1.0817    3.8549 H   0  0  0  0  0  0  0  0  0  0  0  0
    1.9379   -1.6094    3.0788 H   0  0  0  0  0  0  0  0  0  0  0  0
    0.6042   -3.0410    4.4978 H   0  0  0  0  0  0  0  0  0  0  0  0
    1.5199   -3.9251    6.8918 H   0  0  0  0  0  0  0  0  0  0  0  0
   -0.1816   -5.7702    5.1499 H   0  0  0  0  0  0  0  0  0  0  0  0
   -1.0096   -3.5545    6.6640 H   0  0  0  0  0  0  0  0  0  0  0  0
   -1.9650   -5.0163    6.5386 H   0  0  0  0  0  0  0  0  0  0  0  0
    0.1333   -7.3680    6.9078 H   0  0  0  0  0  0  0  0  0  0  0  0
    3.7226   -7.7628    7.0959 H   0  0  0  0  0  0  0  0  0  0  0  0
    1.8486   -8.8879    8.3839 H   0  0  0  0  0  0  0  0  0  0  0  0
    1.0730   -9.2885    6.8506 H   0  0  0  0  0  0  0  0  0  0  0  0
    2.3502  -10.9528    7.2939 H   0  0  0  0  0  0  0  0  0  0  0  0
    3.9245   -7.8342    4.9338 H   0  0  0  0  0  0  0  0  0  0  0  0
    3.7576  -10.3446    4.6024 H   0  0  0  0  0  0  0  0  0  0  0  0
    2.5854  -12.1417    3.3540 H   0  0  0  0  0  0  0  0  0  0  0  0
    0.3547  -11.7158    2.3624 H   0  0  0  0  0  0  0  0  0  0  0  0
   -0.9526   -8.5729    1.6666 H   0  0  0  0  0  0  0  0  0  0  0  0
   -1.4190  -10.2437    1.7963 H   0  0  0  0  0  0  0  0  0  0  0  0
   -2.1588   -9.7774    3.9131 H   0  0  0  0  0  0  0  0  0  0  0  0
    0.3693   -7.7333    3.8672 H   0  0  0  0  0  0  0  0  0  0  0  0
    2.4776   -5.1616    3.0348 H   0  0  0  0  0  0  0  0  0  0  0  0
    2.7571   -6.8378    2.7115 H   0  0  0  0  0  0  0  0  0  0  0  0
    4.0401   -5.9157    3.4632 H   0  0  0  0  0  0  0  0  0  0  0  0
    4.6969   -3.8847    4.2952 H   0  0  0  0  0  0  0  0  0  0  0  0
    4.5643   -2.7692    5.6264 H   0  0  0  0  0  0  0  0  0  0  0  0
    2.5198   -6.1258    7.9021 H   0  0  0  0  0  0  0  0  0  0  0  0
  1  2  1  0
  1 30  1  0
  1 31  1  0
  1 32  1  0
  2 29  1  0
  2  3  2  0
  3  4  1  0
  3 33  1  0
  4 26  1  0
  4  5  1  0
  4 34  1  1
  5 10  1  0
  5  6  1  0
  5 35  1  6
  6  7  1  0
  6 36  1  0
  6 37  1  0
  7  8  1  0
  8  9  2  0
  8 10  1  0
 10 11  1  0
 10 38  1  6
 11 26  1  0
 11 12  1  0
 11 56  1  1
 12 13  1  0
 12 15  1  0
 12 39  1  1
 13 14  1  0
 13 40  1  0
 13 41  1  0
 14 42  1  0
 15 16  1  0
 15 24  1  0
 15 43  1  1
 16 23  1  0
 16 17  2  0
 17 18  1  0
 17 44  1  0
 18 19  2  0
 18 45  1  0
 19 20  1  0
 19 46  1  0
 20 21  1  0
 20 23  2  0
 21 22  1  0
 21 47  1  0
 21 48  1  0
 22 49  1  0
 23 50  1  0
 24 25  1  0
 26 24  1  6
 25 51  1  0
 25 52  1  0
 25 53  1  0
 26 27  1  0
 27 28  2  0
 27 29  1  0
 29 54  1  0
 29 55  1  0
M  CHG  1  11   1
M  END
>  <i_m_ct_stereo_status>  (193) 
1

>  <s_m_source_file>  (193) 
/var/tmp/pbs.5076255.sched01/tmpck0ladl8/45htcshi4i.sdf

>  <i_m_source_file_index>  (193) 
32

>  <i_lp_mmshare_version>  (193) 
48012

>  <i_f3d_flags>  (193) 
0

>  <s_epik_input>  (193) 
Tz1DMVtDSDJdQyhbQ0gzXSk9W0NIXVtDQEhdKFtDQEBdMTIzKVtDQEhdNFtDQEhdKEMoPU8pT1tDSDJdNClOMltDQEBIXShbQ0gyXVtPSF0pW0NASF0oTjNbQ0gzXSljNVtjSF1bY0hdW2NIXWMoW2NIXTUpW0NIMl1bT0hd

>  <s_epik_cmdline>  (193) 
J2VwaWtfcHl0aG9uJywgJy1waHQnLCAnMi4wJywgJy1waCcsICc3LjAnLCAnLXRuJywgJzgnLCAnLW1hJywgJzIwMCcsICctaW1hZScsICc8aW5maWxlLm1hZT4nLCAnLW9tYWUnLCAnPG91dGZpbGUubWFlPic=

>  <r_epik_Ionization_Penalty>  (193) 
0.290242

>  <r_epik_Ionization_Penalty_Charging>  (193) 
0.104699

>  <r_epik_Ionization_Penalty_Neutral>  (193) 
0.185543

>  <r_epik_State_Penalty>  (193) 
1.06981

>  <r_epik_Charging_Adjusted_Penalty>  (193) 
1.17451

>  <i_epik_Tot_Q>  (193) 
1

>  <i_epik_Tot_abs_Q>  (193) 
1

>  <s_epik_Chemistry_Notes>  (193) 
This compound has an ester and may undergo hydrolysis at high or low pH.

>  <s_lp_Force_Field>  (193) 
OPLS3e

>  <r_lp_Energy>  (193) 
38.5073

>  <b_lp_Chiralities_Consistent>  (193) 
1

>  <s_lp_Variant>  (193) 
53:0-2

>  <s_i_glide_gridfile>  (193) 
pfpi4k_grid

>  <i_i_glide_lignum>  (193) 
32

>  <i_i_glide_rotatable_bonds>  (193) 
5

>  <r_i_docking_score>  (193) 
-3.52476

>  <r_i_glide_ligand_efficiency>  (193) 
-0.121544

>  <r_i_glide_ligand_efficiency_sa>  (193) 
-0.37342

>  <r_i_glide_ligand_efficiency_ln>  (193) 
-0.807081

>  <r_i_glide_gscore>  (193) 
-3.52476

>  <r_i_glide_lipo>  (193) 
-0.490303

>  <r_i_glide_hbond>  (193) 
-0.309389

>  <r_i_glide_metal>  (193) 
-0

>  <r_i_glide_rewards>  (193) 
-0.685499

>  <r_i_glide_evdw>  (193) 
-18.4559

>  <r_i_glide_ecoul>  (193) 
-9.81799

>  <r_i_glide_erotb>  (193) 
0.368394

>  <r_i_glide_esite>  (193) 
-0.0124727

>  <r_i_glide_emodel>  (193) 
-34.1061

>  <r_i_glide_energy>  (193) 
-28.2739

>  <r_i_glide_einternal>  (193) 
1.86088

>  <r_i_glide_intrahb_reward>  (193) 
-0

>  <i_i_glide_confnum>  (193) 
4

>  <i_i_glide_posenum>  (193) 
2

>  <r_i_glide_eff_state_penalty>  (193) 
0

>  <ligand_id>  (193) 
53

>  <original_smiles>  (193) 
CC1=CC2C3COC(=O)C3N3C(CO)C(c4cccc(CO)c4)N(C)C23C(=O)C1

>  <smiles>  (193) 
[H]OC([H])([H])c1c([H])c([H])c([H])c(C2([H])N(C([H])([H])[H])C34C(=O)C([H])([H])C(C([H])([H])[H])=C([H])C3([H])C3([H])C([H])([H])OC(=O)C3([H])[N+]4([H])C2([H])C([H])([H])O[H])c1[H]

$$$$
53:1:1
     RDKit          3D

 56 60  0  0  1  0  0  0  0  0999 V2000
    1.0620  -10.9339    2.9445 C   0  0  0  0  0  0  0  0  0  0  0  0
    0.7894   -9.7354    3.8276 C   0  0  0  0  0  0  0  0  0  0  0  0
    1.6093   -9.3947    4.8410 C   0  0  0  0  0  0  0  0  0  0  0  0
    1.2770   -8.2014    5.6890 C   0  0  1  0  0  0  0  0  0  0  0  0
    2.3606   -7.5206    6.5151 C   0  0  2  0  0  0  0  0  0  0  0  0
    2.6883   -8.2346    7.8256 C   0  0  0  0  0  0  0  0  0  0  0  0
    1.7326   -7.6982    8.7407 O   0  0  0  0  0  0  0  0  0  0  0  0
    1.0912   -6.6035    8.3286 C   0  0  0  0  0  0  0  0  0  0  0  0
    0.2049   -5.9982    8.9351 O   0  0  0  0  0  0  0  0  0  0  0  0
    1.6168   -6.2443    6.9447 C   0  0  2  0  0  0  0  0  0  0  0  0
    0.4775   -6.0336    5.9769 N   0  0  1  0  0  0  0  0  0  0  0  0
    0.4759   -4.7195    5.2748 C   0  0  1  0  0  0  0  0  0  0  0  0
    0.8788   -3.4697    6.1072 C   0  0  0  0  0  0  0  0  0  0  0  0
    0.3515   -2.3319    5.4620 O   0  0  0  0  0  0  0  0  0  0  0  0
    1.2413   -4.9633    3.9564 C   0  0  1  0  0  0  0  0  0  0  0  0
    2.4297   -4.0442    3.6753 C   0  0  0  0  0  0  0  0  0  0  0  0
    3.6668   -4.3098    4.2965 C   0  0  0  0  0  0  0  0  0  0  0  0
    4.7856   -3.4959    4.0512 C   0  0  0  0  0  0  0  0  0  0  0  0
    4.6751   -2.4019    3.1777 C   0  0  0  0  0  0  0  0  0  0  0  0
    3.4509   -2.1106    2.5497 C   0  0  0  0  0  0  0  0  0  0  0  0
    3.3402   -0.9142    1.6195 C   0  0  0  0  0  0  0  0  0  0  0  0
    3.2990   -1.2861    0.2603 O   0  0  0  0  0  0  0  0  0  0  0  0
    2.3282   -2.9351    2.7950 C   0  0  0  0  0  0  0  0  0  0  0  0
    1.6053   -6.3831    3.9993 N   0  0  0  0  0  0  0  0  0  0  0  0
    1.8504   -6.8972    2.6530 C   0  0  0  0  0  0  0  0  0  0  0  0
    0.6625   -7.0553    4.9179 C   0  0  1  0  0  0  0  0  0  0  0  0
   -0.6318   -7.6190    4.2750 C   0  0  0  0  0  0  0  0  0  0  0  0
   -1.6985   -7.0334    4.3521 O   0  0  0  0  0  0  0  0  0  0  0  0
   -0.4771   -8.9326    3.4645 C   0  0  0  0  0  0  0  0  0  0  0  0
    1.1547  -10.5727    1.9254 H   0  0  0  0  0  0  0  0  0  0  0  0
    0.2460  -11.6547    2.9922 H   0  0  0  0  0  0  0  0  0  0  0  0
    1.9862  -11.4400    3.2256 H   0  0  0  0  0  0  0  0  0  0  0  0
    2.4879   -9.9851    5.0893 H   0  0  0  0  0  0  0  0  0  0  0  0
    0.5429   -8.6087    6.3859 H   0  0  0  0  0  0  0  0  0  0  0  0
    3.2547   -7.2920    5.9216 H   0  0  0  0  0  0  0  0  0  0  0  0
    2.5939   -9.3155    7.7501 H   0  0  0  0  0  0  0  0  0  0  0  0
    3.7192   -8.0242    8.1287 H   0  0  0  0  0  0  0  0  0  0  0  0
    2.2920   -5.3928    7.0334 H   0  0  0  0  0  0  0  0  0  0  0  0
   -0.5779   -4.5796    5.0155 H   0  0  0  0  0  0  0  0  0  0  0  0
    0.4264   -3.5035    7.0964 H   0  0  0  0  0  0  0  0  0  0  0  0
    1.9532   -3.3736    6.2508 H   0  0  0  0  0  0  0  0  0  0  0  0
    0.8761   -2.1397    4.6969 H   0  0  0  0  0  0  0  0  0  0  0  0
    0.5262   -4.8322    3.1516 H   0  0  0  0  0  0  0  0  0  0  0  0
    3.7659   -5.1475    4.9704 H   0  0  0  0  0  0  0  0  0  0  0  0
    5.7266   -3.7152    4.5435 H   0  0  0  0  0  0  0  0  0  0  0  0
    5.5448   -1.7889    2.9933 H   0  0  0  0  0  0  0  0  0  0  0  0
    2.4699   -0.3132    1.8740 H   0  0  0  0  0  0  0  0  0  0  0  0
    4.2035   -0.2641    1.7521 H   0  0  0  0  0  0  0  0  0  0  0  0
    2.4170   -1.1425   -0.0807 H   0  0  0  0  0  0  0  0  0  0  0  0
    1.4066   -2.7015    2.2890 H   0  0  0  0  0  0  0  0  0  0  0  0
    2.2831   -7.8973    2.6685 H   0  0  0  0  0  0  0  0  0  0  0  0
    2.5854   -6.2679    2.1468 H   0  0  0  0  0  0  0  0  0  0  0  0
    0.9505   -6.9004    2.0347 H   0  0  0  0  0  0  0  0  0  0  0  0
   -0.4563   -8.6970    2.3995 H   0  0  0  0  0  0  0  0  0  0  0  0
   -1.3492   -9.5731    3.6157 H   0  0  0  0  0  0  0  0  0  0  0  0
   -0.4067   -6.1873    6.4646 H   0  0  0  0  0  0  0  0  0  0  0  0
  1  2  1  0
  1 30  1  0
  1 31  1  0
  1 32  1  0
  2 29  1  0
  2  3  2  0
  3  4  1  0
  3 33  1  0
  4 26  1  0
  4  5  1  0
  4 34  1  1
  5 10  1  0
  5  6  1  0
  5 35  1  6
  6  7  1  0
  6 36  1  0
  6 37  1  0
  7  8  1  0
  8  9  2  0
  8 10  1  0
 10 11  1  0
 10 38  1  1
 11 26  1  0
 11 12  1  0
 11 56  1  1
 12 13  1  0
 12 15  1  0
 12 39  1  6
 13 14  1  0
 13 40  1  0
 13 41  1  0
 14 42  1  0
 15 16  1  0
 15 24  1  0
 15 43  1  6
 16 23  1  0
 16 17  2  0
 17 18  1  0
 17 44  1  0
 18 19  2  0
 18 45  1  0
 19 20  1  0
 19 46  1  0
 20 21  1  0
 20 23  2  0
 21 22  1  0
 21 47  1  0
 21 48  1  0
 22 49  1  0
 23 50  1  0
 24 25  1  0
 26 24  1  6
 25 51  1  0
 25 52  1  0
 25 53  1  0
 26 27  1  0
 27 28  2  0
 27 29  1  0
 29 54  1  0
 29 55  1  0
M  CHG  1  11   1
M  END
>  <i_m_ct_stereo_status>  (194) 
1

>  <s_m_source_file>  (194) 
/var/tmp/pbs.5076255.sched01/tmpck0ladl8/45htcshi4i.sdf

>  <i_m_source_file_index>  (194) 
32

>  <i_lp_mmshare_version>  (194) 
48012

>  <i_f3d_flags>  (194) 
0

>  <s_epik_input>  (194) 
Tz1DMVtDSDJdQyhbQ0gzXSk9W0NIXVtDQEhdKFtDQEBdMTIzKVtDQEhdNFtDQEhdKEMoPU8pT1tDSDJdNClOMltDQEBIXShbQ0gyXVtPSF0pW0NASF0oTjNbQ0gzXSljNVtjSF1bY0hdW2NIXWMoW2NIXTUpW0NIMl1bT0hd

>  <s_epik_cmdline>  (194) 
J2VwaWtfcHl0aG9uJywgJy1waHQnLCAnMi4wJywgJy1waCcsICc3LjAnLCAnLXRuJywgJzgnLCAnLW1hJywgJzIwMCcsICctaW1hZScsICc8aW5maWxlLm1hZT4nLCAnLW9tYWUnLCAnPG91dGZpbGUubWFlPic=

>  <r_epik_Ionization_Penalty>  (194) 
0.290242

>  <r_epik_Ionization_Penalty_Charging>  (194) 
0.104699

>  <r_epik_Ionization_Penalty_Neutral>  (194) 
0.185543

>  <r_epik_State_Penalty>  (194) 
1.06981

>  <r_epik_Charging_Adjusted_Penalty>  (194) 
1.17451

>  <i_epik_Tot_Q>  (194) 
1

>  <i_epik_Tot_abs_Q>  (194) 
1

>  <s_epik_Chemistry_Notes>  (194) 
This compound has an ester and may undergo hydrolysis at high or low pH.

>  <s_lp_Force_Field>  (194) 
OPLS3e

>  <r_lp_Energy>  (194) 
38.5073

>  <b_lp_Chiralities_Consistent>  (194) 
1

>  <s_lp_Variant>  (194) 
53:0-2

>  <s_i_glide_gridfile>  (194) 
pfpi4k_grid

>  <i_i_glide_lignum>  (194) 
32

>  <i_i_glide_rotatable_bonds>  (194) 
5

>  <r_i_docking_score>  (194) 
-3.08296

>  <r_i_glide_ligand_efficiency>  (194) 
-0.106309

>  <r_i_glide_ligand_efficiency_sa>  (194) 
-0.326615

>  <r_i_glide_ligand_efficiency_ln>  (194) 
-0.70592

>  <r_i_glide_gscore>  (194) 
-3.08296

>  <r_i_glide_lipo>  (194) 
-0.215676

>  <r_i_glide_hbond>  (194) 
-0.16

>  <r_i_glide_metal>  (194) 
-0

>  <r_i_glide_rewards>  (194) 
-0.685499

>  <r_i_glide_evdw>  (194) 
-20.4032

>  <r_i_glide_ecoul>  (194) 
-8.6608

>  <r_i_glide_erotb>  (194) 
0.368394

>  <r_i_glide_esite>  (194) 
-0.0708987

>  <r_i_glide_emodel>  (194) 
-34.1518

>  <r_i_glide_energy>  (194) 
-29.064

>  <r_i_glide_einternal>  (194) 
1.51064

>  <r_i_glide_intrahb_reward>  (194) 
-0

>  <i_i_glide_confnum>  (194) 
6

>  <i_i_glide_posenum>  (194) 
33

>  <r_i_glide_eff_state_penalty>  (194) 
0

>  <ligand_id>  (194) 
53

>  <original_smiles>  (194) 
CC1=CC2C3COC(=O)C3N3C(CO)C(c4cccc(CO)c4)N(C)C23C(=O)C1

>  <smiles>  (194) 
[H]OC([H])([H])c1c([H])c([H])c([H])c(C2([H])N(C([H])([H])[H])C34C(=O)C([H])([H])C(C([H])([H])[H])=C([H])C3([H])C3([H])C([H])([H])OC(=O)C3([H])[N+]4([H])C2([H])C([H])([H])O[H])c1[H]

$$$$
53:1:2
     RDKit          3D

 56 60  0  0  1  0  0  0  0  0999 V2000
    1.2005  -10.9124    3.0757 C   0  0  0  0  0  0  0  0  0  0  0  0
    0.8878   -9.7196    3.9574 C   0  0  0  0  0  0  0  0  0  0  0  0
    1.6866   -9.3759    4.9864 C   0  0  0  0  0  0  0  0  0  0  0  0
    1.3275   -8.2016    5.8402 C   0  0  1  0  0  0  0  0  0  0  0  0
    2.3868   -7.5096    6.6913 C   0  0  2  0  0  0  0  0  0  0  0  0
    2.6914   -8.2349    7.9983 C   0  0  0  0  0  0  0  0  0  0  0  0
    1.6999   -7.7181    8.8855 O   0  0  0  0  0  0  0  0  0  0  0  0
    1.0552   -6.6344    8.4792 C   0  0  0  0  0  0  0  0  0  0  0  0
    0.1439   -6.0394    9.0633 O   0  0  0  0  0  0  0  0  0  0  0  0
    1.6188   -6.2378    7.1117 C   0  0  2  0  0  0  0  0  0  0  0  0
    0.4833   -6.0467    6.1326 N   0  0  1  0  0  0  0  0  0  0  0  0
    0.4754   -4.7354    5.4424 C   0  0  1  0  0  0  0  0  0  0  0  0
    0.8560   -3.4858    6.2914 C   0  0  0  0  0  0  0  0  0  0  0  0
    0.3503   -2.3522    5.6257 O   0  0  0  0  0  0  0  0  0  0  0  0
    1.2723   -4.9538    4.1410 C   0  0  1  0  0  0  0  0  0  0  0  0
    2.4473   -4.0115    3.8925 C   0  0  0  0  0  0  0  0  0  0  0  0
    3.6828   -4.2702    4.5291 C   0  0  0  0  0  0  0  0  0  0  0  0
    4.7914   -3.4329    4.3113 C   0  0  0  0  0  0  0  0  0  0  0  0
    4.6775   -2.3265    3.4483 C   0  0  0  0  0  0  0  0  0  0  0  0
    3.4531   -2.0506    2.7998 C   0  0  0  0  0  0  0  0  0  0  0  0
    3.3689   -0.8530    1.8707 C   0  0  0  0  0  0  0  0  0  0  0  0
    2.0435   -0.3836    1.6717 O   0  0  0  0  0  0  0  0  0  0  0  0
    2.3381   -2.8978    3.0240 C   0  0  0  0  0  0  0  0  0  0  0  0
    1.6641   -6.3636    4.1834 N   0  0  0  0  0  0  0  0  0  0  0  0
    1.9331   -6.8634    2.8299 C   0  0  0  0  0  0  0  0  0  0  0  0
    0.7082   -7.0576    5.0735 C   0  0  1  0  0  0  0  0  0  0  0  0
   -0.5614   -7.6208    4.3982 C   0  0  0  0  0  0  0  0  0  0  0  0
   -1.6265   -7.0150    4.4354 O   0  0  0  0  0  0  0  0  0  0  0  0
   -0.3849   -8.9313    3.5695 C   0  0  0  0  0  0  0  0  0  0  0  0
    1.3294  -10.5506    2.0646 H   0  0  0  0  0  0  0  0  0  0  0  0
    0.3965  -11.6470    3.0897 H   0  0  0  0  0  0  0  0  0  0  0  0
    2.1240  -11.4079    3.3771 H   0  0  0  0  0  0  0  0  0  0  0  0
    2.5607   -9.9549    5.2509 H   0  0  0  0  0  0  0  0  0  0  0  0
    0.5814   -8.6242    6.5151 H   0  0  0  0  0  0  0  0  0  0  0  0
    3.2894   -7.2682    6.1115 H   0  0  0  0  0  0  0  0  0  0  0  0
    2.6191   -9.3166    7.9177 H   0  0  0  0  0  0  0  0  0  0  0  0
    3.7128   -8.0143    8.3272 H   0  0  0  0  0  0  0  0  0  0  0  0
    2.2799   -5.3928    7.2342 H   0  0  0  0  0  0  0  0  0  0  0  0
   -0.5705   -4.5992    5.1624 H   0  0  0  0  0  0  0  0  0  0  0  0
    0.3521   -3.5197    7.2556 H   0  0  0  0  0  0  0  0  0  0  0  0
    1.9199   -3.3904    6.4844 H   0  0  0  0  0  0  0  0  0  0  0  0
    0.9158   -2.1376    4.8989 H   0  0  0  0  0  0  0  0  0  0  0  0
    0.5719   -4.8276    3.3209 H   0  0  0  0  0  0  0  0  0  0  0  0
    3.7877   -5.1209    5.1802 H   0  0  0  0  0  0  0  0  0  0  0  0
    5.7312   -3.6516    4.8009 H   0  0  0  0  0  0  0  0  0  0  0  0
    5.5335   -1.6968    3.2861 H   0  0  0  0  0  0  0  0  0  0  0  0
    3.9629   -0.0388    2.2793 H   0  0  0  0  0  0  0  0  0  0  0  0
    3.8136   -1.0965    0.9076 H   0  0  0  0  0  0  0  0  0  0  0  0
    1.7332   -0.6402    0.8135 H   0  0  0  0  0  0  0  0  0  0  0  0
    1.4112   -2.6821    2.5158 H   0  0  0  0  0  0  0  0  0  0  0  0
    2.3828   -7.8524    2.8398 H   0  0  0  0  0  0  0  0  0  0  0  0
    2.6662   -6.2177    2.3450 H   0  0  0  0  0  0  0  0  0  0  0  0
    1.0480   -6.8690    2.1972 H   0  0  0  0  0  0  0  0  0  0  0  0
   -0.3327   -8.6797    2.5143 H   0  0  0  0  0  0  0  0  0  0  0  0
   -1.2464   -9.5862    3.6773 H   0  0  0  0  0  0  0  0  0  0  0  0
   -0.4004   -6.2227    6.6049 H   0  0  0  0  0  0  0  0  0  0  0  0
  1  2  1  0
  1 30  1  0
  1 31  1  0
  1 32  1  0
  2 29  1  0
  2  3  2  0
  3  4  1  0
  3 33  1  0
  4 26  1  0
  4  5  1  0
  4 34  1  1
  5 10  1  0
  5  6  1  0
  5 35  1  6
  6  7  1  0
  6 36  1  0
  6 37  1  0
  7  8  1  0
  8  9  2  0
  8 10  1  0
 10 11  1  0
 10 38  1  1
 11 26  1  0
 11 12  1  0
 11 56  1  1
 12 13  1  0
 12 15  1  0
 12 39  1  6
 13 14  1  0
 13 40  1  0
 13 41  1  0
 14 42  1  0
 15 16  1  0
 15 24  1  0
 15 43  1  6
 16 23  1  0
 16 17  2  0
 17 18  1  0
 17 44  1  0
 18 19  2  0
 18 45  1  0
 19 20  1  0
 19 46  1  0
 20 21  1  0
 20 23  2  0
 21 22  1  0
 21 47  1  0
 21 48  1  0
 22 49  1  0
 23 50  1  0
 24 25  1  0
 26 24  1  6
 25 51  1  0
 25 52  1  0
 25 53  1  0
 26 27  1  0
 27 28  2  0
 27 29  1  0
 29 54  1  0
 29 55  1  0
M  CHG  1  11   1
M  END
>  <i_m_ct_stereo_status>  (195) 
1

>  <s_m_source_file>  (195) 
/var/tmp/pbs.5076255.sched01/tmpck0ladl8/45htcshi4i.sdf

>  <i_m_source_file_index>  (195) 
32

>  <i_lp_mmshare_version>  (195) 
48012

>  <i_f3d_flags>  (195) 
0

>  <s_epik_input>  (195) 
Tz1DMVtDSDJdQyhbQ0gzXSk9W0NIXVtDQEhdKFtDQEBdMTIzKVtDQEhdNFtDQEhdKEMoPU8pT1tDSDJdNClOMltDQEBIXShbQ0gyXVtPSF0pW0NASF0oTjNbQ0gzXSljNVtjSF1bY0hdW2NIXWMoW2NIXTUpW0NIMl1bT0hd

>  <s_epik_cmdline>  (195) 
J2VwaWtfcHl0aG9uJywgJy1waHQnLCAnMi4wJywgJy1waCcsICc3LjAnLCAnLXRuJywgJzgnLCAnLW1hJywgJzIwMCcsICctaW1hZScsICc8aW5maWxlLm1hZT4nLCAnLW9tYWUnLCAnPG91dGZpbGUubWFlPic=

>  <r_epik_Ionization_Penalty>  (195) 
0.290242

>  <r_epik_Ionization_Penalty_Charging>  (195) 
0.104699

>  <r_epik_Ionization_Penalty_Neutral>  (195) 
0.185543

>  <r_epik_State_Penalty>  (195) 
1.06981

>  <r_epik_Charging_Adjusted_Penalty>  (195) 
1.17451

>  <i_epik_Tot_Q>  (195) 
1

>  <i_epik_Tot_abs_Q>  (195) 
1

>  <s_epik_Chemistry_Notes>  (195) 
This compound has an ester and may undergo hydrolysis at high or low pH.

>  <s_lp_Force_Field>  (195) 
OPLS3e

>  <r_lp_Energy>  (195) 
38.5073

>  <b_lp_Chiralities_Consistent>  (195) 
1

>  <s_lp_Variant>  (195) 
53:0-2

>  <s_i_glide_gridfile>  (195) 
pfpi4k_grid

>  <i_i_glide_lignum>  (195) 
32

>  <i_i_glide_rotatable_bonds>  (195) 
5

>  <r_i_docking_score>  (195) 
-3.07275

>  <r_i_glide_ligand_efficiency>  (195) 
-0.105957

>  <r_i_glide_ligand_efficiency_sa>  (195) 
-0.325533

>  <r_i_glide_ligand_efficiency_ln>  (195) 
-0.703583

>  <r_i_glide_gscore>  (195) 
-3.07275

>  <r_i_glide_lipo>  (195) 
-0.23167

>  <r_i_glide_hbond>  (195) 
-0.245477

>  <r_i_glide_metal>  (195) 
-0

>  <r_i_glide_rewards>  (195) 
-0.685499

>  <r_i_glide_evdw>  (195) 
-20.9556

>  <r_i_glide_ecoul>  (195) 
-7.75857

>  <r_i_glide_erotb>  (195) 
0.368394

>  <r_i_glide_esite>  (195) 
-0.0669338

>  <r_i_glide_emodel>  (195) 
-33.7817

>  <r_i_glide_energy>  (195) 
-28.7142

>  <r_i_glide_einternal>  (195) 
1.26029

>  <r_i_glide_intrahb_reward>  (195) 
-0

>  <i_i_glide_confnum>  (195) 
2

>  <i_i_glide_posenum>  (195) 
3

>  <r_i_glide_eff_state_penalty>  (195) 
0

>  <ligand_id>  (195) 
53

>  <original_smiles>  (195) 
CC1=CC2C3COC(=O)C3N3C(CO)C(c4cccc(CO)c4)N(C)C23C(=O)C1

>  <smiles>  (195) 
[H]OC([H])([H])c1c([H])c([H])c([H])c(C2([H])N(C([H])([H])[H])C34C(=O)C([H])([H])C(C([H])([H])[H])=C([H])C3([H])C3([H])C([H])([H])OC(=O)C3([H])[N+]4([H])C2([H])C([H])([H])O[H])c1[H]

$$$$
53:2:0
     RDKit          3D

 55 59  0  0  1  0  0  0  0  0999 V2000
    4.1122   -9.7511    3.5140 C   0  0  0  0  0  0  0  0  0  0  0  0
    3.8304   -8.2638    3.4286 C   0  0  0  0  0  0  0  0  0  0  0  0
    4.6830   -7.3426    3.9083 C   0  0  0  0  0  0  0  0  0  0  0  0
    4.3426   -5.8756    3.8266 C   0  0  1  0  0  0  0  0  0  0  0  0
    5.4211   -4.7942    3.9192 C   0  0  2  0  0  0  0  0  0  0  0  0
    5.8333   -4.3884    5.3405 C   0  0  0  0  0  0  0  0  0  0  0  0
    5.0262   -3.2676    5.6349 O   0  0  0  0  0  0  0  0  0  0  0  0
    4.3599   -2.7440    4.6079 C   0  0  0  0  0  0  0  0  0  0  0  0
    3.6570   -1.7329    4.6269 O   0  0  0  0  0  0  0  0  0  0  0  0
    4.6440   -3.5831    3.3662 C   0  0  2  0  0  0  0  0  0  0  0  0
    3.4112   -4.0602    2.6877 N   0  0  0  0  0  0  0  0  0  0  0  0
    3.1980   -3.5632    1.3320 C   0  0  1  0  0  0  0  0  0  0  0  0
    3.3330   -2.0341    1.1077 C   0  0  0  0  0  0  0  0  0  0  0  0
    3.0289   -1.6772   -0.2243 O   0  0  0  0  0  0  0  0  0  0  0  0
    3.9788   -4.5177    0.4024 C   0  0  1  0  0  0  0  0  0  0  0  0
    5.1435   -3.9029   -0.3859 C   0  0  0  0  0  0  0  0  0  0  0  0
    5.0119   -3.6153   -1.7636 C   0  0  0  0  0  0  0  0  0  0  0  0
    6.0918   -3.0496   -2.4614 C   0  0  0  0  0  0  0  0  0  0  0  0
    7.2950   -2.7377   -1.7912 C   0  0  0  0  0  0  0  0  0  0  0  0
    7.4345   -3.0209   -0.4245 C   0  0  0  0  0  0  0  0  0  0  0  0
    8.7419   -2.7535    0.2982 C   0  0  0  0  0  0  0  0  0  0  0  0
    9.0145   -1.3769    0.4725 O   0  0  0  0  0  0  0  0  0  0  0  0
    6.3653   -3.6216    0.2647 C   0  0  0  0  0  0  0  0  0  0  0  0
    4.4237   -5.5714    1.3191 N   0  0  0  0  0  0  0  0  0  0  0  0
    4.6579   -6.8345    0.6116 C   0  0  0  0  0  0  0  0  0  0  0  0
    3.5818   -5.4962    2.5484 C   0  0  1  0  0  0  0  0  0  0  0  0
    2.3102   -6.3766    2.5243 C   0  0  0  0  0  0  0  0  0  0  0  0
    1.1882   -5.8983    2.3366 O   0  0  0  0  0  0  0  0  0  0  0  0
    2.4942   -7.8948    2.7455 C   0  0  0  0  0  0  0  0  0  0  0  0
    4.1479  -10.1911    2.5168 H   0  0  0  0  0  0  0  0  0  0  0  0
    3.3328  -10.2567    4.0841 H   0  0  0  0  0  0  0  0  0  0  0  0
    5.0677   -9.9416    4.0037 H   0  0  0  0  0  0  0  0  0  0  0  0
    5.6040   -7.6139    4.3972 H   0  0  0  0  0  0  0  0  0  0  0  0
    3.6715   -5.7114    4.6751 H   0  0  0  0  0  0  0  0  0  0  0  0
    6.2812   -5.0634    3.3042 H   0  0  0  0  0  0  0  0  0  0  0  0
    5.7116   -5.1969    6.0621 H   0  0  0  0  0  0  0  0  0  0  0  0
    6.8778   -4.0833    5.3616 H   0  0  0  0  0  0  0  0  0  0  0  0
    5.2832   -2.9649    2.7448 H   0  0  0  0  0  0  0  0  0  0  0  0
    2.1467   -3.7629    1.1178 H   0  0  0  0  0  0  0  0  0  0  0  0
    2.6551   -1.4984    1.7754 H   0  0  0  0  0  0  0  0  0  0  0  0
    4.3395   -1.6804    1.3063 H   0  0  0  0  0  0  0  0  0  0  0  0
    2.0772   -1.4557   -0.3186 H   0  0  0  0  0  0  0  0  0  0  0  0
    3.2681   -4.9333   -0.3125 H   0  0  0  0  0  0  0  0  0  0  0  0
    4.0860   -3.8378   -2.2817 H   0  0  0  0  0  0  0  0  0  0  0  0
    6.0068   -2.8597   -3.5206 H   0  0  0  0  0  0  0  0  0  0  0  0
    8.1492   -2.3375   -2.3158 H   0  0  0  0  0  0  0  0  0  0  0  0
    8.7429   -3.2476    1.2685 H   0  0  0  0  0  0  0  0  0  0  0  0
    9.5582   -3.1960   -0.2741 H   0  0  0  0  0  0  0  0  0  0  0  0
    9.7614   -1.1469   -0.0867 H   0  0  0  0  0  0  0  0  0  0  0  0
    6.5253   -3.8875    1.2934 H   0  0  0  0  0  0  0  0  0  0  0  0
    5.1662   -7.5674    1.2309 H   0  0  0  0  0  0  0  0  0  0  0  0
    5.3049   -6.6320   -0.2382 H   0  0  0  0  0  0  0  0  0  0  0  0
    3.7579   -7.2774    0.2177 H   0  0  0  0  0  0  0  0  0  0  0  0
    2.4351   -8.3893    1.7825 H   0  0  0  0  0  0  0  0  0  0  0  0
    1.6720   -8.2696    3.3529 H   0  0  0  0  0  0  0  0  0  0  0  0
  1  2  1  0
  1 30  1  0
  1 31  1  0
  1 32  1  0
  2 29  1  0
  2  3  2  0
  3  4  1  0
  3 33  1  0
  4 26  1  0
  4  5  1  0
  4 34  1  1
  5 10  1  0
  5  6  1  0
  5 35  1  6
  6  7  1  0
  6 36  1  0
  6 37  1  0
  7  8  1  0
  8  9  2  0
  8 10  1  0
 10 11  1  0
 10 38  1  6
 11 26  1  0
 11 12  1  0
 12 13  1  0
 12 15  1  0
 12 39  1  6
 13 14  1  0
 13 40  1  0
 13 41  1  0
 14 42  1  0
 15 16  1  0
 15 24  1  0
 15 43  1  6
 16 23  1  0
 16 17  2  0
 17 18  1  0
 17 44  1  0
 18 19  2  0
 18 45  1  0
 19 20  1  0
 19 46  1  0
 20 21  1  0
 20 23  2  0
 21 22  1  0
 21 47  1  0
 21 48  1  0
 22 49  1  0
 23 50  1  0
 24 25  1  0
 26 24  1  6
 25 51  1  0
 25 52  1  0
 25 53  1  0
 26 27  1  0
 27 28  2  0
 27 29  1  0
 29 54  1  0
 29 55  1  0
M  END
>  <i_m_ct_stereo_status>  (196) 
1

>  <s_m_source_file>  (196) 
/var/tmp/pbs.5076255.sched01/tmpck0ladl8/45htcshi4i.sdf

>  <i_m_source_file_index>  (196) 
33

>  <i_lp_mmshare_version>  (196) 
48012

>  <i_f3d_flags>  (196) 
0

>  <s_epik_input>  (196) 
Tz1DMVtDSDJdQyhbQ0gzXSk9W0NIXVtDQEhdKFtDQEBdMTIzKVtDQEhdNFtDQEhdKEMoPU8pT1tDSDJdNClOMltDQEBIXShbQ0gyXVtPSF0pW0NASF0oTjNbQ0gzXSljNVtjSF1bY0hdW2NIXWMoW2NIXTUpW0NIMl1bT0hd

>  <s_epik_cmdline>  (196) 
J2VwaWtfcHl0aG9uJywgJy1waHQnLCAnMi4wJywgJy1waCcsICc3LjAnLCAnLXRuJywgJzgnLCAnLW1hJywgJzIwMCcsICctaW1hZScsICc8aW5maWxlLm1hZT4nLCAnLW9tYWUnLCAnPG91dGZpbGUubWFlPic=

>  <r_epik_Ionization_Penalty>  (196) 
1.93316

>  <r_epik_Ionization_Penalty_Charging>  (196) 
0

>  <r_epik_Ionization_Penalty_Neutral>  (196) 
1.93316

>  <r_epik_State_Penalty>  (196) 
1.51547

>  <r_epik_Charging_Adjusted_Penalty>  (196) 
1.51547

>  <i_epik_Tot_Q>  (196) 
0

>  <i_epik_Tot_abs_Q>  (196) 
0

>  <s_epik_Chemistry_Notes>  (196) 
This compound has an ester and may undergo hydrolysis at high or low pH.

>  <s_lp_Force_Field>  (196) 
OPLS3e

>  <r_lp_Energy>  (196) 
46.9167

>  <b_lp_Chiralities_Consistent>  (196) 
1

>  <s_lp_Variant>  (196) 
53:0-3

>  <s_i_glide_gridfile>  (196) 
pfpi4k_grid

>  <i_i_glide_lignum>  (196) 
33

>  <i_i_glide_rotatable_bonds>  (196) 
5

>  <r_i_docking_score>  (196) 
-3.95508

>  <r_i_glide_ligand_efficiency>  (196) 
-0.136382

>  <r_i_glide_ligand_efficiency_sa>  (196) 
-0.419009

>  <r_i_glide_ligand_efficiency_ln>  (196) 
-0.905614

>  <r_i_glide_gscore>  (196) 
-3.95508

>  <r_i_glide_lipo>  (196) 
-0.665283

>  <r_i_glide_hbond>  (196) 
-0.306698

>  <r_i_glide_metal>  (196) 
-0

>  <r_i_glide_rewards>  (196) 
-0.705434

>  <r_i_glide_evdw>  (196) 
-18.7463

>  <r_i_glide_ecoul>  (196) 
-11.3479

>  <r_i_glide_erotb>  (196) 
0.370073

>  <r_i_glide_esite>  (196) 
-0.00823666

>  <r_i_glide_emodel>  (196) 
-37.727

>  <r_i_glide_energy>  (196) 
-30.0942

>  <r_i_glide_einternal>  (196) 
2.84589

>  <r_i_glide_intrahb_reward>  (196) 
-0

>  <i_i_glide_confnum>  (196) 
3

>  <i_i_glide_posenum>  (196) 
11

>  <r_i_glide_eff_state_penalty>  (196) 
0

>  <ligand_id>  (196) 
53

>  <original_smiles>  (196) 
CC1=CC2C3COC(=O)C3N3C(CO)C(c4cccc(CO)c4)N(C)C23C(=O)C1

>  <smiles>  (196) 
[H]OC([H])([H])c1c([H])c([H])c([H])c(C2([H])N(C([H])([H])[H])C34C(=O)C([H])([H])C(C([H])([H])[H])=C([H])C3([H])C3([H])C([H])([H])OC(=O)C3([H])N4C2([H])C([H])([H])O[H])c1[H]

$$$$
53:2:1
     RDKit          3D

 55 59  0  0  1  0  0  0  0  0999 V2000
    4.4722   -2.1492    4.0402 C   0  0  0  0  0  0  0  0  0  0  0  0
    3.9543   -3.2040    4.9984 C   0  0  0  0  0  0  0  0  0  0  0  0
    2.6340   -3.4611    5.1410 C   0  0  0  0  0  0  0  0  0  0  0  0
    2.1712   -4.5030    6.1347 C   0  0  1  0  0  0  0  0  0  0  0  0
    0.7911   -5.1544    6.0156 C   0  0  2  0  0  0  0  0  0  0  0  0
   -0.3712   -4.3726    6.6273 C   0  0  0  0  0  0  0  0  0  0  0  0
   -0.4935   -4.8804    7.9477 O   0  0  0  0  0  0  0  0  0  0  0  0
    0.1903   -6.0095    8.1816 C   0  0  0  0  0  0  0  0  0  0  0  0
    0.1518   -6.6504    9.2286 O   0  0  0  0  0  0  0  0  0  0  0  0
    0.9787   -6.3806    6.9324 C   0  0  2  0  0  0  0  0  0  0  0  0
    2.4310   -6.5602    7.1975 N   0  0  0  0  0  0  0  0  0  0  0  0
    2.9698   -7.9013    6.9755 C   0  0  1  0  0  0  0  0  0  0  0  0
    2.1985   -9.0904    7.5913 C   0  0  0  0  0  0  0  0  0  0  0  0
    3.0057  -10.2524    7.6160 O   0  0  0  0  0  0  0  0  0  0  0  0
    3.3142   -7.9598    5.4702 C   0  0  1  0  0  0  0  0  0  0  0  0
    2.5244   -8.9545    4.6209 C   0  0  0  0  0  0  0  0  0  0  0  0
    3.0955  -10.1852    4.2252 C   0  0  0  0  0  0  0  0  0  0  0  0
    2.3507  -11.0928    3.4407 C   0  0  0  0  0  0  0  0  0  0  0  0
    1.0247  -10.7875    3.0748 C   0  0  0  0  0  0  0  0  0  0  0  0
    0.4471   -9.5676    3.4690 C   0  0  0  0  0  0  0  0  0  0  0  0
   -0.9763   -9.2334    3.0884 C   0  0  0  0  0  0  0  0  0  0  0  0
   -1.0334   -8.3403    2.0014 O   0  0  0  0  0  0  0  0  0  0  0  0
    1.2062   -8.6491    4.2130 C   0  0  0  0  0  0  0  0  0  0  0  0
    3.1249   -6.5715    5.0274 N   0  0  0  0  0  0  0  0  0  0  0  0
    3.9358   -6.2629    3.8499 C   0  0  0  0  0  0  0  0  0  0  0  0
    3.1184   -5.7058    6.2325 C   0  0  1  0  0  0  0  0  0  0  0  0
    4.4979   -5.1270    6.6369 C   0  0  0  0  0  0  0  0  0  0  0  0
    5.1405   -5.5616    7.5903 O   0  0  0  0  0  0  0  0  0  0  0  0
    5.0363   -3.9536    5.7895 C   0  0  0  0  0  0  0  0  0  0  0  0
    5.1328   -2.6061    3.3012 H   0  0  0  0  0  0  0  0  0  0  0  0
    5.0348   -1.3861    4.5821 H   0  0  0  0  0  0  0  0  0  0  0  0
    3.6509   -1.6604    3.5110 H   0  0  0  0  0  0  0  0  0  0  0  0
    1.8832   -2.9156    4.5844 H   0  0  0  0  0  0  0  0  0  0  0  0
    2.1794   -3.9739    7.0903 H   0  0  0  0  0  0  0  0  0  0  0  0
    0.5915   -5.4405    4.9812 H   0  0  0  0  0  0  0  0  0  0  0  0
   -0.2006   -3.2966    6.6179 H   0  0  0  0  0  0  0  0  0  0  0  0
   -1.2932   -4.5744    6.0825 H   0  0  0  0  0  0  0  0  0  0  0  0
    0.5123   -7.2704    6.5202 H   0  0  0  0  0  0  0  0  0  0  0  0
    3.9251   -7.9079    7.5031 H   0  0  0  0  0  0  0  0  0  0  0  0
    1.9091   -8.8627    8.6141 H   0  0  0  0  0  0  0  0  0  0  0  0
    1.2847   -9.3170    7.0462 H   0  0  0  0  0  0  0  0  0  0  0  0
    2.4313  -11.0168    7.6799 H   0  0  0  0  0  0  0  0  0  0  0  0
    4.3725   -8.2130    5.3985 H   0  0  0  0  0  0  0  0  0  0  0  0
    4.1024  -10.4400    4.5175 H   0  0  0  0  0  0  0  0  0  0  0  0
    2.7878  -12.0315    3.1246 H   0  0  0  0  0  0  0  0  0  0  0  0
    0.4583  -11.4863    2.4819 H   0  0  0  0  0  0  0  0  0  0  0  0
   -1.5174  -10.1406    2.8297 H   0  0  0  0  0  0  0  0  0  0  0  0
   -1.5001   -8.7976    3.9393 H   0  0  0  0  0  0  0  0  0  0  0  0
   -0.7242   -8.8086    1.2337 H   0  0  0  0  0  0  0  0  0  0  0  0
    0.7502   -7.7104    4.4671 H   0  0  0  0  0  0  0  0  0  0  0  0
    3.6570   -5.3048    3.4108 H   0  0  0  0  0  0  0  0  0  0  0  0
    3.7655   -7.0081    3.0710 H   0  0  0  0  0  0  0  0  0  0  0  0
    5.0060   -6.2610    4.0664 H   0  0  0  0  0  0  0  0  0  0  0  0
    5.7838   -4.3439    5.1041 H   0  0  0  0  0  0  0  0  0  0  0  0
    5.5471   -3.2537    6.4464 H   0  0  0  0  0  0  0  0  0  0  0  0
  1  2  1  0
  1 30  1  0
  1 31  1  0
  1 32  1  0
  2 29  1  0
  2  3  2  0
  3  4  1  0
  3 33  1  0
  4 26  1  0
  4  5  1  0
  4 34  1  1
  5 10  1  0
  5  6  1  0
  5 35  1  6
  6  7  1  0
  6 36  1  0
  6 37  1  0
  7  8  1  0
  8  9  2  0
  8 10  1  0
 10 11  1  0
 10 38  1  6
 11 26  1  0
 11 12  1  0
 12 13  1  0
 12 15  1  0
 12 39  1  1
 13 14  1  0
 13 40  1  0
 13 41  1  0
 14 42  1  0
 15 16  1  0
 15 24  1  0
 15 43  1  1
 16 23  1  0
 16 17  2  0
 17 18  1  0
 17 44  1  0
 18 19  2  0
 18 45  1  0
 19 20  1  0
 19 46  1  0
 20 21  1  0
 20 23  2  0
 21 22  1  0
 21 47  1  0
 21 48  1  0
 22 49  1  0
 23 50  1  0
 24 25  1  0
 26 24  1  6
 25 51  1  0
 25 52  1  0
 25 53  1  0
 26 27  1  0
 27 28  2  0
 27 29  1  0
 29 54  1  0
 29 55  1  0
M  END
>  <i_m_ct_stereo_status>  (197) 
1

>  <s_m_source_file>  (197) 
/var/tmp/pbs.5076255.sched01/tmpck0ladl8/45htcshi4i.sdf

>  <i_m_source_file_index>  (197) 
33

>  <i_lp_mmshare_version>  (197) 
48012

>  <i_f3d_flags>  (197) 
0

>  <s_epik_input>  (197) 
Tz1DMVtDSDJdQyhbQ0gzXSk9W0NIXVtDQEhdKFtDQEBdMTIzKVtDQEhdNFtDQEhdKEMoPU8pT1tDSDJdNClOMltDQEBIXShbQ0gyXVtPSF0pW0NASF0oTjNbQ0gzXSljNVtjSF1bY0hdW2NIXWMoW2NIXTUpW0NIMl1bT0hd

>  <s_epik_cmdline>  (197) 
J2VwaWtfcHl0aG9uJywgJy1waHQnLCAnMi4wJywgJy1waCcsICc3LjAnLCAnLXRuJywgJzgnLCAnLW1hJywgJzIwMCcsICctaW1hZScsICc8aW5maWxlLm1hZT4nLCAnLW9tYWUnLCAnPG91dGZpbGUubWFlPic=

>  <r_epik_Ionization_Penalty>  (197) 
1.93316

>  <r_epik_Ionization_Penalty_Charging>  (197) 
0

>  <r_epik_Ionization_Penalty_Neutral>  (197) 
1.93316

>  <r_epik_State_Penalty>  (197) 
1.51547

>  <r_epik_Charging_Adjusted_Penalty>  (197) 
1.51547

>  <i_epik_Tot_Q>  (197) 
0

>  <i_epik_Tot_abs_Q>  (197) 
0

>  <s_epik_Chemistry_Notes>  (197) 
This compound has an ester and may undergo hydrolysis at high or low pH.

>  <s_lp_Force_Field>  (197) 
OPLS3e

>  <r_lp_Energy>  (197) 
46.9167

>  <b_lp_Chiralities_Consistent>  (197) 
1

>  <s_lp_Variant>  (197) 
53:0-3

>  <s_i_glide_gridfile>  (197) 
pfpi4k_grid

>  <i_i_glide_lignum>  (197) 
33

>  <i_i_glide_rotatable_bonds>  (197) 
5

>  <r_i_docking_score>  (197) 
-3.6963

>  <r_i_glide_ligand_efficiency>  (197) 
-0.127459

>  <r_i_glide_ligand_efficiency_sa>  (197) 
-0.391593

>  <r_i_glide_ligand_efficiency_ln>  (197) 
-0.846359

>  <r_i_glide_gscore>  (197) 
-3.6963

>  <r_i_glide_lipo>  (197) 
-0.230661

>  <r_i_glide_hbond>  (197) 
-0.697924

>  <r_i_glide_metal>  (197) 
-0

>  <r_i_glide_rewards>  (197) 
-0.692371

>  <r_i_glide_evdw>  (197) 
-18.2969

>  <r_i_glide_ecoul>  (197) 
-10.1299

>  <r_i_glide_erotb>  (197) 
0.370073

>  <r_i_glide_esite>  (197) 
-0.0110866

>  <r_i_glide_emodel>  (197) 
-36.6602

>  <r_i_glide_energy>  (197) 
-28.4268

>  <r_i_glide_einternal>  (197) 
1.20957

>  <r_i_glide_intrahb_reward>  (197) 
-0

>  <i_i_glide_confnum>  (197) 
4

>  <i_i_glide_posenum>  (197) 
22

>  <r_i_glide_eff_state_penalty>  (197) 
0

>  <ligand_id>  (197) 
53

>  <original_smiles>  (197) 
CC1=CC2C3COC(=O)C3N3C(CO)C(c4cccc(CO)c4)N(C)C23C(=O)C1

>  <smiles>  (197) 
[H]OC([H])([H])c1c([H])c([H])c([H])c(C2([H])N(C([H])([H])[H])C34C(=O)C([H])([H])C(C([H])([H])[H])=C([H])C3([H])C3([H])C([H])([H])OC(=O)C3([H])N4C2([H])C([H])([H])O[H])c1[H]

$$$$
53:2:2
     RDKit          3D

 55 59  0  0  1  0  0  0  0  0999 V2000
    4.3098   -2.1136    3.8260 C   0  0  0  0  0  0  0  0  0  0  0  0
    3.8317   -3.1808    4.7898 C   0  0  0  0  0  0  0  0  0  0  0  0
    2.5180   -3.4371    4.9858 C   0  0  0  0  0  0  0  0  0  0  0  0
    2.0976   -4.4932    5.9803 C   0  0  1  0  0  0  0  0  0  0  0  0
    0.7114   -5.1361    5.9069 C   0  0  2  0  0  0  0  0  0  0  0  0
   -0.4190   -4.3626    6.5839 C   0  0  0  0  0  0  0  0  0  0  0  0
   -0.4873   -4.9014    7.8939 O   0  0  0  0  0  0  0  0  0  0  0  0
    0.1947   -6.0390    8.0778 C   0  0  0  0  0  0  0  0  0  0  0  0
    0.2064   -6.6978    9.1157 O   0  0  0  0  0  0  0  0  0  0  0  0
    0.9331   -6.3827    6.7888 C   0  0  2  0  0  0  0  0  0  0  0  0
    2.3935   -6.5652    6.9997 N   0  0  0  0  0  0  0  0  0  0  0  0
    2.9223   -7.9017    6.7367 C   0  0  1  0  0  0  0  0  0  0  0  0
    2.1783   -9.1053    7.3682 C   0  0  0  0  0  0  0  0  0  0  0  0
    3.0067  -10.2531    7.4115 O   0  0  0  0  0  0  0  0  0  0  0  0
    3.2019   -7.9396    5.2196 C   0  0  1  0  0  0  0  0  0  0  0  0
    2.3637   -8.9206    4.4043 C   0  0  0  0  0  0  0  0  0  0  0  0
    2.8598  -10.2067    4.0919 C   0  0  0  0  0  0  0  0  0  0  0  0
    2.0796  -11.1007    3.3306 C   0  0  0  0  0  0  0  0  0  0  0  0
    0.8015  -10.7190    2.8809 C   0  0  0  0  0  0  0  0  0  0  0  0
    0.2955   -9.4431    3.1835 C   0  0  0  0  0  0  0  0  0  0  0  0
   -1.0684   -9.0191    2.6796 C   0  0  0  0  0  0  0  0  0  0  0  0
   -1.9449   -8.6524    3.7232 O   0  0  0  0  0  0  0  0  0  0  0  0
    1.0757   -8.5529    3.9424 C   0  0  0  0  0  0  0  0  0  0  0  0
    2.9950   -6.5443    4.8055 N   0  0  0  0  0  0  0  0  0  0  0  0
    3.7565   -6.2186    3.5986 C   0  0  0  0  0  0  0  0  0  0  0  0
    3.0429   -5.6983    6.0233 C   0  0  1  0  0  0  0  0  0  0  0  0
    4.4372   -5.1237    6.3747 C   0  0  0  0  0  0  0  0  0  0  0  0
    5.1203   -5.5768    7.2876 O   0  0  0  0  0  0  0  0  0  0  0  0
    4.9464   -3.9427    5.5208 C   0  0  0  0  0  0  0  0  0  0  0  0
    4.9356   -2.5599    3.0511 H   0  0  0  0  0  0  0  0  0  0  0  0
    4.8987   -1.3598    4.3526 H   0  0  0  0  0  0  0  0  0  0  0  0
    3.4681   -1.6144    3.3407 H   0  0  0  0  0  0  0  0  0  0  0  0
    1.7436   -2.8824    4.4738 H   0  0  0  0  0  0  0  0  0  0  0  0
    2.1470   -3.9796    6.9429 H   0  0  0  0  0  0  0  0  0  0  0  0
    0.4619   -5.3970    4.8769 H   0  0  0  0  0  0  0  0  0  0  0  0
   -0.2498   -3.2860    6.5882 H   0  0  0  0  0  0  0  0  0  0  0  0
   -1.3671   -4.5534    6.0840 H   0  0  0  0  0  0  0  0  0  0  0  0
    0.4578   -7.2555    6.3481 H   0  0  0  0  0  0  0  0  0  0  0  0
    3.8968   -7.9164    7.2250 H   0  0  0  0  0  0  0  0  0  0  0  0
    1.8948   -8.8673    8.3941 H   0  0  0  0  0  0  0  0  0  0  0  0
    1.2533   -9.3454    6.8355 H   0  0  0  0  0  0  0  0  0  0  0  0
    2.4440  -11.0187    7.5435 H   0  0  0  0  0  0  0  0  0  0  0  0
    4.2551   -8.2012    5.0925 H   0  0  0  0  0  0  0  0  0  0  0  0
    3.8369  -10.5145    4.4368 H   0  0  0  0  0  0  0  0  0  0  0  0
    2.4591  -12.0818    3.0788 H   0  0  0  0  0  0  0  0  0  0  0  0
    0.2172  -11.4021    2.2804 H   0  0  0  0  0  0  0  0  0  0  0  0
   -0.9460   -8.1760    2.0002 H   0  0  0  0  0  0  0  0  0  0  0  0
   -1.5289   -9.8201    2.1028 H   0  0  0  0  0  0  0  0  0  0  0  0
   -2.0996   -9.4344    4.2522 H   0  0  0  0  0  0  0  0  0  0  0  0
    0.6740   -7.5769    4.1496 H   0  0  0  0  0  0  0  0  0  0  0  0
    3.4597   -5.2558    3.1834 H   0  0  0  0  0  0  0  0  0  0  0  0
    3.5474   -6.9511    2.8179 H   0  0  0  0  0  0  0  0  0  0  0  0
    4.8358   -6.2234    3.7622 H   0  0  0  0  0  0  0  0  0  0  0  0
    5.6608   -4.3262    4.7965 H   0  0  0  0  0  0  0  0  0  0  0  0
    5.4880   -3.2526    6.1645 H   0  0  0  0  0  0  0  0  0  0  0  0
  1  2  1  0
  1 30  1  0
  1 31  1  0
  1 32  1  0
  2 29  1  0
  2  3  2  0
  3  4  1  0
  3 33  1  0
  4 26  1  0
  4  5  1  0
  4 34  1  1
  5 10  1  0
  5  6  1  0
  5 35  1  6
  6  7  1  0
  6 36  1  0
  6 37  1  0
  7  8  1  0
  8  9  2  0
  8 10  1  0
 10 11  1  0
 10 38  1  6
 11 26  1  0
 11 12  1  0
 12 13  1  0
 12 15  1  0
 12 39  1  1
 13 14  1  0
 13 40  1  0
 13 41  1  0
 14 42  1  0
 15 16  1  0
 15 24  1  0
 15 43  1  1
 16 23  1  0
 16 17  2  0
 17 18  1  0
 17 44  1  0
 18 19  2  0
 18 45  1  0
 19 20  1  0
 19 46  1  0
 20 21  1  0
 20 23  2  0
 21 22  1  0
 21 47  1  0
 21 48  1  0
 22 49  1  0
 23 50  1  0
 24 25  1  0
 26 24  1  6
 25 51  1  0
 25 52  1  0
 25 53  1  0
 26 27  1  0
 27 28  2  0
 27 29  1  0
 29 54  1  0
 29 55  1  0
M  END
>  <i_m_ct_stereo_status>  (198) 
1

>  <s_m_source_file>  (198) 
/var/tmp/pbs.5076255.sched01/tmpck0ladl8/45htcshi4i.sdf

>  <i_m_source_file_index>  (198) 
33

>  <i_lp_mmshare_version>  (198) 
48012

>  <i_f3d_flags>  (198) 
0

>  <s_epik_input>  (198) 
Tz1DMVtDSDJdQyhbQ0gzXSk9W0NIXVtDQEhdKFtDQEBdMTIzKVtDQEhdNFtDQEhdKEMoPU8pT1tDSDJdNClOMltDQEBIXShbQ0gyXVtPSF0pW0NASF0oTjNbQ0gzXSljNVtjSF1bY0hdW2NIXWMoW2NIXTUpW0NIMl1bT0hd

>  <s_epik_cmdline>  (198) 
J2VwaWtfcHl0aG9uJywgJy1waHQnLCAnMi4wJywgJy1waCcsICc3LjAnLCAnLXRuJywgJzgnLCAnLW1hJywgJzIwMCcsICctaW1hZScsICc8aW5maWxlLm1hZT4nLCAnLW9tYWUnLCAnPG91dGZpbGUubWFlPic=

>  <r_epik_Ionization_Penalty>  (198) 
1.93316

>  <r_epik_Ionization_Penalty_Charging>  (198) 
0

>  <r_epik_Ionization_Penalty_Neutral>  (198) 
1.93316

>  <r_epik_State_Penalty>  (198) 
1.51547

>  <r_epik_Charging_Adjusted_Penalty>  (198) 
1.51547

>  <i_epik_Tot_Q>  (198) 
0

>  <i_epik_Tot_abs_Q>  (198) 
0

>  <s_epik_Chemistry_Notes>  (198) 
This compound has an ester and may undergo hydrolysis at high or low pH.

>  <s_lp_Force_Field>  (198) 
OPLS3e

>  <r_lp_Energy>  (198) 
46.9167

>  <b_lp_Chiralities_Consistent>  (198) 
1

>  <s_lp_Variant>  (198) 
53:0-3

>  <s_i_glide_gridfile>  (198) 
pfpi4k_grid

>  <i_i_glide_lignum>  (198) 
33

>  <i_i_glide_rotatable_bonds>  (198) 
5

>  <r_i_docking_score>  (198) 
-3.53095

>  <r_i_glide_ligand_efficiency>  (198) 
-0.121757

>  <r_i_glide_ligand_efficiency_sa>  (198) 
-0.374076

>  <r_i_glide_ligand_efficiency_ln>  (198) 
-0.808498

>  <r_i_glide_gscore>  (198) 
-3.53095

>  <r_i_glide_lipo>  (198) 
-0.271589

>  <r_i_glide_hbond>  (198) 
-0.504085

>  <r_i_glide_metal>  (198) 
-0

>  <r_i_glide_rewards>  (198) 
-0.692371

>  <r_i_glide_evdw>  (198) 
-19.2542

>  <r_i_glide_ecoul>  (198) 
-9.73176

>  <r_i_glide_erotb>  (198) 
0.370073

>  <r_i_glide_esite>  (198) 
-0.010505

>  <r_i_glide_emodel>  (198) 
-36.8017

>  <r_i_glide_energy>  (198) 
-28.9859

>  <r_i_glide_einternal>  (198) 
1.35044

>  <r_i_glide_intrahb_reward>  (198) 
-0

>  <i_i_glide_confnum>  (198) 
4

>  <i_i_glide_posenum>  (198) 
20

>  <r_i_glide_eff_state_penalty>  (198) 
0

>  <ligand_id>  (198) 
53

>  <original_smiles>  (198) 
CC1=CC2C3COC(=O)C3N3C(CO)C(c4cccc(CO)c4)N(C)C23C(=O)C1

>  <smiles>  (198) 
[H]OC([H])([H])c1c([H])c([H])c([H])c(C2([H])N(C([H])([H])[H])C34C(=O)C([H])([H])C(C([H])([H])[H])=C([H])C3([H])C3([H])C([H])([H])OC(=O)C3([H])N4C2([H])C([H])([H])O[H])c1[H]

$$$$
53:3:0
     RDKit          3D

 57 61  0  0  1  0  0  0  0  0999 V2000
    3.4866   -8.2920    1.3055 C   0  0  0  0  0  0  0  0  0  0  0  0
    4.0039   -6.8877    1.0542 C   0  0  0  0  0  0  0  0  0  0  0  0
    3.2281   -5.9125    0.5262 C   0  0  0  0  0  0  0  0  0  0  0  0
    3.8281   -4.5622    0.2448 C   0  0  1  0  0  0  0  0  0  0  0  0
    2.9645   -3.3397   -0.0472 C   0  0  2  0  0  0  0  0  0  0  0  0
    2.4887   -3.2575   -1.5091 C   0  0  0  0  0  0  0  0  0  0  0  0
    3.5799   -2.6297   -2.1804 O   0  0  0  0  0  0  0  0  0  0  0  0
    4.5060   -2.0382   -1.3764 C   0  0  0  0  0  0  0  0  0  0  0  0
    5.4812   -1.4202   -1.6917 O   0  0  0  0  0  0  0  0  0  0  0  0
    4.0152   -2.2349    0.0571 C   0  0  2  0  0  0  0  0  0  0  0  0
    5.1306   -2.7204    0.9514 N   0  0  1  0  0  0  0  0  0  0  0  0
    5.2354   -1.9605    2.2209 C   0  0  1  0  0  0  0  0  0  0  0  0
    5.4646   -0.4209    2.1622 C   0  0  0  0  0  0  0  0  0  0  0  0
    5.8241   -0.0290    3.4905 O   0  0  0  0  0  0  0  0  0  0  0  0
    4.1558   -2.5504    3.1503 C   0  0  1  0  0  0  0  0  0  0  0  0
    2.7424   -1.9202    3.2750 C   0  0  0  0  0  0  0  0  0  0  0  0
    1.8596   -2.3844    4.2968 C   0  0  0  0  0  0  0  0  0  0  0  0
    0.5858   -1.8127    4.4959 C   0  0  0  0  0  0  0  0  0  0  0  0
    0.1741   -0.7197    3.6882 C   0  0  0  0  0  0  0  0  0  0  0  0
    1.0127   -0.2510    2.6668 C   0  0  0  0  0  0  0  0  0  0  0  0
    0.5913    0.8862    1.7322 C   0  0  0  0  0  0  0  0  0  0  0  0
    0.5191    2.1457    2.3676 O   0  0  0  0  0  0  0  0  0  0  0  0
    2.2660   -0.8407    2.4614 C   0  0  0  0  0  0  0  0  0  0  0  0
    4.0585   -3.9795    2.7129 N   0  0  2  0  0  0  0  0  0  0  0  0
    4.4176   -4.9343    3.8064 C   0  0  0  0  0  0  0  0  0  0  0  0
    4.7468   -4.0915    1.3535 C   0  0  1  0  0  0  0  0  0  0  0  0
    5.8924   -5.1236    1.3574 C   0  0  0  0  0  0  0  0  0  0  0  0
    7.0669   -4.7520    1.3367 O   0  0  0  0  0  0  0  0  0  0  0  0
    5.4954   -6.6320    1.3909 C   0  0  0  0  0  0  0  0  0  0  0  0
    3.5958   -8.5561    2.3552 H   0  0  0  0  0  0  0  0  0  0  0  0
    4.0303   -9.0250    0.7101 H   0  0  0  0  0  0  0  0  0  0  0  0
    2.4304   -8.3711    1.0496 H   0  0  0  0  0  0  0  0  0  0  0  0
    2.1964   -6.0857    0.2326 H   0  0  0  0  0  0  0  0  0  0  0  0
    4.4320   -4.7479   -0.6489 H   0  0  0  0  0  0  0  0  0  0  0  0
    2.1757   -3.2328    0.7043 H   0  0  0  0  0  0  0  0  0  0  0  0
    2.2577   -4.2262   -1.9423 H   0  0  0  0  0  0  0  0  0  0  0  0
    1.5717   -2.6766   -1.5796 H   0  0  0  0  0  0  0  0  0  0  0  0
    3.6228   -1.2648    0.2758 H   0  0  0  0  0  0  0  0  0  0  0  0
    6.1741   -2.3531    2.6162 H   0  0  0  0  0  0  0  0  0  0  0  0
    6.3038   -0.2191    1.4616 H   0  0  0  0  0  0  0  0  0  0  0  0
    4.6566    0.2145    1.8599 H   0  0  0  0  0  0  0  0  0  0  0  0
    6.7769   -0.0511    3.6097 H   0  0  0  0  0  0  0  0  0  0  0  0
    4.5819   -2.5153    4.1428 H   0  0  0  0  0  0  0  0  0  0  0  0
    2.1737   -3.1834    4.9765 H   0  0  0  0  0  0  0  0  0  0  0  0
   -0.0920   -2.2013    5.2479 H   0  0  0  0  0  0  0  0  0  0  0  0
   -0.8098   -0.2749    3.8059 H   0  0  0  0  0  0  0  0  0  0  0  0
    1.3018    0.9558    0.9102 H   0  0  0  0  0  0  0  0  0  0  0  0
   -0.3535    0.6191    1.2765 H   0  0  0  0  0  0  0  0  0  0  0  0
    0.2817    2.8059    1.7166 H   0  0  0  0  0  0  0  0  0  0  0  0
    2.8143   -0.3516    1.6880 H   0  0  0  0  0  0  0  0  0  0  0  0
    5.4738   -4.8854    4.0917 H   0  0  0  0  0  0  0  0  0  0  0  0
    4.1535   -5.9687    3.5636 H   0  0  0  0  0  0  0  0  0  0  0  0
    3.8404   -4.6945    4.6967 H   0  0  0  0  0  0  0  0  0  0  0  0
    5.7113   -7.0763    2.3708 H   0  0  0  0  0  0  0  0  0  0  0  0
    6.1033   -7.2002    0.6785 H   0  0  0  0  0  0  0  0  0  0  0  0
    6.0131   -2.7567    0.4527 H   0  0  0  0  0  0  0  0  0  0  0  0
    3.0740   -4.1204    2.5290 H   0  0  0  0  0  0  0  0  0  0  0  0
  1  2  1  0
  1 30  1  0
  1 31  1  0
  1 32  1  0
  2 29  1  0
  2  3  2  0
  3  4  1  0
  3 33  1  0
  4 26  1  0
  4  5  1  0
  4 34  1  6
  5 10  1  0
  5  6  1  0
  5 35  1  1
  6  7  1  0
  6 36  1  0
  6 37  1  0
  7  8  1  0
  8  9  2  0
  8 10  1  0
 10 11  1  0
 10 38  1  1
 11 26  1  0
 11 12  1  0
 11 56  1  6
 12 13  1  0
 12 15  1  0
 12 39  1  1
 13 14  1  0
 13 40  1  0
 13 41  1  0
 14 42  1  0
 15 16  1  0
 15 24  1  0
 15 43  1  1
 16 23  1  0
 16 17  2  0
 17 18  1  0
 17 44  1  0
 18 19  2  0
 18 45  1  0
 19 20  1  0
 19 46  1  0
 20 21  1  0
 20 23  2  0
 21 22  1  0
 21 47  1  0
 21 48  1  0
 22 49  1  0
 23 50  1  0
 24 25  1  0
 24 26  1  0
 24 57  1  6
 25 51  1  0
 25 52  1  0
 25 53  1  0
 26 27  1  1
 27 28  2  0
 27 29  1  0
 29 54  1  0
 29 55  1  0
M  CHG  2  11   1  24   1
M  END
>  <i_m_ct_stereo_status>  (199) 
1

>  <s_m_source_file>  (199) 
/var/tmp/pbs.5076255.sched01/tmpck0ladl8/45htcshi4i.sdf

>  <i_m_source_file_index>  (199) 
34

>  <i_lp_mmshare_version>  (199) 
48012

>  <i_f3d_flags>  (199) 
0

>  <s_epik_input>  (199) 
Tz1DMVtDSDJdQyhbQ0gzXSk9W0NIXVtDQEhdKFtDQEBdMTIzKVtDQEhdNFtDQEhdKEMoPU8pT1tDSDJdNClOMltDQEBIXShbQ0gyXVtPSF0pW0NASF0oTjNbQ0gzXSljNVtjSF1bY0hdW2NIXWMoW2NIXTUpW0NIMl1bT0hd

>  <s_epik_cmdline>  (199) 
J2VwaWtfcHl0aG9uJywgJy1waHQnLCAnMi4wJywgJy1waCcsICc3LjAnLCAnLXRuJywgJzgnLCAnLW1hJywgJzIwMCcsICctaW1hZScsICc8aW5maWxlLm1hZT4nLCAnLW9tYWUnLCAnPG91dGZpbGUubWFlPic=

>  <r_epik_Ionization_Penalty>  (199) 
3.34915

>  <r_epik_Ionization_Penalty_Charging>  (199) 
3.32511

>  <r_epik_Ionization_Penalty_Neutral>  (199) 
0.0240411

>  <r_epik_State_Penalty>  (199) 
2.29594

>  <r_epik_Charging_Adjusted_Penalty>  (199) 
5.62105

>  <i_epik_Tot_Q>  (199) 
2

>  <i_epik_Tot_abs_Q>  (199) 
2

>  <s_epik_Chemistry_Notes>  (199) 
This compound has an ester and may undergo hydrolysis at high or low pH.

>  <s_lp_Force_Field>  (199) 
OPLS3e

>  <r_lp_Energy>  (199) 
42.4592

>  <b_lp_Chiralities_Consistent>  (199) 
1

>  <s_lp_Variant>  (199) 
53:0-4

>  <s_i_glide_gridfile>  (199) 
pfpi4k_grid

>  <i_i_glide_lignum>  (199) 
34

>  <i_i_glide_rotatable_bonds>  (199) 
5

>  <r_i_docking_score>  (199) 
-3.77327

>  <r_i_glide_ligand_efficiency>  (199) 
-0.130113

>  <r_i_glide_ligand_efficiency_sa>  (199) 
-0.399748

>  <r_i_glide_ligand_efficiency_ln>  (199) 
-0.863983

>  <r_i_glide_gscore>  (199) 
-3.77327

>  <r_i_glide_lipo>  (199) 
-0.455902

>  <r_i_glide_hbond>  (199) 
-0.181636

>  <r_i_glide_metal>  (199) 
-0

>  <r_i_glide_rewards>  (199) 
-0.814727

>  <r_i_glide_evdw>  (199) 
-25.1989

>  <r_i_glide_ecoul>  (199) 
-9.32003

>  <r_i_glide_erotb>  (199) 
0.366727

>  <r_i_glide_esite>  (199) 
-0.0297852

>  <r_i_glide_emodel>  (199) 
-44.2018

>  <r_i_glide_energy>  (199) 
-34.5189

>  <r_i_glide_einternal>  (199) 
1.11327

>  <r_i_glide_intrahb_reward>  (199) 
-0

>  <i_i_glide_confnum>  (199) 
2

>  <i_i_glide_posenum>  (199) 
2

>  <r_i_glide_eff_state_penalty>  (199) 
0

>  <ligand_id>  (199) 
53

>  <original_smiles>  (199) 
CC1=CC2C3COC(=O)C3N3C(CO)C(c4cccc(CO)c4)N(C)C23C(=O)C1

>  <smiles>  (199) 
[H]OC([H])([H])c1c([H])c([H])c([H])c(C2([H])C([H])(C([H])([H])O[H])[N+]3([H])C4([H])C(=O)OC([H])([H])C4([H])C4([H])C([H])=C(C([H])([H])[H])C([H])([H])C(=O)C43[N+]2([H])C([H])([H])[H])c1[H]

$$$$
53:3:1
     RDKit          3D

 57 61  0  0  1  0  0  0  0  0999 V2000
    3.4913   -8.2883    1.3815 C   0  0  0  0  0  0  0  0  0  0  0  0
    4.0131   -6.8841    1.1398 C   0  0  0  0  0  0  0  0  0  0  0  0
    3.2524   -5.9125    0.6010 C   0  0  0  0  0  0  0  0  0  0  0  0
    3.8543   -4.5581    0.3278 C   0  0  1  0  0  0  0  0  0  0  0  0
    3.0002   -3.3342    0.0218 C   0  0  2  0  0  0  0  0  0  0  0  0
    2.5622   -3.2599   -1.4545 C   0  0  0  0  0  0  0  0  0  0  0  0
    3.6809   -2.6544   -2.1022 O   0  0  0  0  0  0  0  0  0  0  0  0
    4.5815   -2.0585   -1.2719 C   0  0  0  0  0  0  0  0  0  0  0  0
    5.5747   -1.4301   -1.5614 O   0  0  0  0  0  0  0  0  0  0  0  0
    4.0581   -2.2281    0.1483 C   0  0  2  0  0  0  0  0  0  0  0  0
    5.1609   -2.7171    1.0599 N   0  0  1  0  0  0  0  0  0  0  0  0
    5.2389   -1.9638    2.3220 C   0  0  1  0  0  0  0  0  0  0  0  0
    5.4637   -0.4147    2.2571 C   0  0  0  0  0  0  0  0  0  0  0  0
    5.7200    0.0364    3.5915 O   0  0  0  0  0  0  0  0  0  0  0  0
    4.1405   -2.5563    3.2321 C   0  0  1  0  0  0  0  0  0  0  0  0
    2.7238   -1.9069    3.3297 C   0  0  0  0  0  0  0  0  0  0  0  0
    1.8337   -2.3809    4.3549 C   0  0  0  0  0  0  0  0  0  0  0  0
    0.5574   -1.7898    4.5275 C   0  0  0  0  0  0  0  0  0  0  0  0
    0.1453   -0.7052    3.7180 C   0  0  0  0  0  0  0  0  0  0  0  0
    1.0000   -0.2442    2.6867 C   0  0  0  0  0  0  0  0  0  0  0  0
    0.6061    0.8750    1.7414 C   0  0  0  0  0  0  0  0  0  0  0  0
    0.5554    2.1411    2.3581 O   0  0  0  0  0  0  0  0  0  0  0  0
    2.2586   -0.8380    2.5065 C   0  0  0  0  0  0  0  0  0  0  0  0
    4.0459   -3.9665    2.7888 N   0  0  2  0  0  0  0  0  0  0  0  0
    4.3909   -4.9347    3.8854 C   0  0  0  0  0  0  0  0  0  0  0  0
    4.7601   -4.0942    1.4527 C   0  0  1  0  0  0  0  0  0  0  0  0
    5.8996   -5.1218    1.4684 C   0  0  0  0  0  0  0  0  0  0  0  0
    7.0759   -4.7459    1.4738 O   0  0  0  0  0  0  0  0  0  0  0  0
    5.5010   -6.6409    1.5035 C   0  0  0  0  0  0  0  0  0  0  0  0
    3.5810   -8.5528    2.4320 H   0  0  0  0  0  0  0  0  0  0  0  0
    4.0428   -9.0213    0.7951 H   0  0  0  0  0  0  0  0  0  0  0  0
    2.4397   -8.3605    1.1064 H   0  0  0  0  0  0  0  0  0  0  0  0
    2.2287   -6.0725    0.2783 H   0  0  0  0  0  0  0  0  0  0  0  0
    4.4824   -4.7493   -0.5522 H   0  0  0  0  0  0  0  0  0  0  0  0
    2.1964   -3.2325    0.7621 H   0  0  0  0  0  0  0  0  0  0  0  0
    2.3287   -4.2245   -1.8977 H   0  0  0  0  0  0  0  0  0  0  0  0
    1.6583   -2.6663   -1.5565 H   0  0  0  0  0  0  0  0  0  0  0  0
    3.6646   -1.2493    0.3234 H   0  0  0  0  0  0  0  0  0  0  0  0
    6.1694   -2.3467    2.7428 H   0  0  0  0  0  0  0  0  0  0  0  0
    6.3667   -0.2683    1.6406 H   0  0  0  0  0  0  0  0  0  0  0  0
    4.6962    0.2308    1.8349 H   0  0  0  0  0  0  0  0  0  0  0  0
    5.4355    0.9340    3.6717 H   0  0  0  0  0  0  0  0  0  0  0  0
    4.5615   -2.5128    4.2206 H   0  0  0  0  0  0  0  0  0  0  0  0
    2.1455   -3.1637    5.0449 H   0  0  0  0  0  0  0  0  0  0  0  0
   -0.1304   -2.1753    5.2847 H   0  0  0  0  0  0  0  0  0  0  0  0
   -0.8312   -0.2511    3.8119 H   0  0  0  0  0  0  0  0  0  0  0  0
    1.3090    0.9299    0.9153 H   0  0  0  0  0  0  0  0  0  0  0  0
   -0.3343    0.6131    1.2988 H   0  0  0  0  0  0  0  0  0  0  0  0
    0.3008    2.8005    1.7107 H   0  0  0  0  0  0  0  0  0  0  0  0
    2.8185   -0.3348    1.7257 H   0  0  0  0  0  0  0  0  0  0  0  0
    5.4452   -4.8898    4.1969 H   0  0  0  0  0  0  0  0  0  0  0  0
    4.1218   -5.9725    3.6395 H   0  0  0  0  0  0  0  0  0  0  0  0
    3.7950   -4.6902    4.7690 H   0  0  0  0  0  0  0  0  0  0  0  0
    5.6967   -7.0795    2.4852 H   0  0  0  0  0  0  0  0  0  0  0  0
    6.1196   -7.2075    0.8098 H   0  0  0  0  0  0  0  0  0  0  0  0
    6.0485   -2.7758    0.5673 H   0  0  0  0  0  0  0  0  0  0  0  0
    3.0725   -4.1094    2.5921 H   0  0  0  0  0  0  0  0  0  0  0  0
  1  2  1  0
  1 30  1  0
  1 31  1  0
  1 32  1  0
  2 29  1  0
  2  3  2  0
  3  4  1  0
  3 33  1  0
  4 26  1  0
  4  5  1  0
  4 34  1  6
  5 10  1  0
  5  6  1  0
  5 35  1  1
  6  7  1  0
  6 36  1  0
  6 37  1  0
  7  8  1  0
  8  9  2  0
  8 10  1  0
 10 11  1  0
 10 38  1  1
 11 26  1  0
 11 12  1  0
 11 56  1  6
 12 13  1  0
 12 15  1  0
 12 39  1  1
 13 14  1  0
 13 40  1  0
 13 41  1  0
 14 42  1  0
 15 16  1  0
 15 24  1  0
 15 43  1  1
 16 23  1  0
 16 17  2  0
 17 18  1  0
 17 44  1  0
 18 19  2  0
 18 45  1  0
 19 20  1  0
 19 46  1  0
 20 21  1  0
 20 23  2  0
 21 22  1  0
 21 47  1  0
 21 48  1  0
 22 49  1  0
 23 50  1  0
 24 25  1  0
 24 26  1  0
 24 57  1  6
 25 51  1  0
 25 52  1  0
 25 53  1  0
 26 27  1  1
 27 28  2  0
 27 29  1  0
 29 54  1  0
 29 55  1  0
M  CHG  2  11   1  24   1
M  END
>  <i_m_ct_stereo_status>  (200) 
1

>  <s_m_source_file>  (200) 
/var/tmp/pbs.5076255.sched01/tmpck0ladl8/45htcshi4i.sdf

>  <i_m_source_file_index>  (200) 
34

>  <i_lp_mmshare_version>  (200) 
48012

>  <i_f3d_flags>  (200) 
0

>  <s_epik_input>  (200) 
Tz1DMVtDSDJdQyhbQ0gzXSk9W0NIXVtDQEhdKFtDQEBdMTIzKVtDQEhdNFtDQEhdKEMoPU8pT1tDSDJdNClOMltDQEBIXShbQ0gyXVtPSF0pW0NASF0oTjNbQ0gzXSljNVtjSF1bY0hdW2NIXWMoW2NIXTUpW0NIMl1bT0hd

>  <s_epik_cmdline>  (200) 
J2VwaWtfcHl0aG9uJywgJy1waHQnLCAnMi4wJywgJy1waCcsICc3LjAnLCAnLXRuJywgJzgnLCAnLW1hJywgJzIwMCcsICctaW1hZScsICc8aW5maWxlLm1hZT4nLCAnLW9tYWUnLCAnPG91dGZpbGUubWFlPic=

>  <r_epik_Ionization_Penalty>  (200) 
3.34915

>  <r_epik_Ionization_Penalty_Charging>  (200) 
3.32511

>  <r_epik_Ionization_Penalty_Neutral>  (200) 
0.0240411

>  <r_epik_State_Penalty>  (200) 
2.29594

>  <r_epik_Charging_Adjusted_Penalty>  (200) 
5.62105

>  <i_epik_Tot_Q>  (200) 
2

>  <i_epik_Tot_abs_Q>  (200) 
2

>  <s_epik_Chemistry_Notes>  (200) 
This compound has an ester and may undergo hydrolysis at high or low pH.

>  <s_lp_Force_Field>  (200) 
OPLS3e

>  <r_lp_Energy>  (200) 
42.4592

>  <b_lp_Chiralities_Consistent>  (200) 
1

>  <s_lp_Variant>  (200) 
53:0-4

>  <s_i_glide_gridfile>  (200) 
pfpi4k_grid

>  <i_i_glide_lignum>  (200) 
34

>  <i_i_glide_rotatable_bonds>  (200) 
5

>  <r_i_docking_score>  (200) 
-3.70457

>  <r_i_glide_ligand_efficiency>  (200) 
-0.127744

>  <r_i_glide_ligand_efficiency_sa>  (200) 
-0.39247

>  <r_i_glide_ligand_efficiency_ln>  (200) 
-0.848253

>  <r_i_glide_gscore>  (200) 
-3.70457

>  <r_i_glide_lipo>  (200) 
-0.425286

>  <r_i_glide_hbond>  (200) 
-0.219337

>  <r_i_glide_metal>  (200) 
-0

>  <r_i_glide_rewards>  (200) 
-0.807316

>  <r_i_glide_evdw>  (200) 
-25.1328

>  <r_i_glide_ecoul>  (200) 
-8.89645

>  <r_i_glide_erotb>  (200) 
0.366727

>  <r_i_glide_esite>  (200) 
-0.0282549

>  <r_i_glide_emodel>  (200) 
-43.1524

>  <r_i_glide_energy>  (200) 
-34.0292

>  <r_i_glide_einternal>  (200) 
1.77092

>  <r_i_glide_intrahb_reward>  (200) 
-0

>  <i_i_glide_confnum>  (200) 
2

>  <i_i_glide_posenum>  (200) 
24

>  <r_i_glide_eff_state_penalty>  (200) 
0

>  <ligand_id>  (200) 
53

>  <original_smiles>  (200) 
CC1=CC2C3COC(=O)C3N3C(CO)C(c4cccc(CO)c4)N(C)C23C(=O)C1

>  <smiles>  (200) 
[H]OC([H])([H])c1c([H])c([H])c([H])c(C2([H])C([H])(C([H])([H])O[H])[N+]3([H])C4([H])C(=O)OC([H])([H])C4([H])C4([H])C([H])=C(C([H])([H])[H])C([H])([H])C(=O)C43[N+]2([H])C([H])([H])[H])c1[H]

$$$$
53:3:2
     RDKit          3D

 57 61  0  0  1  0  0  0  0  0999 V2000
    3.9550   -2.9891   -3.6926 C   0  0  0  0  0  0  0  0  0  0  0  0
    4.3728   -2.7822   -2.2593 C   0  0  0  0  0  0  0  0  0  0  0  0
    3.4923   -2.3781   -1.3139 C   0  0  0  0  0  0  0  0  0  0  0  0
    3.9665   -2.1322    0.1053 C   0  0  1  0  0  0  0  0  0  0  0  0
    3.0279   -1.9708    1.2859 C   0  0  2  0  0  0  0  0  0  0  0  0
    2.4037   -0.5816    1.4245 C   0  0  0  0  0  0  0  0  0  0  0  0
    3.3725    0.1570    2.1795 O   0  0  0  0  0  0  0  0  0  0  0  0
    4.3796   -0.5834    2.6866 C   0  0  0  0  0  0  0  0  0  0  0  0
    5.2584   -0.1989    3.4717 O   0  0  0  0  0  0  0  0  0  0  0  0
    4.0738   -2.0085    2.4261 C   0  0  2  0  0  0  0  0  0  0  0  0
    5.2351   -2.8679    1.9812 N   0  0  1  0  0  0  0  0  0  0  0  0
    5.3437   -4.1864    2.6831 C   0  0  1  0  0  0  0  0  0  0  0  0
    5.4198   -4.2198    4.2350 C   0  0  0  0  0  0  0  0  0  0  0  0
    6.0830   -5.4125    4.6285 O   0  0  0  0  0  0  0  0  0  0  0  0
    4.3897   -5.1661    1.9573 C   0  0  1  0  0  0  0  0  0  0  0  0
    2.9724   -5.4820    2.5384 C   0  0  0  0  0  0  0  0  0  0  0  0
    2.3133   -4.5877    3.4480 C   0  0  0  0  0  0  0  0  0  0  0  0
    1.0359   -4.8280    3.9793 C   0  0  0  0  0  0  0  0  0  0  0  0
    0.3754   -5.9962    3.6820 C   0  0  0  0  0  0  0  0  0  0  0  0
    1.0013   -6.9334    2.8216 C   0  0  0  0  0  0  0  0  0  0  0  0
    0.2573   -8.2306    2.5684 C   0  0  0  0  0  0  0  0  0  0  0  0
   -1.1267   -8.0151    2.4397 O   0  0  0  0  0  0  0  0  0  0  0  0
    2.2907   -6.6850    2.2364 C   0  0  0  0  0  0  0  0  0  0  0  0
    4.3365   -4.6109    0.5748 N   0  0  2  0  0  0  0  0  0  0  0  0
    4.8335   -5.6212   -0.4161 C   0  0  0  0  0  0  0  0  0  0  0  0
    4.9357   -3.2128    0.5555 C   0  0  1  0  0  0  0  0  0  0  0  0
    6.1506   -3.0676   -0.3935 C   0  0  0  0  0  0  0  0  0  0  0  0
    7.2853   -2.9738    0.0495 O   0  0  0  0  0  0  0  0  0  0  0  0
    5.8487   -3.0239   -1.9319 C   0  0  0  0  0  0  0  0  0  0  0  0
    4.1545   -4.0118   -4.0065 H   0  0  0  0  0  0  0  0  0  0  0  0
    4.4996   -2.3075   -4.3410 H   0  0  0  0  0  0  0  0  0  0  0  0
    2.8916   -2.7964   -3.8292 H   0  0  0  0  0  0  0  0  0  0  0  0
    2.4633   -2.1777   -1.5403 H   0  0  0  0  0  0  0  0  0  0  0  0
    4.5317   -1.1906   -0.0030 H   0  0  0  0  0  0  0  0  0  0  0  0
    2.2923   -2.7847    1.2920 H   0  0  0  0  0  0  0  0  0  0  0  0
    2.2185   -0.0599    0.4817 H   0  0  0  0  0  0  0  0  0  0  0  0
    1.4391   -0.6602    1.9263 H   0  0  0  0  0  0  0  0  0  0  0  0
    3.6742   -2.2515    3.4418 H   0  0  0  0  0  0  0  0  0  0  0  0
    6.3539   -4.4917    2.3622 H   0  0  0  0  0  0  0  0  0  0  0  0
    5.9911   -3.3775    4.6135 H   0  0  0  0  0  0  0  0  0  0  0  0
    4.4850   -4.1806    4.7996 H   0  0  0  0  0  0  0  0  0  0  0  0
    5.5533   -6.1733    4.4145 H   0  0  0  0  0  0  0  0  0  0  0  0
    4.9176   -6.1311    1.9470 H   0  0  0  0  0  0  0  0  0  0  0  0
    2.7247   -3.6842    3.8944 H   0  0  0  0  0  0  0  0  0  0  0  0
    0.6598   -4.0812    4.6466 H   0  0  0  0  0  0  0  0  0  0  0  0
   -0.5849   -6.1650    4.1443 H   0  0  0  0  0  0  0  0  0  0  0  0
    0.6304   -8.7002    1.6584 H   0  0  0  0  0  0  0  0  0  0  0  0
    0.4532   -8.9044    3.4072 H   0  0  0  0  0  0  0  0  0  0  0  0
   -1.5357   -8.8602    2.3596 H   0  0  0  0  0  0  0  0  0  0  0  0
    2.7498   -7.4569    1.6197 H   0  0  0  0  0  0  0  0  0  0  0  0
    5.9013   -5.8384   -0.3047 H   0  0  0  0  0  0  0  0  0  0  0  0
    4.6470   -5.3342   -1.4513 H   0  0  0  0  0  0  0  0  0  0  0  0
    4.3137   -6.5677   -0.2805 H   0  0  0  0  0  0  0  0  0  0  0  0
    6.1668   -3.9557   -2.3996 H   0  0  0  0  0  0  0  0  0  0  0  0
    6.4563   -2.2466   -2.3957 H   0  0  0  0  0  0  0  0  0  0  0  0
    6.0882   -2.3293    2.0507 H   0  0  0  0  0  0  0  0  0  0  0  0
    3.3653   -4.5077    0.3424 H   0  0  0  0  0  0  0  0  0  0  0  0
  1  2  1  0
  1 30  1  0
  1 31  1  0
  1 32  1  0
  2 29  1  0
  2  3  2  0
  3  4  1  0
  3 33  1  0
  4 26  1  0
  4  5  1  0
  4 34  1  6
  5 10  1  0
  5  6  1  0
  5 35  1  1
  6  7  1  0
  6 36  1  0
  6 37  1  0
  7  8  1  0
  8  9  2  0
  8 10  1  0
 10 11  1  0
 10 38  1  1
 11 26  1  0
 11 12  1  0
 11 56  1  6
 12 13  1  0
 12 15  1  0
 12 39  1  6
 13 14  1  0
 13 40  1  0
 13 41  1  0
 14 42  1  0
 15 16  1  0
 15 24  1  0
 15 43  1  6
 16 23  1  0
 16 17  2  0
 17 18  1  0
 17 44  1  0
 18 19  2  0
 18 45  1  0
 19 20  1  0
 19 46  1  0
 20 21  1  0
 20 23  2  0
 21 22  1  0
 21 47  1  0
 21 48  1  0
 22 49  1  0
 23 50  1  0
 24 25  1  0
 24 26  1  0
 24 57  1  6
 25 51  1  0
 25 52  1  0
 25 53  1  0
 26 27  1  6
 27 28  2  0
 27 29  1  0
 29 54  1  0
 29 55  1  0
M  CHG  2  11   1  24   1
M  END
>  <i_m_ct_stereo_status>  (201) 
1

>  <s_m_source_file>  (201) 
/var/tmp/pbs.5076255.sched01/tmpck0ladl8/45htcshi4i.sdf

>  <i_m_source_file_index>  (201) 
34

>  <i_lp_mmshare_version>  (201) 
48012

>  <i_f3d_flags>  (201) 
0

>  <s_epik_input>  (201) 
Tz1DMVtDSDJdQyhbQ0gzXSk9W0NIXVtDQEhdKFtDQEBdMTIzKVtDQEhdNFtDQEhdKEMoPU8pT1tDSDJdNClOMltDQEBIXShbQ0gyXVtPSF0pW0NASF0oTjNbQ0gzXSljNVtjSF1bY0hdW2NIXWMoW2NIXTUpW0NIMl1bT0hd

>  <s_epik_cmdline>  (201) 
J2VwaWtfcHl0aG9uJywgJy1waHQnLCAnMi4wJywgJy1waCcsICc3LjAnLCAnLXRuJywgJzgnLCAnLW1hJywgJzIwMCcsICctaW1hZScsICc8aW5maWxlLm1hZT4nLCAnLW9tYWUnLCAnPG91dGZpbGUubWFlPic=

>  <r_epik_Ionization_Penalty>  (201) 
3.34915

>  <r_epik_Ionization_Penalty_Charging>  (201) 
3.32511

>  <r_epik_Ionization_Penalty_Neutral>  (201) 
0.0240411

>  <r_epik_State_Penalty>  (201) 
2.29594

>  <r_epik_Charging_Adjusted_Penalty>  (201) 
5.62105

>  <i_epik_Tot_Q>  (201) 
2

>  <i_epik_Tot_abs_Q>  (201) 
2

>  <s_epik_Chemistry_Notes>  (201) 
This compound has an ester and may undergo hydrolysis at high or low pH.

>  <s_lp_Force_Field>  (201) 
OPLS3e

>  <r_lp_Energy>  (201) 
42.4592

>  <b_lp_Chiralities_Consistent>  (201) 
1

>  <s_lp_Variant>  (201) 
53:0-4

>  <s_i_glide_gridfile>  (201) 
pfpi4k_grid

>  <i_i_glide_lignum>  (201) 
34

>  <i_i_glide_rotatable_bonds>  (201) 
5

>  <r_i_docking_score>  (201) 
-3.40552

>  <r_i_glide_ligand_efficiency>  (201) 
-0.117432

>  <r_i_glide_ligand_efficiency_sa>  (201) 
-0.360787

>  <r_i_glide_ligand_efficiency_ln>  (201) 
-0.779777

>  <r_i_glide_gscore>  (201) 
-3.40552

>  <r_i_glide_lipo>  (201) 
-0.346462

>  <r_i_glide_hbond>  (201) 
0

>  <r_i_glide_metal>  (201) 
-0

>  <r_i_glide_rewards>  (201) 
-0.874149

>  <r_i_glide_evdw>  (201) 
-27.4153

>  <r_i_glide_ecoul>  (201) 
-7.87247

>  <r_i_glide_erotb>  (201) 
0.366727

>  <r_i_glide_esite>  (201) 
0

>  <r_i_glide_emodel>  (201) 
-42.7083

>  <r_i_glide_energy>  (201) 
-35.2877

>  <r_i_glide_einternal>  (201) 
0.881723

>  <r_i_glide_intrahb_reward>  (201) 
-0

>  <i_i_glide_confnum>  (201) 
4

>  <i_i_glide_posenum>  (201) 
3

>  <r_i_glide_eff_state_penalty>  (201) 
0

>  <ligand_id>  (201) 
53

>  <original_smiles>  (201) 
CC1=CC2C3COC(=O)C3N3C(CO)C(c4cccc(CO)c4)N(C)C23C(=O)C1

>  <smiles>  (201) 
[H]OC([H])([H])c1c([H])c([H])c([H])c(C2([H])C([H])(C([H])([H])O[H])[N+]3([H])C4([H])C(=O)OC([H])([H])C4([H])C4([H])C([H])=C(C([H])([H])[H])C([H])([H])C(=O)C43[N+]2([H])C([H])([H])[H])c1[H]

$$$$
54:0:0
     RDKit          3D

 43 47  0  0  1  0  0  0  0  0999 V2000
    0.4328   -1.1768    4.4868 C   0  0  0  0  0  0  0  0  0  0  0  0
    1.1582   -1.6711    3.2668 C   0  0  0  0  0  0  0  0  0  0  0  0
    1.5012   -0.2049    2.9747 C   0  0  0  0  0  0  0  0  0  0  0  0
    0.2587    0.1736    3.7703 C   0  0  0  0  0  0  0  0  0  0  0  0
    2.8746    0.4102    3.1675 C   0  0  0  0  0  0  0  0  0  0  0  0
    3.0431    0.3589    1.6534 C   0  0  1  0  0  0  0  0  0  0  0  0
    3.7904   -0.7926    0.9390 C   0  0  2  0  0  0  0  0  0  0  0  0
    3.4184   -2.1656    1.5447 C   0  0  0  0  0  0  0  0  0  0  0  0
    4.1797   -3.3504    1.0171 C   0  0  1  0  0  0  0  0  0  0  0  0
    3.9272   -3.6345   -0.4641 C   0  0  0  0  0  0  0  0  0  0  0  0
    5.3528   -3.5696   -1.0387 C   0  0  1  0  0  0  0  0  0  0  0  0
    5.8725   -2.1127   -1.0075 C   0  0  0  0  0  0  0  0  0  0  0  0
    6.1145   -1.8361    0.4974 C   0  0  1  0  0  0  0  0  0  0  0  0
    5.3274   -0.6245    1.0556 C   0  0  0  0  0  0  0  0  0  0  0  0
    5.7057   -3.1879    1.1288 C   0  0  2  0  0  0  0  0  0  0  0  0
    6.1696   -4.2076    0.0864 C   0  0  0  0  0  0  0  0  0  0  0  0
    1.5711    0.2354    1.5628 N   0  0  0  0  0  0  0  0  0  0  0  0
    1.1088   -1.1164    5.3285 H   0  0  0  0  0  0  0  0  0  0  0  0
   -0.4642   -1.7191    4.7497 H   0  0  0  0  0  0  0  0  0  0  0  0
    1.9886   -2.3353    3.5302 H   0  0  0  0  0  0  0  0  0  0  0  0
    0.4849   -2.1205    2.5426 H   0  0  0  0  0  0  0  0  0  0  0  0
   -0.6702    0.2213    3.2061 H   0  0  0  0  0  0  0  0  0  0  0  0
    0.3706    1.0543    4.4018 H   0  0  0  0  0  0  0  0  0  0  0  0
    2.8293    1.4402    3.5195 H   0  0  0  0  0  0  0  0  0  0  0  0
    3.5854   -0.2076    3.7152 H   0  0  0  0  0  0  0  0  0  0  0  0
    3.3140    1.3445    1.2806 H   0  0  0  0  0  0  0  0  0  0  0  0
    3.5415   -0.7764   -0.1248 H   0  0  0  0  0  0  0  0  0  0  0  0
    3.6363   -2.1518    2.6184 H   0  0  0  0  0  0  0  0  0  0  0  0
    2.3566   -2.3804    1.4159 H   0  0  0  0  0  0  0  0  0  0  0  0
    3.8780   -4.2298    1.5894 H   0  0  0  0  0  0  0  0  0  0  0  0
    3.4849   -4.6293   -0.5973 H   0  0  0  0  0  0  0  0  0  0  0  0
    3.2467   -2.9164   -0.9226 H   0  0  0  0  0  0  0  0  0  0  0  0
    5.4353   -4.0506   -2.0163 H   0  0  0  0  0  0  0  0  0  0  0  0
    6.8191   -2.0544   -1.5443 H   0  0  0  0  0  0  0  0  0  0  0  0
    5.1780   -1.4070   -1.4717 H   0  0  0  0  0  0  0  0  0  0  0  0
    7.1834   -1.6785    0.6757 H   0  0  0  0  0  0  0  0  0  0  0  0
    5.6689    0.2964    0.5685 H   0  0  0  0  0  0  0  0  0  0  0  0
    5.5826   -0.5093    2.1062 H   0  0  0  0  0  0  0  0  0  0  0  0
    6.0897   -3.3530    2.1405 H   0  0  0  0  0  0  0  0  0  0  0  0
    5.8480   -5.2252    0.3248 H   0  0  0  0  0  0  0  0  0  0  0  0
    7.2502   -4.1848   -0.0792 H   0  0  0  0  0  0  0  0  0  0  0  0
    1.2557   -0.3821    0.8328 H   0  0  0  0  0  0  0  0  0  0  0  0
    1.1841    1.1512    1.4727 H   0  0  0  0  0  0  0  0  0  0  0  0
  1  4  1  0
  1  2  1  0
  1 18  1  0
  1 19  1  0
  2  3  1  0
  2 20  1  0
  2 21  1  0
  3 17  1  0
  3  4  1  0
  3  5  1  0
  4 22  1  0
  4 23  1  0
  5  6  1  0
  5 24  1  0
  5 25  1  0
  6  7  1  0
  6 17  1  0
  6 26  1  6
  7 14  1  0
  7  8  1  0
  7 27  1  6
  8  9  1  0
  8 28  1  0
  8 29  1  0
  9 15  1  0
  9 10  1  0
  9 30  1  1
 10 11  1  0
 10 31  1  0
 10 32  1  0
 11 16  1  0
 11 12  1  0
 11 33  1  6
 12 13  1  0
 12 34  1  0
 12 35  1  0
 13 14  1  0
 13 15  1  0
 13 36  1  6
 14 37  1  0
 14 38  1  0
 15 16  1  0
 15 39  1  1
 16 40  1  0
 16 41  1  0
 17 42  1  0
 17 43  1  0
M  CHG  1  17   1
M  END
>  <i_m_ct_stereo_status>  (202) 
1

>  <s_m_source_file>  (202) 
/var/tmp/pbs.5076255.sched01/tmpck0ladl8/45htcshi4i.sdf

>  <i_m_source_file_index>  (202) 
35

>  <i_lp_mmshare_version>  (202) 
48012

>  <i_f3d_flags>  (202) 
0

>  <s_epik_input>  (202) 
W0NIMl0xW0NIMl1bQ0gyXUMxMltDSDJdW0NASF0oW05IXTIpW0NASF0oW0NIMl0zKVtDSDJdW0NAQEhdKFtDQEhdNFtDQEBIXTM1KVtDSDJdW0NASF0oW0NIMl01KVtDSDJdNA==

>  <s_epik_cmdline>  (202) 
J2VwaWtfcHl0aG9uJywgJy1waHQnLCAnMi4wJywgJy1waCcsICc3LjAnLCAnLXRuJywgJzgnLCAnLW1hJywgJzIwMCcsICctaW1hZScsICc8aW5maWxlLm1hZT4nLCAnLW9tYWUnLCAnPG91dGZpbGUubWFlPic=

>  <r_lp_tautomer_probability>  (202) 
1

>  <r_epik_Ionization_Penalty>  (202) 
2.77557e-05

>  <r_epik_Ionization_Penalty_Charging>  (202) 
2.77557e-05

>  <r_epik_Ionization_Penalty_Neutral>  (202) 
0

>  <r_epik_State_Penalty>  (202) 
-0

>  <r_epik_Charging_Adjusted_Penalty>  (202) 
2.77557e-05

>  <i_epik_Tot_Q>  (202) 
1

>  <i_epik_Tot_abs_Q>  (202) 
1

>  <s_lp_Force_Field>  (202) 
OPLS3e

>  <r_lp_Energy>  (202) 
58.8013

>  <b_lp_Chiralities_Consistent>  (202) 
1

>  <s_lp_Variant>  (202) 
54:0-1

>  <s_i_glide_gridfile>  (202) 
pfpi4k_grid

>  <i_i_glide_lignum>  (202) 
35

>  <i_i_glide_rotatable_bonds>  (202) 
1

>  <r_i_docking_score>  (202) 
-4.18743

>  <r_i_glide_ligand_efficiency>  (202) 
-0.246319

>  <r_i_glide_ligand_efficiency_sa>  (202) 
-0.633357

>  <r_i_glide_ligand_efficiency_ln>  (202) 
-1.09241

>  <r_i_glide_gscore>  (202) 
-4.18743

>  <r_i_glide_lipo>  (202) 
-0.54474

>  <r_i_glide_hbond>  (202) 
-0.2

>  <r_i_glide_metal>  (202) 
-0

>  <r_i_glide_rewards>  (202) 
-1.82465

>  <r_i_glide_evdw>  (202) 
-19.4302

>  <r_i_glide_ecoul>  (202) 
-5.83439

>  <r_i_glide_erotb>  (202) 
0.317189

>  <r_i_glide_esite>  (202) 
-0.0885609

>  <r_i_glide_emodel>  (202) 
-27.5636

>  <r_i_glide_energy>  (202) 
-25.2646

>  <r_i_glide_einternal>  (202) 
7.34172

>  <r_i_glide_intrahb_reward>  (202) 
-0

>  <i_i_glide_confnum>  (202) 
1

>  <i_i_glide_posenum>  (202) 
36

>  <r_i_glide_eff_state_penalty>  (202) 
0

>  <ligand_id>  (202) 
54

>  <original_smiles>  (202) 
C1CC2(C1)CC(C1CC3CC4CC(C1)C3C4)N2

>  <smiles>  (202) 
[H]C1([H])C([H])([H])C2(C1([H])[H])C([H])([H])C([H])(C1([H])C([H])([H])C3([H])C([H])([H])C4([H])C([H])([H])C([H])(C1([H])[H])C3([H])C4([H])[H])[N+]2([H])[H]

$$$$
54:0:1
     RDKit          3D

 43 47  0  0  1  0  0  0  0  0999 V2000
    4.9136   -8.3303    1.3422 C   0  0  0  0  0  0  0  0  0  0  0  0
    4.3861   -7.0316    0.7141 C   0  0  0  0  0  0  0  0  0  0  0  0
    5.2433   -6.3112    1.7644 C   0  0  0  0  0  0  0  0  0  0  0  0
    5.1291   -7.5543    2.6535 C   0  0  0  0  0  0  0  0  0  0  0  0
    6.5547   -5.6089    1.4530 C   0  0  0  0  0  0  0  0  0  0  0  0
    5.7338   -4.3108    1.5198 C   0  0  1  0  0  0  0  0  0  0  0  0
    5.1907   -3.7127    0.2182 C   0  0  2  0  0  0  0  0  0  0  0  0
    6.3345   -3.2150   -0.6860 C   0  0  0  0  0  0  0  0  0  0  0  0
    5.8348   -2.6503   -2.0250 C   0  0  1  0  0  0  0  0  0  0  0  0
    5.0865   -3.6509   -2.9333 C   0  0  0  0  0  0  0  0  0  0  0  0
    3.7186   -2.9723   -3.1344 C   0  0  1  0  0  0  0  0  0  0  0  0
    2.9136   -3.0152   -1.8218 C   0  0  0  0  0  0  0  0  0  0  0  0
    3.6724   -2.0100   -0.9235 C   0  0  1  0  0  0  0  0  0  0  0  0
    4.1675   -2.5771    0.4224 C   0  0  0  0  0  0  0  0  0  0  0  0
    4.8020   -1.5248   -1.8453 C   0  0  2  0  0  0  0  0  0  0  0  0
    4.1109   -1.4994   -3.2053 C   0  0  0  0  0  0  0  0  0  0  0  0
    4.7425   -5.0615    2.2760 N   0  0  0  0  0  0  0  0  0  0  0  0
    5.8571   -8.6457    0.8933 H   0  0  0  0  0  0  0  0  0  0  0  0
    4.1860   -9.1322    1.3964 H   0  0  0  0  0  0  0  0  0  0  0  0
    4.6918   -6.8748   -0.3166 H   0  0  0  0  0  0  0  0  0  0  0  0
    3.3113   -6.9047    0.8594 H   0  0  0  0  0  0  0  0  0  0  0  0
    4.2411   -7.5728    3.2911 H   0  0  0  0  0  0  0  0  0  0  0  0
    6.0410   -7.8035    3.1864 H   0  0  0  0  0  0  0  0  0  0  0  0
    7.2870   -5.6943    2.2522 H   0  0  0  0  0  0  0  0  0  0  0  0
    6.9349   -5.8684    0.4598 H   0  0  0  0  0  0  0  0  0  0  0  0
    6.2105   -3.5840    2.1712 H   0  0  0  0  0  0  0  0  0  0  0  0
    4.6743   -4.5114   -0.3232 H   0  0  0  0  0  0  0  0  0  0  0  0
    6.8904   -2.4373   -0.1519 H   0  0  0  0  0  0  0  0  0  0  0  0
    7.0490   -4.0086   -0.8762 H   0  0  0  0  0  0  0  0  0  0  0  0
    6.7010   -2.2820   -2.5673 H   0  0  0  0  0  0  0  0  0  0  0  0
    5.6045   -3.7451   -3.8891 H   0  0  0  0  0  0  0  0  0  0  0  0
    5.0015   -4.6518   -2.5166 H   0  0  0  0  0  0  0  0  0  0  0  0
    3.1639   -3.3513   -3.9986 H   0  0  0  0  0  0  0  0  0  0  0  0
    1.8970   -2.6618   -2.0001 H   0  0  0  0  0  0  0  0  0  0  0  0
    2.8374   -4.0194   -1.4141 H   0  0  0  0  0  0  0  0  0  0  0  0
    3.0182   -1.1658   -0.7150 H   0  0  0  0  0  0  0  0  0  0  0  0
    3.3084   -2.9113    1.0051 H   0  0  0  0  0  0  0  0  0  0  0  0
    4.6313   -1.7705    0.9988 H   0  0  0  0  0  0  0  0  0  0  0  0
    5.2366   -0.5673   -1.5410 H   0  0  0  0  0  0  0  0  0  0  0  0
    4.7775   -1.2754   -4.0393 H   0  0  0  0  0  0  0  0  0  0  0  0
    3.2500   -0.8279   -3.2444 H   0  0  0  0  0  0  0  0  0  0  0  0
    3.7789   -4.8526    2.0155 H   0  0  0  0  0  0  0  0  0  0  0  0
    4.9252   -4.9801    3.2657 H   0  0  0  0  0  0  0  0  0  0  0  0
  1  4  1  0
  1  2  1  0
  1 18  1  0
  1 19  1  0
  2  3  1  0
  2 20  1  0
  2 21  1  0
  3 17  1  0
  3  4  1  0
  3  5  1  0
  4 22  1  0
  4 23  1  0
  5  6  1  0
  5 24  1  0
  5 25  1  0
  6  7  1  0
  6 17  1  0
  6 26  1  1
  7 14  1  0
  7  8  1  0
  7 27  1  6
  8  9  1  0
  8 28  1  0
  8 29  1  0
  9 15  1  0
  9 10  1  0
  9 30  1  6
 10 11  1  0
 10 31  1  0
 10 32  1  0
 11 16  1  0
 11 12  1  0
 11 33  1  6
 12 13  1  0
 12 34  1  0
 12 35  1  0
 13 14  1  0
 13 15  1  0
 13 36  1  1
 14 37  1  0
 14 38  1  0
 15 16  1  0
 15 39  1  1
 16 40  1  0
 16 41  1  0
 17 42  1  0
 17 43  1  0
M  CHG  1  17   1
M  END
>  <i_m_ct_stereo_status>  (203) 
1

>  <s_m_source_file>  (203) 
/var/tmp/pbs.5076255.sched01/tmpck0ladl8/45htcshi4i.sdf

>  <i_m_source_file_index>  (203) 
35

>  <i_lp_mmshare_version>  (203) 
48012

>  <i_f3d_flags>  (203) 
0

>  <s_epik_input>  (203) 
W0NIMl0xW0NIMl1bQ0gyXUMxMltDSDJdW0NASF0oW05IXTIpW0NASF0oW0NIMl0zKVtDSDJdW0NAQEhdKFtDQEhdNFtDQEBIXTM1KVtDSDJdW0NASF0oW0NIMl01KVtDSDJdNA==

>  <s_epik_cmdline>  (203) 
J2VwaWtfcHl0aG9uJywgJy1waHQnLCAnMi4wJywgJy1waCcsICc3LjAnLCAnLXRuJywgJzgnLCAnLW1hJywgJzIwMCcsICctaW1hZScsICc8aW5maWxlLm1hZT4nLCAnLW9tYWUnLCAnPG91dGZpbGUubWFlPic=

>  <r_lp_tautomer_probability>  (203) 
1

>  <r_epik_Ionization_Penalty>  (203) 
2.77557e-05

>  <r_epik_Ionization_Penalty_Charging>  (203) 
2.77557e-05

>  <r_epik_Ionization_Penalty_Neutral>  (203) 
0

>  <r_epik_State_Penalty>  (203) 
-0

>  <r_epik_Charging_Adjusted_Penalty>  (203) 
2.77557e-05

>  <i_epik_Tot_Q>  (203) 
1

>  <i_epik_Tot_abs_Q>  (203) 
1

>  <s_lp_Force_Field>  (203) 
OPLS3e

>  <r_lp_Energy>  (203) 
58.8013

>  <b_lp_Chiralities_Consistent>  (203) 
1

>  <s_lp_Variant>  (203) 
54:0-1

>  <s_i_glide_gridfile>  (203) 
pfpi4k_grid

>  <i_i_glide_lignum>  (203) 
35

>  <i_i_glide_rotatable_bonds>  (203) 
1

>  <r_i_docking_score>  (203) 
-3.75357

>  <r_i_glide_ligand_efficiency>  (203) 
-0.220798

>  <r_i_glide_ligand_efficiency_sa>  (203) 
-0.567735

>  <r_i_glide_ligand_efficiency_ln>  (203) 
-0.979223

>  <r_i_glide_gscore>  (203) 
-3.75357

>  <r_i_glide_lipo>  (203) 
-0.788543

>  <r_i_glide_hbond>  (203) 
0

>  <r_i_glide_metal>  (203) 
-0

>  <r_i_glide_rewards>  (203) 
-1.82465

>  <r_i_glide_evdw>  (203) 
-23.9597

>  <r_i_glide_ecoul>  (203) 
-1.73052

>  <r_i_glide_erotb>  (203) 
0.317189

>  <r_i_glide_esite>  (203) 
0

>  <r_i_glide_emodel>  (203) 
-33.3679

>  <r_i_glide_energy>  (203) 
-25.6902

>  <r_i_glide_einternal>  (203) 
0.00116667

>  <r_i_glide_intrahb_reward>  (203) 
-0

>  <i_i_glide_confnum>  (203) 
3

>  <i_i_glide_posenum>  (203) 
34

>  <r_i_glide_eff_state_penalty>  (203) 
0

>  <ligand_id>  (203) 
54

>  <original_smiles>  (203) 
C1CC2(C1)CC(C1CC3CC4CC(C1)C3C4)N2

>  <smiles>  (203) 
[H]C1([H])C([H])([H])C2(C1([H])[H])C([H])([H])C([H])(C1([H])C([H])([H])C3([H])C([H])([H])C4([H])C([H])([H])C([H])(C1([H])[H])C3([H])C4([H])[H])[N+]2([H])[H]

$$$$
54:0:2
     RDKit          3D

 43 47  0  0  1  0  0  0  0  0999 V2000
   -0.1635    0.6546    3.1559 C   0  0  0  0  0  0  0  0  0  0  0  0
    0.8496    0.2558    2.0814 C   0  0  0  0  0  0  0  0  0  0  0  0
    1.8996    0.4061    3.1783 C   0  0  0  0  0  0  0  0  0  0  0  0
    0.9706    1.3938    3.8881 C   0  0  0  0  0  0  0  0  0  0  0  0
    2.6006   -0.7580    3.8567 C   0  0  0  0  0  0  0  0  0  0  0  0
    3.7838   -0.4381    2.9274 C   0  0  1  0  0  0  0  0  0  0  0  0
    3.9445   -1.2195    1.6141 C   0  0  2  0  0  0  0  0  0  0  0  0
    4.2187   -2.7128    1.8784 C   0  0  0  0  0  0  0  0  0  0  0  0
    4.3522   -3.5276    0.5867 C   0  0  1  0  0  0  0  0  0  0  0  0
    3.0785   -3.5680   -0.2868 C   0  0  0  0  0  0  0  0  0  0  0  0
    3.5817   -3.0121   -1.6338 C   0  0  1  0  0  0  0  0  0  0  0  0
    3.8741   -1.5065   -1.5058 C   0  0  0  0  0  0  0  0  0  0  0  0
    5.1400   -1.4670   -0.6248 C   0  0  1  0  0  0  0  0  0  0  0  0
    5.0206   -0.6498    0.6761 C   0  0  0  0  0  0  0  0  0  0  0  0
    5.4074   -2.9613   -0.3759 C   0  0  2  0  0  0  0  0  0  0  0  0
    4.9925   -3.5882   -1.7011 C   0  0  0  0  0  0  0  0  0  0  0  0
    3.1897    0.8788    2.7594 N   0  0  0  0  0  0  0  0  0  0  0  0
   -0.5167   -0.2168    3.7122 H   0  0  0  0  0  0  0  0  0  0  0  0
   -0.9678    1.2864    2.7905 H   0  0  0  0  0  0  0  0  0  0  0  0
    0.7275   -0.7574    1.6987 H   0  0  0  0  0  0  0  0  0  0  0  0
    0.9243    1.0087    1.2867 H   0  0  0  0  0  0  0  0  0  0  0  0
    1.0653    2.4288    3.5379 H   0  0  0  0  0  0  0  0  0  0  0  0
    0.9651    1.2862    4.9683 H   0  0  0  0  0  0  0  0  0  0  0  0
    2.8105   -0.5707    4.9111 H   0  0  0  0  0  0  0  0  0  0  0  0
    2.0889   -1.7037    3.6516 H   0  0  0  0  0  0  0  0  0  0  0  0
    4.7002   -0.3495    3.5146 H   0  0  0  0  0  0  0  0  0  0  0  0
    2.9922   -1.1551    1.0832 H   0  0  0  0  0  0  0  0  0  0  0  0
    5.1459   -2.7995    2.4505 H   0  0  0  0  0  0  0  0  0  0  0  0
    3.4385   -3.1599    2.4923 H   0  0  0  0  0  0  0  0  0  0  0  0
    4.6094   -4.5506    0.8509 H   0  0  0  0  0  0  0  0  0  0  0  0
    2.7446   -4.5999   -0.4095 H   0  0  0  0  0  0  0  0  0  0  0  0
    2.2393   -2.9990    0.1108 H   0  0  0  0  0  0  0  0  0  0  0  0
    2.9266   -3.2673   -2.4743 H   0  0  0  0  0  0  0  0  0  0  0  0
    4.0759   -1.0753   -2.4842 H   0  0  0  0  0  0  0  0  0  0  0  0
    3.0231   -0.9685   -1.0907 H   0  0  0  0  0  0  0  0  0  0  0  0
    5.9426   -1.0591   -1.2275 H   0  0  0  0  0  0  0  0  0  0  0  0
    4.8084    0.3925    0.4421 H   0  0  0  0  0  0  0  0  0  0  0  0
    5.9859   -0.6518    1.1866 H   0  0  0  0  0  0  0  0  0  0  0  0
    6.4339   -3.1857   -0.0761 H   0  0  0  0  0  0  0  0  0  0  0  0
    5.0032   -4.6822   -1.6954 H   0  0  0  0  0  0  0  0  0  0  0  0
    5.5616   -3.2257   -2.5592 H   0  0  0  0  0  0  0  0  0  0  0  0
    3.2274    1.2189    1.7951 H   0  0  0  0  0  0  0  0  0  0  0  0
    3.5787    1.5155    3.4523 H   0  0  0  0  0  0  0  0  0  0  0  0
  1  4  1  0
  1  2  1  0
  1 18  1  0
  1 19  1  0
  2  3  1  0
  2 20  1  0
  2 21  1  0
  3 17  1  0
  3  4  1  0
  3  5  1  0
  4 22  1  0
  4 23  1  0
  5  6  1  0
  5 24  1  0
  5 25  1  0
  6  7  1  0
  6 17  1  0
  6 26  1  1
  7 14  1  0
  7  8  1  0
  7 27  1  6
  8  9  1  0
  8 28  1  0
  8 29  1  0
  9 15  1  0
  9 10  1  0
  9 30  1  1
 10 11  1  0
 10 31  1  0
 10 32  1  0
 11 16  1  0
 11 12  1  0
 11 33  1  6
 12 13  1  0
 12 34  1  0
 12 35  1  0
 13 14  1  0
 13 15  1  0
 13 36  1  6
 14 37  1  0
 14 38  1  0
 15 16  1  0
 15 39  1  1
 16 40  1  0
 16 41  1  0
 17 42  1  0
 17 43  1  0
M  CHG  1  17   1
M  END
>  <i_m_ct_stereo_status>  (204) 
1

>  <s_m_source_file>  (204) 
/var/tmp/pbs.5076255.sched01/tmpck0ladl8/45htcshi4i.sdf

>  <i_m_source_file_index>  (204) 
35

>  <i_lp_mmshare_version>  (204) 
48012

>  <i_f3d_flags>  (204) 
0

>  <s_epik_input>  (204) 
W0NIMl0xW0NIMl1bQ0gyXUMxMltDSDJdW0NASF0oW05IXTIpW0NASF0oW0NIMl0zKVtDSDJdW0NAQEhdKFtDQEhdNFtDQEBIXTM1KVtDSDJdW0NASF0oW0NIMl01KVtDSDJdNA==

>  <s_epik_cmdline>  (204) 
J2VwaWtfcHl0aG9uJywgJy1waHQnLCAnMi4wJywgJy1waCcsICc3LjAnLCAnLXRuJywgJzgnLCAnLW1hJywgJzIwMCcsICctaW1hZScsICc8aW5maWxlLm1hZT4nLCAnLW9tYWUnLCAnPG91dGZpbGUubWFlPic=

>  <r_lp_tautomer_probability>  (204) 
1

>  <r_epik_Ionization_Penalty>  (204) 
2.77557e-05

>  <r_epik_Ionization_Penalty_Charging>  (204) 
2.77557e-05

>  <r_epik_Ionization_Penalty_Neutral>  (204) 
0

>  <r_epik_State_Penalty>  (204) 
-0

>  <r_epik_Charging_Adjusted_Penalty>  (204) 
2.77557e-05

>  <i_epik_Tot_Q>  (204) 
1

>  <i_epik_Tot_abs_Q>  (204) 
1

>  <s_lp_Force_Field>  (204) 
OPLS3e

>  <r_lp_Energy>  (204) 
58.8013

>  <b_lp_Chiralities_Consistent>  (204) 
1

>  <s_lp_Variant>  (204) 
54:0-1

>  <s_i_glide_gridfile>  (204) 
pfpi4k_grid

>  <i_i_glide_lignum>  (204) 
35

>  <i_i_glide_rotatable_bonds>  (204) 
1

>  <r_i_docking_score>  (204) 
-3.31394

>  <r_i_glide_ligand_efficiency>  (204) 
-0.194938

>  <r_i_glide_ligand_efficiency_sa>  (204) 
-0.50124

>  <r_i_glide_ligand_efficiency_ln>  (204) 
-0.864534

>  <r_i_glide_gscore>  (204) 
-3.31394

>  <r_i_glide_lipo>  (204) 
-0.251658

>  <r_i_glide_hbond>  (204) 
0

>  <r_i_glide_metal>  (204) 
-0

>  <r_i_glide_rewards>  (204) 
-1.82465

>  <r_i_glide_evdw>  (204) 
-21.1056

>  <r_i_glide_ecoul>  (204) 
-3.33029

>  <r_i_glide_erotb>  (204) 
0.317189

>  <r_i_glide_esite>  (204) 
0

>  <r_i_glide_emodel>  (204) 
-31.1702

>  <r_i_glide_energy>  (204) 
-24.4359

>  <r_i_glide_einternal>  (204) 
0.00182484

>  <r_i_glide_intrahb_reward>  (204) 
-0

>  <i_i_glide_confnum>  (204) 
1

>  <i_i_glide_posenum>  (204) 
1

>  <r_i_glide_eff_state_penalty>  (204) 
0

>  <ligand_id>  (204) 
54

>  <original_smiles>  (204) 
C1CC2(C1)CC(C1CC3CC4CC(C1)C3C4)N2

>  <smiles>  (204) 
[H]C1([H])C([H])([H])C2(C1([H])[H])C([H])([H])C([H])(C1([H])C([H])([H])C3([H])C([H])([H])C4([H])C([H])([H])C([H])(C1([H])[H])C3([H])C4([H])[H])[N+]2([H])[H]

$$$$
55:0:0
     RDKit          3D

 18 18  0  0  1  0  0  0  0  0999 V2000
    0.3570   -8.3966    6.3156 C   0  0  0  0  0  0  0  0  0  0  0  0
   -0.0915   -7.9471    5.0005 N   0  0  0  0  0  0  0  0  0  0  0  0
   -0.5284   -8.7863    3.9825 C   0  0  0  0  0  0  0  0  0  0  0  0
   -0.8326   -7.9907    2.8961 C   0  0  0  0  0  0  0  0  0  0  0  0
   -0.5774   -6.6720    3.2341 N   0  0  0  0  0  0  0  0  0  0  0  0
   -0.1459   -6.6990    4.4974 C   0  0  0  0  0  0  0  0  0  0  0  0
    0.3413   -5.2731    5.3953 S   0  0  0  0  0  0  0  0  0  0  0  0
   -1.0138   -5.2125    6.6093 C   0  0  0  0  0  0  0  0  0  0  0  0
   -1.3139   -3.8528    7.2260 C   0  0  0  0  0  0  0  0  0  0  0  0
   -1.8521   -3.0019    6.4807 O   0  0  0  0  0  0  0  0  0  0  0  0
   -1.0301   -3.6974    8.4307 O   0  0  0  0  0  0  0  0  0  0  0  0
   -0.1547   -9.3289    6.5694 H   0  0  0  0  0  0  0  0  0  0  0  0
    0.1289   -7.6882    7.1104 H   0  0  0  0  0  0  0  0  0  0  0  0
    1.4400   -8.5489    6.3150 H   0  0  0  0  0  0  0  0  0  0  0  0
   -0.5821   -9.8586    4.1224 H   0  0  0  0  0  0  0  0  0  0  0  0
   -1.2060   -8.2772    1.9253 H   0  0  0  0  0  0  0  0  0  0  0  0
   -1.9257   -5.5862    6.1474 H   0  0  0  0  0  0  0  0  0  0  0  0
   -0.8091   -5.8563    7.4614 H   0  0  0  0  0  0  0  0  0  0  0  0
  1  2  1  0
  1 12  1  0
  1 13  1  0
  1 14  1  0
  2  6  1  0
  2  3  1  0
  3  4  2  0
  3 15  1  0
  4  5  1  0
  4 16  1  0
  5  6  2  0
  6  7  1  0
  7  8  1  0
  8  9  1  0
  8 17  1  0
  8 18  1  0
  9 10  2  0
  9 11  1  0
M  CHG  1  11  -1
M  END
>  <i_m_ct_stereo_status>  (205) 
1

>  <s_m_source_file>  (205) 
/var/tmp/pbs.5076255.sched01/tmpck0ladl8/45htcshi4i.sdf

>  <i_m_source_file_index>  (205) 
36

>  <i_lp_mmshare_version>  (205) 
48012

>  <i_f3d_flags>  (205) 
0

>  <s_epik_input>  (205) 
W0NIM11uMVtjSF1bY0hdbmMxU1tDSDJdQyg9TylbT0hd

>  <s_epik_cmdline>  (205) 
J2VwaWtfcHl0aG9uJywgJy1waHQnLCAnMi4wJywgJy1waCcsICc3LjAnLCAnLXRuJywgJzgnLCAnLW1hJywgJzIwMCcsICctaW1hZScsICc8aW5maWxlLm1hZT4nLCAnLW9tYWUnLCAnPG91dGZpbGUubWFlPic=

>  <r_lp_tautomer_probability>  (205) 
1

>  <r_epik_Ionization_Penalty>  (205) 
0.251352

>  <r_epik_Ionization_Penalty_Charging>  (205) 
0.251352

>  <r_epik_Ionization_Penalty_Neutral>  (205) 
2.63117e-15

>  <r_epik_State_Penalty>  (205) 
0.242568

>  <r_epik_Charging_Adjusted_Penalty>  (205) 
0.493919

>  <i_epik_Tot_Q>  (205) 
-1

>  <i_epik_Tot_abs_Q>  (205) 
1

>  <s_lp_Force_Field>  (205) 
OPLS3e

>  <r_lp_Energy>  (205) 
9.30219

>  <b_lp_Chiralities_Consistent>  (205) 
1

>  <s_lp_Variant>  (205) 
55:0-1

>  <s_i_glide_gridfile>  (205) 
pfpi4k_grid

>  <i_i_glide_lignum>  (205) 
36

>  <i_i_glide_rotatable_bonds>  (205) 
3

>  <r_i_docking_score>  (205) 
-3.04074

>  <r_i_glide_ligand_efficiency>  (205) 
-0.276431

>  <r_i_glide_ligand_efficiency_sa>  (205) 
-0.614777

>  <r_i_glide_ligand_efficiency_ln>  (205) 
-0.894889

>  <r_i_glide_gscore>  (205) 
-3.04074

>  <r_i_glide_lipo>  (205) 
-0.0792728

>  <r_i_glide_hbond>  (205) 
-0.267226

>  <r_i_glide_metal>  (205) 
-0

>  <r_i_glide_rewards>  (205) 
-2.24183

>  <r_i_glide_evdw>  (205) 
-11.059

>  <r_i_glide_ecoul>  (205) 
-5.71809

>  <r_i_glide_erotb>  (205) 
1.05539

>  <r_i_glide_esite>  (205) 
-0.0971324

>  <r_i_glide_emodel>  (205) 
-22.7344

>  <r_i_glide_energy>  (205) 
-16.7771

>  <r_i_glide_einternal>  (205) 
1.18809

>  <r_i_glide_intrahb_reward>  (205) 
-0

>  <i_i_glide_confnum>  (205) 
3

>  <i_i_glide_posenum>  (205) 
28

>  <r_i_glide_eff_state_penalty>  (205) 
0

>  <ligand_id>  (205) 
55

>  <original_smiles>  (205) 
Cn1ccnc1SCC(=O)O

>  <smiles>  (205) 
[H]c1nc(SC([H])([H])C(=O)[O-])n(C([H])([H])[H])c1[H]

$$$$
55:0:1
     RDKit          3D

 18 18  0  0  1  0  0  0  0  0999 V2000
    1.4730   -1.4575    3.7107 C   0  0  0  0  0  0  0  0  0  0  0  0
    0.2093   -1.3298    4.4152 N   0  0  0  0  0  0  0  0  0  0  0  0
   -0.6079   -0.2074    4.3587 C   0  0  0  0  0  0  0  0  0  0  0  0
   -1.6905   -0.4945    5.1479 C   0  0  0  0  0  0  0  0  0  0  0  0
   -1.5725   -1.7624    5.6751 N   0  0  0  0  0  0  0  0  0  0  0  0
   -0.4125   -2.2171    5.2130 C   0  0  0  0  0  0  0  0  0  0  0  0
    0.1995   -3.8381    5.4935 S   0  0  0  0  0  0  0  0  0  0  0  0
   -1.0350   -4.4590    6.7150 C   0  0  0  0  0  0  0  0  0  0  0  0
   -0.7086   -4.2746    8.1971 C   0  0  0  0  0  0  0  0  0  0  0  0
   -0.6000   -3.0939    8.6215 O   0  0  0  0  0  0  0  0  0  0  0  0
   -0.6015   -5.3018    8.9133 O   0  0  0  0  0  0  0  0  0  0  0  0
    1.4737   -0.8316    2.8151 H   0  0  0  0  0  0  0  0  0  0  0  0
    1.6610   -2.4852    3.3943 H   0  0  0  0  0  0  0  0  0  0  0  0
    2.2978   -1.1386    4.3497 H   0  0  0  0  0  0  0  0  0  0  0  0
   -0.3680    0.6639    3.7714 H   0  0  0  0  0  0  0  0  0  0  0  0
   -2.5588    0.1204    5.3459 H   0  0  0  0  0  0  0  0  0  0  0  0
   -2.0105   -3.9982    6.5447 H   0  0  0  0  0  0  0  0  0  0  0  0
   -1.1666   -5.5394    6.5386 H   0  0  0  0  0  0  0  0  0  0  0  0
  1  2  1  0
  1 12  1  0
  1 13  1  0
  1 14  1  0
  2  6  1  0
  2  3  1  0
  3  4  2  0
  3 15  1  0
  4  5  1  0
  4 16  1  0
  5  6  2  0
  6  7  1  0
  7  8  1  0
  8  9  1  0
  8 17  1  0
  8 18  1  0
  9 10  2  0
  9 11  1  0
M  CHG  1  11  -1
M  END
>  <i_m_ct_stereo_status>  (206) 
1

>  <s_m_source_file>  (206) 
/var/tmp/pbs.5076255.sched01/tmpck0ladl8/45htcshi4i.sdf

>  <i_m_source_file_index>  (206) 
36

>  <i_lp_mmshare_version>  (206) 
48012

>  <i_f3d_flags>  (206) 
0

>  <s_epik_input>  (206) 
W0NIM11uMVtjSF1bY0hdbmMxU1tDSDJdQyg9TylbT0hd

>  <s_epik_cmdline>  (206) 
J2VwaWtfcHl0aG9uJywgJy1waHQnLCAnMi4wJywgJy1waCcsICc3LjAnLCAnLXRuJywgJzgnLCAnLW1hJywgJzIwMCcsICctaW1hZScsICc8aW5maWxlLm1hZT4nLCAnLW9tYWUnLCAnPG91dGZpbGUubWFlPic=

>  <r_lp_tautomer_probability>  (206) 
1

>  <r_epik_Ionization_Penalty>  (206) 
0.251352

>  <r_epik_Ionization_Penalty_Charging>  (206) 
0.251352

>  <r_epik_Ionization_Penalty_Neutral>  (206) 
2.63117e-15

>  <r_epik_State_Penalty>  (206) 
0.242568

>  <r_epik_Charging_Adjusted_Penalty>  (206) 
0.493919

>  <i_epik_Tot_Q>  (206) 
-1

>  <i_epik_Tot_abs_Q>  (206) 
1

>  <s_lp_Force_Field>  (206) 
OPLS3e

>  <r_lp_Energy>  (206) 
9.30219

>  <b_lp_Chiralities_Consistent>  (206) 
1

>  <s_lp_Variant>  (206) 
55:0-1

>  <s_i_glide_gridfile>  (206) 
pfpi4k_grid

>  <i_i_glide_lignum>  (206) 
36

>  <i_i_glide_rotatable_bonds>  (206) 
3

>  <r_i_docking_score>  (206) 
-2.85064

>  <r_i_glide_ligand_efficiency>  (206) 
-0.259149

>  <r_i_glide_ligand_efficiency_sa>  (206) 
-0.576342

>  <r_i_glide_ligand_efficiency_ln>  (206) 
-0.838943

>  <r_i_glide_gscore>  (206) 
-2.85064

>  <r_i_glide_lipo>  (206) 
0

>  <r_i_glide_hbond>  (206) 
-0.217436

>  <r_i_glide_metal>  (206) 
-0

>  <r_i_glide_rewards>  (206) 
-2.24183

>  <r_i_glide_evdw>  (206) 
-11.0472

>  <r_i_glide_ecoul>  (206) 
-5.60651

>  <r_i_glide_erotb>  (206) 
1.05539

>  <r_i_glide_esite>  (206) 
-0.0534194

>  <r_i_glide_emodel>  (206) 
-22.249

>  <r_i_glide_energy>  (206) 
-16.6537

>  <r_i_glide_einternal>  (206) 
1.26095

>  <r_i_glide_intrahb_reward>  (206) 
-0

>  <i_i_glide_confnum>  (206) 
5

>  <i_i_glide_posenum>  (206) 
2

>  <r_i_glide_eff_state_penalty>  (206) 
0

>  <ligand_id>  (206) 
55

>  <original_smiles>  (206) 
Cn1ccnc1SCC(=O)O

>  <smiles>  (206) 
[H]c1nc(SC([H])([H])C(=O)[O-])n(C([H])([H])[H])c1[H]

$$$$
55:0:2
     RDKit          3D

 18 18  0  0  1  0  0  0  0  0999 V2000
    2.3047   -5.9026    4.0239 C   0  0  0  0  0  0  0  0  0  0  0  0
    0.9918   -6.4599    3.7499 N   0  0  0  0  0  0  0  0  0  0  0  0
    0.6256   -7.1566    2.6006 C   0  0  0  0  0  0  0  0  0  0  0  0
   -0.6863   -7.5268    2.7627 C   0  0  0  0  0  0  0  0  0  0  0  0
   -1.1486   -7.0531    3.9864 N   0  0  0  0  0  0  0  0  0  0  0  0
   -0.0985   -6.4407    4.5347 C   0  0  0  0  0  0  0  0  0  0  0  0
   -0.1405   -5.6972    6.1245 S   0  0  0  0  0  0  0  0  0  0  0  0
   -0.0658   -3.9484    5.6138 C   0  0  0  0  0  0  0  0  0  0  0  0
   -0.8460   -2.9823    6.5008 C   0  0  0  0  0  0  0  0  0  0  0  0
   -0.5816   -2.9860    7.7244 O   0  0  0  0  0  0  0  0  0  0  0  0
   -1.7078   -2.2484    5.9655 O   0  0  0  0  0  0  0  0  0  0  0  0
    3.0668   -6.4699    3.4867 H   0  0  0  0  0  0  0  0  0  0  0  0
    2.5380   -5.9488    5.0907 H   0  0  0  0  0  0  0  0  0  0  0  0
    2.3413   -4.8619    3.6980 H   0  0  0  0  0  0  0  0  0  0  0  0
    1.3229   -7.3378    1.7949 H   0  0  0  0  0  0  0  0  0  0  0  0
   -1.3293   -8.0912    2.1034 H   0  0  0  0  0  0  0  0  0  0  0  0
    0.9807   -3.6406    5.6183 H   0  0  0  0  0  0  0  0  0  0  0  0
   -0.4012   -3.8321    4.5804 H   0  0  0  0  0  0  0  0  0  0  0  0
  1  2  1  0
  1 12  1  0
  1 13  1  0
  1 14  1  0
  2  6  1  0
  2  3  1  0
  3  4  2  0
  3 15  1  0
  4  5  1  0
  4 16  1  0
  5  6  2  0
  6  7  1  0
  7  8  1  0
  8  9  1  0
  8 17  1  0
  8 18  1  0
  9 10  2  0
  9 11  1  0
M  CHG  1  11  -1
M  END
>  <i_m_ct_stereo_status>  (207) 
1

>  <s_m_source_file>  (207) 
/var/tmp/pbs.5076255.sched01/tmpck0ladl8/45htcshi4i.sdf

>  <i_m_source_file_index>  (207) 
36

>  <i_lp_mmshare_version>  (207) 
48012

>  <i_f3d_flags>  (207) 
0

>  <s_epik_input>  (207) 
W0NIM11uMVtjSF1bY0hdbmMxU1tDSDJdQyg9TylbT0hd

>  <s_epik_cmdline>  (207) 
J2VwaWtfcHl0aG9uJywgJy1waHQnLCAnMi4wJywgJy1waCcsICc3LjAnLCAnLXRuJywgJzgnLCAnLW1hJywgJzIwMCcsICctaW1hZScsICc8aW5maWxlLm1hZT4nLCAnLW9tYWUnLCAnPG91dGZpbGUubWFlPic=

>  <r_lp_tautomer_probability>  (207) 
1

>  <r_epik_Ionization_Penalty>  (207) 
0.251352

>  <r_epik_Ionization_Penalty_Charging>  (207) 
0.251352

>  <r_epik_Ionization_Penalty_Neutral>  (207) 
2.63117e-15

>  <r_epik_State_Penalty>  (207) 
0.242568

>  <r_epik_Charging_Adjusted_Penalty>  (207) 
0.493919

>  <i_epik_Tot_Q>  (207) 
-1

>  <i_epik_Tot_abs_Q>  (207) 
1

>  <s_lp_Force_Field>  (207) 
OPLS3e

>  <r_lp_Energy>  (207) 
9.30219

>  <b_lp_Chiralities_Consistent>  (207) 
1

>  <s_lp_Variant>  (207) 
55:0-1

>  <s_i_glide_gridfile>  (207) 
pfpi4k_grid

>  <i_i_glide_lignum>  (207) 
36

>  <i_i_glide_rotatable_bonds>  (207) 
3

>  <r_i_docking_score>  (207) 
-2.64734

>  <r_i_glide_ligand_efficiency>  (207) 
-0.240668

>  <r_i_glide_ligand_efficiency_sa>  (207) 
-0.53524

>  <r_i_glide_ligand_efficiency_ln>  (207) 
-0.779113

>  <r_i_glide_gscore>  (207) 
-2.64734

>  <r_i_glide_lipo>  (207) 
-0.000123262

>  <r_i_glide_hbond>  (207) 
-0.100658

>  <r_i_glide_metal>  (207) 
-0

>  <r_i_glide_rewards>  (207) 
-2.24183

>  <r_i_glide_evdw>  (207) 
-10.6784

>  <r_i_glide_ecoul>  (207) 
-4.8917

>  <r_i_glide_erotb>  (207) 
1.05539

>  <r_i_glide_esite>  (207) 
-0.0924401

>  <r_i_glide_emodel>  (207) 
-20.665

>  <r_i_glide_energy>  (207) 
-15.5701

>  <r_i_glide_einternal>  (207) 
1.53333

>  <r_i_glide_intrahb_reward>  (207) 
-0

>  <i_i_glide_confnum>  (207) 
4

>  <i_i_glide_posenum>  (207) 
35

>  <r_i_glide_eff_state_penalty>  (207) 
0

>  <ligand_id>  (207) 
55

>  <original_smiles>  (207) 
Cn1ccnc1SCC(=O)O

>  <smiles>  (207) 
[H]c1nc(SC([H])([H])C(=O)[O-])n(C([H])([H])[H])c1[H]

$$$$
55:1:0
     RDKit          3D

 19 19  0  0  1  0  0  0  0  0999 V2000
    1.7785    1.6987    6.0587 C   0  0  0  0  0  0  0  0  0  0  0  0
    1.7448    2.3693    4.7218 N   0  0  0  0  0  0  0  0  0  0  0  0
    2.8530    2.8459    4.0664 C   0  0  0  0  0  0  0  0  0  0  0  0
    2.4139    3.4507    2.9235 C   0  0  0  0  0  0  0  0  0  0  0  0
    1.0537    3.3027    2.9041 N   0  0  0  0  0  0  0  0  0  0  0  0
    0.6601    2.6310    3.9885 C   0  0  0  0  0  0  0  0  0  0  0  0
   -1.0200    2.2119    4.3283 S   0  0  0  0  0  0  0  0  0  0  0  0
   -1.0089    0.4009    4.4349 C   0  0  0  0  0  0  0  0  0  0  0  0
   -1.8128   -0.1969    5.5997 C   0  0  0  0  0  0  0  0  0  0  0  0
   -2.1739   -1.3961    5.4956 O   0  0  0  0  0  0  0  0  0  0  0  0
   -2.0623    0.5152    6.5890 O   0  0  0  0  0  0  0  0  0  0  0  0
    2.7630    1.2259    6.1655 H   0  0  0  0  0  0  0  0  0  0  0  0
    1.0201    0.9270    6.1886 H   0  0  0  0  0  0  0  0  0  0  0  0
    1.6780    2.4578    6.8382 H   0  0  0  0  0  0  0  0  0  0  0  0
    3.8617    2.7350    4.4501 H   0  0  0  0  0  0  0  0  0  0  0  0
    2.9385    3.9744    2.1213 H   0  0  0  0  0  0  0  0  0  0  0  0
   -1.3360    0.0038    3.4737 H   0  0  0  0  0  0  0  0  0  0  0  0
    0.0125    0.0362    4.5722 H   0  0  0  0  0  0  0  0  0  0  0  0
    0.4594    3.6757    2.1510 H   0  0  0  0  0  0  0  0  0  0  0  0
  1  2  1  0
  1 12  1  0
  1 13  1  0
  1 14  1  0
  2  6  1  0
  2  3  1  0
  3  4  2  0
  3 15  1  0
  4  5  1  0
  4 16  1  0
  5  6  2  0
  5 19  1  0
  6  7  1  0
  7  8  1  0
  8  9  1  0
  8 17  1  0
  8 18  1  0
  9 10  2  0
  9 11  1  0
M  CHG  2   5   1  11  -1
M  END
>  <i_m_ct_stereo_status>  (208) 
1

>  <s_m_source_file>  (208) 
/var/tmp/pbs.5076255.sched01/tmpck0ladl8/45htcshi4i.sdf

>  <i_m_source_file_index>  (208) 
37

>  <i_lp_mmshare_version>  (208) 
48012

>  <i_f3d_flags>  (208) 
0

>  <s_epik_input>  (208) 
W0NIM11uMVtjSF1bY0hdbmMxU1tDSDJdQyg9TylbT0hd

>  <s_epik_cmdline>  (208) 
J2VwaWtfcHl0aG9uJywgJy1waHQnLCAnMi4wJywgJy1waCcsICc3LjAnLCAnLXRuJywgJzgnLCAnLW1hJywgJzIwMCcsICctaW1hZScsICc8aW5maWxlLm1hZT4nLCAnLW9tYWUnLCAnPG91dGZpbGUubWFlPic=

>  <r_lp_tautomer_probability>  (208) 
1

>  <r_epik_Ionization_Penalty>  (208) 
0.629641

>  <r_epik_Ionization_Penalty_Charging>  (208) 
0.000102578

>  <r_epik_Ionization_Penalty_Neutral>  (208) 
0.629539

>  <r_epik_State_Penalty>  (208) 
0.646269

>  <r_epik_Charging_Adjusted_Penalty>  (208) 
0.646372

>  <i_epik_Tot_Q>  (208) 
0

>  <i_epik_Tot_abs_Q>  (208) 
2

>  <s_lp_Force_Field>  (208) 
OPLS3e

>  <r_lp_Energy>  (208) 
7.59257

>  <b_lp_Chiralities_Consistent>  (208) 
1

>  <s_lp_Variant>  (208) 
55:0-2

>  <s_i_glide_gridfile>  (208) 
pfpi4k_grid

>  <i_i_glide_lignum>  (208) 
37

>  <i_i_glide_rotatable_bonds>  (208) 
3

>  <r_i_docking_score>  (208) 
-3.88561

>  <r_i_glide_ligand_efficiency>  (208) 
-0.353238

>  <r_i_glide_ligand_efficiency_sa>  (208) 
-0.785594

>  <r_i_glide_ligand_efficiency_ln>  (208) 
-1.14354

>  <r_i_glide_gscore>  (208) 
-3.88561

>  <r_i_glide_lipo>  (208) 
0

>  <r_i_glide_hbond>  (208) 
-0.4

>  <r_i_glide_metal>  (208) 
-0

>  <r_i_glide_rewards>  (208) 
-2.23496

>  <r_i_glide_evdw>  (208) 
-8.82559

>  <r_i_glide_ecoul>  (208) 
-10.9325

>  <r_i_glide_erotb>  (208) 
1.04532

>  <r_i_glide_esite>  (208) 
-0.214818

>  <r_i_glide_emodel>  (208) 
-29.0834

>  <r_i_glide_energy>  (208) 
-19.7581

>  <r_i_glide_einternal>  (208) 
2.23659

>  <r_i_glide_intrahb_reward>  (208) 
-0

>  <i_i_glide_confnum>  (208) 
4

>  <i_i_glide_posenum>  (208) 
26

>  <r_i_glide_eff_state_penalty>  (208) 
0

>  <ligand_id>  (208) 
55

>  <original_smiles>  (208) 
Cn1ccnc1SCC(=O)O

>  <smiles>  (208) 
[H]c1c([H])[n+]([H])c(SC([H])([H])C(=O)[O-])n1C([H])([H])[H]

$$$$
55:1:1
     RDKit          3D

 19 19  0  0  1  0  0  0  0  0999 V2000
    3.9388   -0.7027    0.2813 C   0  0  0  0  0  0  0  0  0  0  0  0
    3.7541   -1.6089   -0.8537 N   0  0  0  0  0  0  0  0  0  0  0  0
    3.8467   -1.2984   -2.1858 C   0  0  0  0  0  0  0  0  0  0  0  0
    3.5450   -2.4567   -2.8783 C   0  0  0  0  0  0  0  0  0  0  0  0
    3.2955   -3.4116   -1.9359 N   0  0  0  0  0  0  0  0  0  0  0  0
    3.3987   -2.8986   -0.7212 C   0  0  0  0  0  0  0  0  0  0  0  0
    3.0704   -3.7923    0.7480 S   0  0  0  0  0  0  0  0  0  0  0  0
    2.3801   -5.3759    0.1597 C   0  0  0  0  0  0  0  0  0  0  0  0
    1.5326   -6.2000    1.1058 C   0  0  0  0  0  0  0  0  0  0  0  0
    0.3020   -6.2583    0.8623 O   0  0  0  0  0  0  0  0  0  0  0  0
    2.1250   -6.7046    2.0815 O   0  0  0  0  0  0  0  0  0  0  0  0
    4.6009    0.1025   -0.0317 H   0  0  0  0  0  0  0  0  0  0  0  0
    4.4001   -1.2162    1.1316 H   0  0  0  0  0  0  0  0  0  0  0  0
    2.9701   -0.2823    0.5731 H   0  0  0  0  0  0  0  0  0  0  0  0
    4.0773   -0.3052   -2.5477 H   0  0  0  0  0  0  0  0  0  0  0  0
    3.4755   -2.6578   -3.9309 H   0  0  0  0  0  0  0  0  0  0  0  0
    1.7146   -5.1472   -0.6659 H   0  0  0  0  0  0  0  0  0  0  0  0
    3.1925   -5.9765   -0.2544 H   0  0  0  0  0  0  0  0  0  0  0  0
    3.0424   -4.3886   -2.1101 H   0  0  0  0  0  0  0  0  0  0  0  0
  1  2  1  0
  1 12  1  0
  1 13  1  0
  1 14  1  0
  2  6  1  0
  2  3  1  0
  3  4  2  0
  3 15  1  0
  4  5  1  0
  4 16  1  0
  5  6  2  0
  5 19  1  0
  6  7  1  0
  7  8  1  0
  8  9  1  0
  8 17  1  0
  8 18  1  0
  9 10  2  0
  9 11  1  0
M  CHG  2   5   1  11  -1
M  END
>  <i_m_ct_stereo_status>  (209) 
1

>  <s_m_source_file>  (209) 
/var/tmp/pbs.5076255.sched01/tmpck0ladl8/45htcshi4i.sdf

>  <i_m_source_file_index>  (209) 
37

>  <i_lp_mmshare_version>  (209) 
48012

>  <i_f3d_flags>  (209) 
0

>  <s_epik_input>  (209) 
W0NIM11uMVtjSF1bY0hdbmMxU1tDSDJdQyg9TylbT0hd

>  <s_epik_cmdline>  (209) 
J2VwaWtfcHl0aG9uJywgJy1waHQnLCAnMi4wJywgJy1waCcsICc3LjAnLCAnLXRuJywgJzgnLCAnLW1hJywgJzIwMCcsICctaW1hZScsICc8aW5maWxlLm1hZT4nLCAnLW9tYWUnLCAnPG91dGZpbGUubWFlPic=

>  <r_lp_tautomer_probability>  (209) 
1

>  <r_epik_Ionization_Penalty>  (209) 
0.629641

>  <r_epik_Ionization_Penalty_Charging>  (209) 
0.000102578

>  <r_epik_Ionization_Penalty_Neutral>  (209) 
0.629539

>  <r_epik_State_Penalty>  (209) 
0.646269

>  <r_epik_Charging_Adjusted_Penalty>  (209) 
0.646372

>  <i_epik_Tot_Q>  (209) 
0

>  <i_epik_Tot_abs_Q>  (209) 
2

>  <s_lp_Force_Field>  (209) 
OPLS3e

>  <r_lp_Energy>  (209) 
7.59257

>  <b_lp_Chiralities_Consistent>  (209) 
1

>  <s_lp_Variant>  (209) 
55:0-2

>  <s_i_glide_gridfile>  (209) 
pfpi4k_grid

>  <i_i_glide_lignum>  (209) 
37

>  <i_i_glide_rotatable_bonds>  (209) 
3

>  <r_i_docking_score>  (209) 
-3.49125

>  <r_i_glide_ligand_efficiency>  (209) 
-0.317387

>  <r_i_glide_ligand_efficiency_sa>  (209) 
-0.705861

>  <r_i_glide_ligand_efficiency_ln>  (209) 
-1.02747

>  <r_i_glide_gscore>  (209) 
-3.49125

>  <r_i_glide_lipo>  (209) 
-0.0332935

>  <r_i_glide_hbond>  (209) 
-0.2

>  <r_i_glide_metal>  (209) 
-0

>  <r_i_glide_rewards>  (209) 
-2.23496

>  <r_i_glide_evdw>  (209) 
-14.369

>  <r_i_glide_ecoul>  (209) 
-7.93159

>  <r_i_glide_erotb>  (209) 
1.04532

>  <r_i_glide_esite>  (209) 
-0.160132

>  <r_i_glide_emodel>  (209) 
-31.4656

>  <r_i_glide_energy>  (209) 
-22.3006

>  <r_i_glide_einternal>  (209) 
0.478833

>  <r_i_glide_intrahb_reward>  (209) 
-0

>  <i_i_glide_confnum>  (209) 
1

>  <i_i_glide_posenum>  (209) 
9

>  <r_i_glide_eff_state_penalty>  (209) 
0

>  <ligand_id>  (209) 
55

>  <original_smiles>  (209) 
Cn1ccnc1SCC(=O)O

>  <smiles>  (209) 
[H]c1c([H])[n+]([H])c(SC([H])([H])C(=O)[O-])n1C([H])([H])[H]

$$$$
55:1:2
     RDKit          3D

 19 19  0  0  1  0  0  0  0  0999 V2000
    5.0839   -1.1183   -0.3607 C   0  0  0  0  0  0  0  0  0  0  0  0
    4.3049   -1.6516   -1.4813 N   0  0  0  0  0  0  0  0  0  0  0  0
    3.9175   -0.9770   -2.6150 C   0  0  0  0  0  0  0  0  0  0  0  0
    3.1817   -1.8665   -3.3663 C   0  0  0  0  0  0  0  0  0  0  0  0
    3.1575   -3.0425   -2.6604 N   0  0  0  0  0  0  0  0  0  0  0  0
    3.8252   -2.8912   -1.5234 C   0  0  0  0  0  0  0  0  0  0  0  0
    3.9891   -4.1165   -0.2909 S   0  0  0  0  0  0  0  0  0  0  0  0
    2.2609   -4.5652    0.0442 C   0  0  0  0  0  0  0  0  0  0  0  0
    1.9282   -5.8744    0.7429 C   0  0  0  0  0  0  0  0  0  0  0  0
    0.7240   -6.2138    0.7388 O   0  0  0  0  0  0  0  0  0  0  0  0
    2.8801   -6.5053    1.2631 O   0  0  0  0  0  0  0  0  0  0  0  0
    5.6906   -0.2904   -0.7195 H   0  0  0  0  0  0  0  0  0  0  0  0
    5.7481   -1.8849    0.0524 H   0  0  0  0  0  0  0  0  0  0  0  0
    4.4090   -0.7536    0.4195 H   0  0  0  0  0  0  0  0  0  0  0  0
    4.1645    0.0629   -2.7739 H   0  0  0  0  0  0  0  0  0  0  0  0
    2.6785   -1.7268   -4.3102 H   0  0  0  0  0  0  0  0  0  0  0  0
    1.8620   -3.7502    0.6378 H   0  0  0  0  0  0  0  0  0  0  0  0
    1.7059   -4.5641   -0.8915 H   0  0  0  0  0  0  0  0  0  0  0  0
    2.6918   -3.9039   -2.9262 H   0  0  0  0  0  0  0  0  0  0  0  0
  1  2  1  0
  1 12  1  0
  1 13  1  0
  1 14  1  0
  2  6  1  0
  2  3  1  0
  3  4  2  0
  3 15  1  0
  4  5  1  0
  4 16  1  0
  5  6  2  0
  5 19  1  0
  6  7  1  0
  7  8  1  0
  8  9  1  0
  8 17  1  0
  8 18  1  0
  9 10  2  0
  9 11  1  0
M  CHG  2   5   1  11  -1
M  END
>  <i_m_ct_stereo_status>  (210) 
1

>  <s_m_source_file>  (210) 
/var/tmp/pbs.5076255.sched01/tmpck0ladl8/45htcshi4i.sdf

>  <i_m_source_file_index>  (210) 
37

>  <i_lp_mmshare_version>  (210) 
48012

>  <i_f3d_flags>  (210) 
0

>  <s_epik_input>  (210) 
W0NIM11uMVtjSF1bY0hdbmMxU1tDSDJdQyg9TylbT0hd

>  <s_epik_cmdline>  (210) 
J2VwaWtfcHl0aG9uJywgJy1waHQnLCAnMi4wJywgJy1waCcsICc3LjAnLCAnLXRuJywgJzgnLCAnLW1hJywgJzIwMCcsICctaW1hZScsICc8aW5maWxlLm1hZT4nLCAnLW9tYWUnLCAnPG91dGZpbGUubWFlPic=

>  <r_lp_tautomer_probability>  (210) 
1

>  <r_epik_Ionization_Penalty>  (210) 
0.629641

>  <r_epik_Ionization_Penalty_Charging>  (210) 
0.000102578

>  <r_epik_Ionization_Penalty_Neutral>  (210) 
0.629539

>  <r_epik_State_Penalty>  (210) 
0.646269

>  <r_epik_Charging_Adjusted_Penalty>  (210) 
0.646372

>  <i_epik_Tot_Q>  (210) 
0

>  <i_epik_Tot_abs_Q>  (210) 
2

>  <s_lp_Force_Field>  (210) 
OPLS3e

>  <r_lp_Energy>  (210) 
7.59257

>  <b_lp_Chiralities_Consistent>  (210) 
1

>  <s_lp_Variant>  (210) 
55:0-2

>  <s_i_glide_gridfile>  (210) 
pfpi4k_grid

>  <i_i_glide_lignum>  (210) 
37

>  <i_i_glide_rotatable_bonds>  (210) 
3

>  <r_i_docking_score>  (210) 
-3.34388

>  <r_i_glide_ligand_efficiency>  (210) 
-0.303989

>  <r_i_glide_ligand_efficiency_sa>  (210) 
-0.676065

>  <r_i_glide_ligand_efficiency_ln>  (210) 
-0.984102

>  <r_i_glide_gscore>  (210) 
-3.34388

>  <r_i_glide_lipo>  (210) 
-0.140017

>  <r_i_glide_hbond>  (210) 
-0.2

>  <r_i_glide_metal>  (210) 
-0

>  <r_i_glide_rewards>  (210) 
-2.23496

>  <r_i_glide_evdw>  (210) 
-15.0085

>  <r_i_glide_ecoul>  (210) 
-6.06345

>  <r_i_glide_erotb>  (210) 
1.04532

>  <r_i_glide_esite>  (210) 
-0.154281

>  <r_i_glide_emodel>  (210) 
-29.5954

>  <r_i_glide_energy>  (210) 
-21.0719

>  <r_i_glide_einternal>  (210) 
1.0797

>  <r_i_glide_intrahb_reward>  (210) 
-0

>  <i_i_glide_confnum>  (210) 
1

>  <i_i_glide_posenum>  (210) 
14

>  <r_i_glide_eff_state_penalty>  (210) 
0

>  <ligand_id>  (210) 
55

>  <original_smiles>  (210) 
Cn1ccnc1SCC(=O)O

>  <smiles>  (210) 
[H]c1c([H])[n+]([H])c(SC([H])([H])C(=O)[O-])n1C([H])([H])[H]

$$$$
56:0:0
     RDKit          3D

 42 45  0  0  1  0  0  0  0  0999 V2000
    4.1207   -0.4854   -3.2211 C   0  0  0  0  0  0  0  0  0  0  0  0
    4.4969   -1.9617   -2.9832 C   0  0  0  0  0  0  0  0  0  0  0  0
    4.7096   -2.3345   -1.5898 N   0  0  0  0  0  0  0  0  0  0  0  0
    3.4392   -2.2625   -0.8026 C   0  0  0  0  0  0  0  0  0  0  0  0
    3.6131   -2.5066    0.7500 C   0  0  2  0  0  0  0  0  0  0  0  0
    2.5198   -1.7211    1.5035 C   0  0  0  0  0  0  0  0  0  0  0  0
    4.8653   -1.9188    1.1477 O   0  0  0  0  0  0  0  0  0  0  0  0
    5.7799   -2.5173    0.2619 C   0  0  1  0  0  0  0  0  0  0  0  0
    5.7419   -1.5279   -0.9119 C   0  0  1  0  0  0  0  0  0  0  0  0
    6.9521   -1.8255   -0.1005 N   0  0  0  0  0  0  0  0  0  0  0  0
    7.8751   -2.8628   -0.5584 C   0  0  0  0  0  0  0  0  0  0  0  0
    7.4991   -4.1391    0.2110 C   0  0  0  0  0  0  0  0  0  0  0  0
    5.9846   -4.0172    0.2356 C   0  0  1  0  0  0  0  0  0  0  0  0
    5.0774   -4.6662    1.3066 C   0  0  0  0  0  0  0  0  0  0  0  0
    5.0229   -6.1857    1.0718 C   0  0  0  0  0  0  0  0  0  0  0  0
    5.6250   -4.3924    2.7293 C   0  0  0  0  0  0  0  0  0  0  0  0
    3.6388   -4.0543    1.0898 C   0  0  1  0  0  0  0  0  0  0  0  0
    2.7943   -4.3790    2.1808 O   0  0  0  0  0  0  0  0  0  0  0  0
    4.0406   -0.2527   -4.2837 H   0  0  0  0  0  0  0  0  0  0  0  0
    4.8599    0.1922   -2.7880 H   0  0  0  0  0  0  0  0  0  0  0  0
    3.1576   -0.2364   -2.7725 H   0  0  0  0  0  0  0  0  0  0  0  0
    3.7033   -2.5894   -3.3942 H   0  0  0  0  0  0  0  0  0  0  0  0
    5.3906   -2.2156   -3.5524 H   0  0  0  0  0  0  0  0  0  0  0  0
    3.0246   -1.2595   -0.8955 H   0  0  0  0  0  0  0  0  0  0  0  0
    2.6935   -2.9463   -1.2234 H   0  0  0  0  0  0  0  0  0  0  0  0
    1.5210   -2.0928    1.2768 H   0  0  0  0  0  0  0  0  0  0  0  0
    2.5375   -0.6677    1.2254 H   0  0  0  0  0  0  0  0  0  0  0  0
    2.6587   -1.7676    2.5804 H   0  0  0  0  0  0  0  0  0  0  0  0
    5.3493   -0.5252   -0.7581 H   0  0  0  0  0  0  0  0  0  0  0  0
    7.8243   -2.9879   -1.6428 H   0  0  0  0  0  0  0  0  0  0  0  0
    8.8888   -2.5557   -0.3083 H   0  0  0  0  0  0  0  0  0  0  0  0
    7.8586   -5.0303   -0.2993 H   0  0  0  0  0  0  0  0  0  0  0  0
    7.9159   -4.1090    1.2183 H   0  0  0  0  0  0  0  0  0  0  0  0
    5.6545   -4.4172   -0.7241 H   0  0  0  0  0  0  0  0  0  0  0  0
    4.3729   -6.6675    1.8004 H   0  0  0  0  0  0  0  0  0  0  0  0
    6.0106   -6.6362    1.1474 H   0  0  0  0  0  0  0  0  0  0  0  0
    4.6324   -6.4192    0.0816 H   0  0  0  0  0  0  0  0  0  0  0  0
    4.9827   -4.8156    3.4993 H   0  0  0  0  0  0  0  0  0  0  0  0
    5.7309   -3.3279    2.9384 H   0  0  0  0  0  0  0  0  0  0  0  0
    6.6055   -4.8446    2.8632 H   0  0  0  0  0  0  0  0  0  0  0  0
    3.1843   -4.5684    0.2386 H   0  0  0  0  0  0  0  0  0  0  0  0
    3.1524   -3.9730    2.9531 H   0  0  0  0  0  0  0  0  0  0  0  0
  1  2  1  0
  1 19  1  0
  1 20  1  0
  1 21  1  0
  2  3  1  0
  2 22  1  0
  2 23  1  0
  3  9  1  0
  3  4  1  0
  4  5  1  0
  4 24  1  0
  4 25  1  0
  5 17  1  0
  5  6  1  1
  5  7  1  0
  6 26  1  0
  6 27  1  0
  6 28  1  0
  8  7  1  1
  8 10  1  0
  8 13  1  0
  8  9  1  0
  9 10  1  0
  9 29  1  1
 10 11  1  0
 11 12  1  0
 11 30  1  0
 11 31  1  0
 12 13  1  0
 12 32  1  0
 12 33  1  0
 13 14  1  0
 13 34  1  6
 14 15  1  0
 14 16  1  0
 14 17  1  0
 15 35  1  0
 15 36  1  0
 15 37  1  0
 16 38  1  0
 16 39  1  0
 16 40  1  0
 17 18  1  0
 17 41  1  6
 18 42  1  0
M  END
>  <i_m_ct_stereo_status>  (211) 
1

>  <s_m_source_file>  (211) 
/var/tmp/pbs.5076255.sched01/tmpck0ladl8/45htcshi4i.sdf

>  <i_m_source_file_index>  (211) 
38

>  <i_lp_mmshare_version>  (211) 
48012

>  <i_f3d_flags>  (211) 
0

>  <s_epik_input>  (211) 
W0NIM11bQ0gyXU4xW0NIMl1bQ0BAXShPMikoW0NIM10pW0NASF0oW09IXSlDKFtDSDNdKShbQ0gzXSlbQ0BASF0zW0NIMl1bQ0gyXU40W0NAQEhdMVtDQEBdMjM0

>  <s_epik_cmdline>  (211) 
J2VwaWtfcHl0aG9uJywgJy1waHQnLCAnMi4wJywgJy1waCcsICc3LjAnLCAnLXRuJywgJzgnLCAnLW1hJywgJzIwMCcsICctaW1hZScsICc8aW5maWxlLm1hZT4nLCAnLW9tYWUnLCAnPG91dGZpbGUubWFlPic=

>  <r_epik_Ionization_Penalty>  (211) 
0.39111

>  <r_epik_Ionization_Penalty_Charging>  (211) 
0

>  <r_epik_Ionization_Penalty_Neutral>  (211) 
0.39111

>  <r_epik_State_Penalty>  (211) 
0.388332

>  <r_epik_Charging_Adjusted_Penalty>  (211) 
0.388332

>  <i_epik_Tot_Q>  (211) 
0

>  <i_epik_Tot_abs_Q>  (211) 
0

>  <s_epik_Chemistry_Notes>  (211) 
This compound contains an acetal/aminal-like group ( X-CH(R)-Y where X, Y are N, S, or O) that may be acid/base labile, releasing an aldehyde.

>  <s_lp_Force_Field>  (211) 
OPLS3e

>  <r_lp_Energy>  (211) 
128.423

>  <b_lp_Chiralities_Consistent>  (211) 
1

>  <s_lp_Variant>  (211) 
56:0-1

>  <s_i_glide_gridfile>  (211) 
pfpi4k_grid

>  <i_i_glide_lignum>  (211) 
38

>  <i_i_glide_rotatable_bonds>  (211) 
2

>  <r_i_docking_score>  (211) 
-3.77009

>  <r_i_glide_ligand_efficiency>  (211) 
-0.209449

>  <r_i_glide_ligand_efficiency_sa>  (211) 
-0.548912

>  <r_i_glide_ligand_efficiency_ln>  (211) 
-0.969081

>  <r_i_glide_gscore>  (211) 
-3.77009

>  <r_i_glide_lipo>  (211) 
-0.693877

>  <r_i_glide_hbond>  (211) 
-0.0972142

>  <r_i_glide_metal>  (211) 
-0

>  <r_i_glide_rewards>  (211) 
-1.74102

>  <r_i_glide_evdw>  (211) 
-18.0819

>  <r_i_glide_ecoul>  (211) 
-1.83177

>  <r_i_glide_erotb>  (211) 
0

>  <r_i_glide_esite>  (211) 
-0.0591118

>  <r_i_glide_emodel>  (211) 
-21.9796

>  <r_i_glide_energy>  (211) 
-19.9137

>  <r_i_glide_einternal>  (211) 
5.52819

>  <r_i_glide_intrahb_reward>  (211) 
-0

>  <i_i_glide_confnum>  (211) 
2

>  <i_i_glide_posenum>  (211) 
26

>  <r_i_glide_eff_state_penalty>  (211) 
0

>  <ligand_id>  (211) 
56

>  <original_smiles>  (211) 
CCN1CC2(C)OC34C1N3CCC4C(C)(C)C2O

>  <smiles>  (211) 
[H]OC1([H])C2(C([H])([H])[H])OC34N(C([H])([H])C([H])([H])C3([H])C1(C([H])([H])[H])C([H])([H])[H])C4([H])N(C([H])([H])C([H])([H])[H])C2([H])[H]

$$$$
56:0:1
     RDKit          3D

 42 45  0  0  1  0  0  0  0  0999 V2000
    4.1781   -0.5055   -3.2071 C   0  0  0  0  0  0  0  0  0  0  0  0
    4.5505   -1.9876   -2.9838 C   0  0  0  0  0  0  0  0  0  0  0  0
    4.7551   -2.3767   -1.5937 N   0  0  0  0  0  0  0  0  0  0  0  0
    3.4730   -2.3457   -0.8251 C   0  0  0  0  0  0  0  0  0  0  0  0
    3.6359   -2.6108    0.7231 C   0  0  2  0  0  0  0  0  0  0  0  0
    2.5124   -1.8663    1.4715 C   0  0  0  0  0  0  0  0  0  0  0  0
    4.8678   -2.0008    1.1476 O   0  0  0  0  0  0  0  0  0  0  0  0
    5.8092   -2.5643    0.2685 C   0  0  1  0  0  0  0  0  0  0  0  0
    5.7599   -1.5595   -0.8906 C   0  0  1  0  0  0  0  0  0  0  0  0
    6.9699   -1.8444   -0.0654 N   0  0  0  0  0  0  0  0  0  0  0  0
    7.9210   -2.8528   -0.5265 C   0  0  0  0  0  0  0  0  0  0  0  0
    7.5624   -4.1495    0.2176 C   0  0  0  0  0  0  0  0  0  0  0  0
    6.0463   -4.0620    0.2200 C   0  0  1  0  0  0  0  0  0  0  0  0
    5.1401   -4.7483    1.2661 C   0  0  0  0  0  0  0  0  0  0  0  0
    5.1206   -6.2661    1.0086 C   0  0  0  0  0  0  0  0  0  0  0  0
    5.6569   -4.4871    2.7029 C   0  0  0  0  0  0  0  0  0  0  0  0
    3.6940   -4.1624    1.0365 C   0  0  1  0  0  0  0  0  0  0  0  0
    2.8424   -4.5400    2.1032 O   0  0  0  0  0  0  0  0  0  0  0  0
    4.0996   -0.2672   -4.2693 H   0  0  0  0  0  0  0  0  0  0  0  0
    4.9186    0.1665   -2.7666 H   0  0  0  0  0  0  0  0  0  0  0  0
    3.2156   -0.2535   -2.7574 H   0  0  0  0  0  0  0  0  0  0  0  0
    3.7636   -2.6150   -3.4084 H   0  0  0  0  0  0  0  0  0  0  0  0
    5.4432   -2.2426   -3.5505 H   0  0  0  0  0  0  0  0  0  0  0  0
    3.0258   -1.3551   -0.9131 H   0  0  0  0  0  0  0  0  0  0  0  0
    2.7538   -3.0439   -1.2678 H   0  0  0  0  0  0  0  0  0  0  0  0
    1.5278   -2.2567    1.2156 H   0  0  0  0  0  0  0  0  0  0  0  0
    2.5108   -0.8076    1.2152 H   0  0  0  0  0  0  0  0  0  0  0  0
    2.6347   -1.9356    2.5498 H   0  0  0  0  0  0  0  0  0  0  0  0
    5.3465   -0.5699   -0.7244 H   0  0  0  0  0  0  0  0  0  0  0  0
    7.8914   -2.9603   -1.6147 H   0  0  0  0  0  0  0  0  0  0  0  0
    8.9254   -2.5277   -0.2533 H   0  0  0  0  0  0  0  0  0  0  0  0
    7.9502   -5.0276   -0.2934 H   0  0  0  0  0  0  0  0  0  0  0  0
    7.9665   -4.1343    1.2279 H   0  0  0  0  0  0  0  0  0  0  0  0
    5.7375   -4.4533   -0.7494 H   0  0  0  0  0  0  0  0  0  0  0  0
    4.4763   -6.7803    1.7202 H   0  0  0  0  0  0  0  0  0  0  0  0
    6.1190   -6.6946    1.0902 H   0  0  0  0  0  0  0  0  0  0  0  0
    4.7503   -6.4928    0.0083 H   0  0  0  0  0  0  0  0  0  0  0  0
    5.0098   -4.9317    3.4568 H   0  0  0  0  0  0  0  0  0  0  0  0
    5.7357   -3.4242    2.9294 H   0  0  0  0  0  0  0  0  0  0  0  0
    6.6427   -4.9239    2.8481 H   0  0  0  0  0  0  0  0  0  0  0  0
    3.2641   -4.6744    0.1717 H   0  0  0  0  0  0  0  0  0  0  0  0
    2.9426   -5.4643    2.2497 H   0  0  0  0  0  0  0  0  0  0  0  0
  1  2  1  0
  1 19  1  0
  1 20  1  0
  1 21  1  0
  2  3  1  0
  2 22  1  0
  2 23  1  0
  3  9  1  0
  3  4  1  0
  4  5  1  0
  4 24  1  0
  4 25  1  0
  5 17  1  0
  5  6  1  1
  5  7  1  0
  6 26  1  0
  6 27  1  0
  6 28  1  0
  8  7  1  1
  8 10  1  0
  8 13  1  0
  8  9  1  0
  9 10  1  0
  9 29  1  1
 10 11  1  0
 11 12  1  0
 11 30  1  0
 11 31  1  0
 12 13  1  0
 12 32  1  0
 12 33  1  0
 13 14  1  0
 13 34  1  6
 14 15  1  0
 14 16  1  0
 14 17  1  0
 15 35  1  0
 15 36  1  0
 15 37  1  0
 16 38  1  0
 16 39  1  0
 16 40  1  0
 17 18  1  0
 17 41  1  6
 18 42  1  0
M  END
>  <i_m_ct_stereo_status>  (212) 
1

>  <s_m_source_file>  (212) 
/var/tmp/pbs.5076255.sched01/tmpck0ladl8/45htcshi4i.sdf

>  <i_m_source_file_index>  (212) 
38

>  <i_lp_mmshare_version>  (212) 
48012

>  <i_f3d_flags>  (212) 
0

>  <s_epik_input>  (212) 
W0NIM11bQ0gyXU4xW0NIMl1bQ0BAXShPMikoW0NIM10pW0NASF0oW09IXSlDKFtDSDNdKShbQ0gzXSlbQ0BASF0zW0NIMl1bQ0gyXU40W0NAQEhdMVtDQEBdMjM0

>  <s_epik_cmdline>  (212) 
J2VwaWtfcHl0aG9uJywgJy1waHQnLCAnMi4wJywgJy1waCcsICc3LjAnLCAnLXRuJywgJzgnLCAnLW1hJywgJzIwMCcsICctaW1hZScsICc8aW5maWxlLm1hZT4nLCAnLW9tYWUnLCAnPG91dGZpbGUubWFlPic=

>  <r_epik_Ionization_Penalty>  (212) 
0.39111

>  <r_epik_Ionization_Penalty_Charging>  (212) 
0

>  <r_epik_Ionization_Penalty_Neutral>  (212) 
0.39111

>  <r_epik_State_Penalty>  (212) 
0.388332

>  <r_epik_Charging_Adjusted_Penalty>  (212) 
0.388332

>  <i_epik_Tot_Q>  (212) 
0

>  <i_epik_Tot_abs_Q>  (212) 
0

>  <s_epik_Chemistry_Notes>  (212) 
This compound contains an acetal/aminal-like group ( X-CH(R)-Y where X, Y are N, S, or O) that may be acid/base labile, releasing an aldehyde.

>  <s_lp_Force_Field>  (212) 
OPLS3e

>  <r_lp_Energy>  (212) 
128.423

>  <b_lp_Chiralities_Consistent>  (212) 
1

>  <s_lp_Variant>  (212) 
56:0-1

>  <s_i_glide_gridfile>  (212) 
pfpi4k_grid

>  <i_i_glide_lignum>  (212) 
38

>  <i_i_glide_rotatable_bonds>  (212) 
2

>  <r_i_docking_score>  (212) 
-3.7276

>  <r_i_glide_ligand_efficiency>  (212) 
-0.207089

>  <r_i_glide_ligand_efficiency_sa>  (212) 
-0.542726

>  <r_i_glide_ligand_efficiency_ln>  (212) 
-0.95816

>  <r_i_glide_gscore>  (212) 
-3.7276

>  <r_i_glide_lipo>  (212) 
-0.697472

>  <r_i_glide_hbond>  (212) 
-0.0867794

>  <r_i_glide_metal>  (212) 
-0

>  <r_i_glide_rewards>  (212) 
-1.74471

>  <r_i_glide_evdw>  (212) 
-18.3405

>  <r_i_glide_ecoul>  (212) 
-1.49112

>  <r_i_glide_erotb>  (212) 
0

>  <r_i_glide_esite>  (212) 
-0.0579388

>  <r_i_glide_emodel>  (212) 
-21.6043

>  <r_i_glide_energy>  (212) 
-19.8316

>  <r_i_glide_einternal>  (212) 
5.89107

>  <r_i_glide_intrahb_reward>  (212) 
-0

>  <i_i_glide_confnum>  (212) 
2

>  <i_i_glide_posenum>  (212) 
7

>  <r_i_glide_eff_state_penalty>  (212) 
0

>  <ligand_id>  (212) 
56

>  <original_smiles>  (212) 
CCN1CC2(C)OC34C1N3CCC4C(C)(C)C2O

>  <smiles>  (212) 
[H]OC1([H])C2(C([H])([H])[H])OC34N(C([H])([H])C([H])([H])C3([H])C1(C([H])([H])[H])C([H])([H])[H])C4([H])N(C([H])([H])C([H])([H])[H])C2([H])[H]

$$$$
56:0:2
     RDKit          3D

 42 45  0  0  1  0  0  0  0  0999 V2000
    3.0140   -1.2037   -3.4930 C   0  0  0  0  0  0  0  0  0  0  0  0
    4.4075   -1.6305   -2.9930 C   0  0  0  0  0  0  0  0  0  0  0  0
    4.4564   -2.1977   -1.6468 N   0  0  0  0  0  0  0  0  0  0  0  0
    3.7345   -3.5078   -1.5748 C   0  0  0  0  0  0  0  0  0  0  0  0
    3.5965   -4.1065   -0.1181 C   0  0  2  0  0  0  0  0  0  0  0  0
    2.2991   -4.9366   -0.0283 C   0  0  0  0  0  0  0  0  0  0  0  0
    3.4089   -3.0061    0.7958 O   0  0  0  0  0  0  0  0  0  0  0  0
    4.4963   -2.1715    0.4920 C   0  0  1  0  0  0  0  0  0  0  0  0
    3.9190   -1.2901   -0.6159 C   0  0  1  0  0  0  0  0  0  0  0  0
    4.3961   -0.7923    0.7217 N   0  0  0  0  0  0  0  0  0  0  0  0
    5.7745   -0.3268    0.8123 C   0  0  0  0  0  0  0  0  0  0  0  0
    6.5829   -1.4964    1.3831 C   0  0  0  0  0  0  0  0  0  0  0  0
    5.9229   -2.6640    0.6730 C   0  0  1  0  0  0  0  0  0  0  0  0
    5.9011   -4.1117    1.2236 C   0  0  0  0  0  0  0  0  0  0  0  0
    7.3065   -4.7245    1.1036 C   0  0  0  0  0  0  0  0  0  0  0  0
    5.4544   -4.1351    2.7073 C   0  0  0  0  0  0  0  0  0  0  0  0
    4.8995   -4.9052    0.2989 C   0  0  1  0  0  0  0  0  0  0  0  0
    4.6044   -6.1662    0.8737 O   0  0  0  0  0  0  0  0  0  0  0  0
    3.0708   -0.7432   -4.4796 H   0  0  0  0  0  0  0  0  0  0  0  0
    2.5755   -0.4616   -2.8239 H   0  0  0  0  0  0  0  0  0  0  0  0
    2.3215   -2.0432   -3.5691 H   0  0  0  0  0  0  0  0  0  0  0  0
    4.8218   -2.3641   -3.6872 H   0  0  0  0  0  0  0  0  0  0  0  0
    5.0604   -0.7623   -3.0364 H   0  0  0  0  0  0  0  0  0  0  0  0
    2.7158   -3.3600   -1.9303 H   0  0  0  0  0  0  0  0  0  0  0  0
    4.2093   -4.2318   -2.2471 H   0  0  0  0  0  0  0  0  0  0  0  0
    2.3182   -5.8147   -0.6697 H   0  0  0  0  0  0  0  0  0  0  0  0
    1.4511   -4.3458   -0.3587 H   0  0  0  0  0  0  0  0  0  0  0  0
    2.1041   -5.2773    0.9850 H   0  0  0  0  0  0  0  0  0  0  0  0
    2.8516   -1.2190   -0.7500 H   0  0  0  0  0  0  0  0  0  0  0  0
    6.1523    0.0209   -0.1509 H   0  0  0  0  0  0  0  0  0  0  0  0
    5.7968    0.5092    1.5040 H   0  0  0  0  0  0  0  0  0  0  0  0
    7.6435   -1.3961    1.1567 H   0  0  0  0  0  0  0  0  0  0  0  0
    6.4521   -1.5478    2.4612 H   0  0  0  0  0  0  0  0  0  0  0  0
    6.4235   -2.7199   -0.2937 H   0  0  0  0  0  0  0  0  0  0  0  0
    7.3145   -5.7547    1.4568 H   0  0  0  0  0  0  0  0  0  0  0  0
    8.0416   -4.1644    1.6791 H   0  0  0  0  0  0  0  0  0  0  0  0
    7.6443   -4.7348    0.0691 H   0  0  0  0  0  0  0  0  0  0  0  0
    5.4147   -5.1478    3.1055 H   0  0  0  0  0  0  0  0  0  0  0  0
    4.4832   -3.6719    2.8635 H   0  0  0  0  0  0  0  0  0  0  0  0
    6.1572   -3.5899    3.3265 H   0  0  0  0  0  0  0  0  0  0  0  0
    5.4239   -5.1537   -0.6298 H   0  0  0  0  0  0  0  0  0  0  0  0
    4.1828   -6.0152    1.7050 H   0  0  0  0  0  0  0  0  0  0  0  0
  1  2  1  0
  1 19  1  0
  1 20  1  0
  1 21  1  0
  2  3  1  0
  2 22  1  0
  2 23  1  0
  3  9  1  0
  3  4  1  0
  4  5  1  0
  4 24  1  0
  4 25  1  0
  5 17  1  0
  5  6  1  6
  5  7  1  0
  6 26  1  0
  6 27  1  0
  6 28  1  0
  8  7  1  1
  8 10  1  0
  8 13  1  0
  8  9  1  0
  9 10  1  0
  9 29  1  1
 10 11  1  0
 11 12  1  0
 11 30  1  0
 11 31  1  0
 12 13  1  0
 12 32  1  0
 12 33  1  0
 13 14  1  0
 13 34  1  6
 14 15  1  0
 14 16  1  0
 14 17  1  0
 15 35  1  0
 15 36  1  0
 15 37  1  0
 16 38  1  0
 16 39  1  0
 16 40  1  0
 17 18  1  0
 17 41  1  6
 18 42  1  0
M  END
>  <i_m_ct_stereo_status>  (213) 
1

>  <s_m_source_file>  (213) 
/var/tmp/pbs.5076255.sched01/tmpck0ladl8/45htcshi4i.sdf

>  <i_m_source_file_index>  (213) 
38

>  <i_lp_mmshare_version>  (213) 
48012

>  <i_f3d_flags>  (213) 
0

>  <s_epik_input>  (213) 
W0NIM11bQ0gyXU4xW0NIMl1bQ0BAXShPMikoW0NIM10pW0NASF0oW09IXSlDKFtDSDNdKShbQ0gzXSlbQ0BASF0zW0NIMl1bQ0gyXU40W0NAQEhdMVtDQEBdMjM0

>  <s_epik_cmdline>  (213) 
J2VwaWtfcHl0aG9uJywgJy1waHQnLCAnMi4wJywgJy1waCcsICc3LjAnLCAnLXRuJywgJzgnLCAnLW1hJywgJzIwMCcsICctaW1hZScsICc8aW5maWxlLm1hZT4nLCAnLW9tYWUnLCAnPG91dGZpbGUubWFlPic=

>  <r_epik_Ionization_Penalty>  (213) 
0.39111

>  <r_epik_Ionization_Penalty_Charging>  (213) 
0

>  <r_epik_Ionization_Penalty_Neutral>  (213) 
0.39111

>  <r_epik_State_Penalty>  (213) 
0.388332

>  <r_epik_Charging_Adjusted_Penalty>  (213) 
0.388332

>  <i_epik_Tot_Q>  (213) 
0

>  <i_epik_Tot_abs_Q>  (213) 
0

>  <s_epik_Chemistry_Notes>  (213) 
This compound contains an acetal/aminal-like group ( X-CH(R)-Y where X, Y are N, S, or O) that may be acid/base labile, releasing an aldehyde.

>  <s_lp_Force_Field>  (213) 
OPLS3e

>  <r_lp_Energy>  (213) 
128.423

>  <b_lp_Chiralities_Consistent>  (213) 
1

>  <s_lp_Variant>  (213) 
56:0-1

>  <s_i_glide_gridfile>  (213) 
pfpi4k_grid

>  <i_i_glide_lignum>  (213) 
38

>  <i_i_glide_rotatable_bonds>  (213) 
2

>  <r_i_docking_score>  (213) 
-3.31739

>  <r_i_glide_ligand_efficiency>  (213) 
-0.184299

>  <r_i_glide_ligand_efficiency_sa>  (213) 
-0.483001

>  <r_i_glide_ligand_efficiency_ln>  (213) 
-0.852717

>  <r_i_glide_gscore>  (213) 
-3.31739

>  <r_i_glide_lipo>  (213) 
-0.719896

>  <r_i_glide_hbond>  (213) 
0

>  <r_i_glide_metal>  (213) 
-0

>  <r_i_glide_rewards>  (213) 
-1.68851

>  <r_i_glide_evdw>  (213) 
-15.9722

>  <r_i_glide_ecoul>  (213) 
-0.281862

>  <r_i_glide_erotb>  (213) 
0

>  <r_i_glide_esite>  (213) 
-0.0680957

>  <r_i_glide_emodel>  (213) 
-17.6668

>  <r_i_glide_energy>  (213) 
-16.254

>  <r_i_glide_einternal>  (213) 
5.4945

>  <r_i_glide_intrahb_reward>  (213) 
-0

>  <i_i_glide_confnum>  (213) 
1

>  <i_i_glide_posenum>  (213) 
29

>  <r_i_glide_eff_state_penalty>  (213) 
0

>  <ligand_id>  (213) 
56

>  <original_smiles>  (213) 
CCN1CC2(C)OC34C1N3CCC4C(C)(C)C2O

>  <smiles>  (213) 
[H]OC1([H])C2(C([H])([H])[H])OC34N(C([H])([H])C([H])([H])C3([H])C1(C([H])([H])[H])C([H])([H])[H])C4([H])N(C([H])([H])C([H])([H])[H])C2([H])[H]

$$$$
56:1:0
     RDKit          3D

 43 46  0  0  1  0  0  0  0  0999 V2000
    2.0278    0.7408    1.9437 C   0  0  0  0  0  0  0  0  0  0  0  0
    3.4076    0.0676    2.0967 C   0  0  0  0  0  0  0  0  0  0  0  0
    3.4783   -1.2872    1.5066 N   0  0  2  0  0  0  0  0  0  0  0  0
    3.6187   -1.2617    0.0031 C   0  0  0  0  0  0  0  0  0  0  0  0
    3.6331   -2.7108   -0.6351 C   0  0  2  0  0  0  0  0  0  0  0  0
    3.0783   -2.6734   -2.0771 C   0  0  0  0  0  0  0  0  0  0  0  0
    2.7090   -3.5223    0.1037 O   0  0  0  0  0  0  0  0  0  0  0  0
    3.1469   -3.3741    1.4243 C   0  0  1  0  0  0  0  0  0  0  0  0
    2.3345   -2.1689    1.9025 C   0  0  1  0  0  0  0  0  0  0  0  0
    2.2250   -3.5441    2.4665 N   0  0  0  0  0  0  0  0  0  0  0  0
    3.0278   -3.9033    3.6293 C   0  0  0  0  0  0  0  0  0  0  0  0
    4.2636   -4.6435    3.0934 C   0  0  0  0  0  0  0  0  0  0  0  0
    4.5326   -3.8446    1.8368 C   0  0  1  0  0  0  0  0  0  0  0  0
    5.2614   -4.4218    0.6019 C   0  0  0  0  0  0  0  0  0  0  0  0
    6.7581   -4.5773    0.9366 C   0  0  0  0  0  0  0  0  0  0  0  0
    4.6880   -5.8030    0.1965 C   0  0  0  0  0  0  0  0  0  0  0  0
    5.0794   -3.3526   -0.5397 C   0  0  1  0  0  0  0  0  0  0  0  0
    5.5222   -3.8443   -1.7894 O   0  0  0  0  0  0  0  0  0  0  0  0
    2.0197    1.7180    2.4276 H   0  0  0  0  0  0  0  0  0  0  0  0
    1.2313    0.1510    2.4103 H   0  0  0  0  0  0  0  0  0  0  0  0
    1.7654    0.8783    0.8912 H   0  0  0  0  0  0  0  0  0  0  0  0
    4.1730    0.6905    1.6334 H   0  0  0  0  0  0  0  0  0  0  0  0
    3.6727    0.0057    3.1553 H   0  0  0  0  0  0  0  0  0  0  0  0
    2.7601   -0.7220   -0.3887 H   0  0  0  0  0  0  0  0  0  0  0  0
    4.4912   -0.6821   -0.3116 H   0  0  0  0  0  0  0  0  0  0  0  0
    3.6972   -2.0707   -2.7446 H   0  0  0  0  0  0  0  0  0  0  0  0
    2.0738   -2.2574   -2.1093 H   0  0  0  0  0  0  0  0  0  0  0  0
    3.0002   -3.6777   -2.4910 H   0  0  0  0  0  0  0  0  0  0  0  0
    1.4532   -1.8571    1.3410 H   0  0  0  0  0  0  0  0  0  0  0  0
    3.2803   -3.0260    4.2333 H   0  0  0  0  0  0  0  0  0  0  0  0
    2.4387   -4.5705    4.2536 H   0  0  0  0  0  0  0  0  0  0  0  0
    5.0884   -4.6283    3.8064 H   0  0  0  0  0  0  0  0  0  0  0  0
    4.0188   -5.6815    2.8709 H   0  0  0  0  0  0  0  0  0  0  0  0
    5.1306   -3.0009    2.1757 H   0  0  0  0  0  0  0  0  0  0  0  0
    7.3174   -4.9586    0.0830 H   0  0  0  0  0  0  0  0  0  0  0  0
    6.9132   -5.2648    1.7673 H   0  0  0  0  0  0  0  0  0  0  0  0
    7.2070   -3.6245    1.2151 H   0  0  0  0  0  0  0  0  0  0  0  0
    5.1695   -6.1883   -0.6995 H   0  0  0  0  0  0  0  0  0  0  0  0
    3.6189   -5.7703   -0.0098 H   0  0  0  0  0  0  0  0  0  0  0  0
    4.8449   -6.5451    0.9796 H   0  0  0  0  0  0  0  0  0  0  0  0
    5.7659   -2.5312   -0.3195 H   0  0  0  0  0  0  0  0  0  0  0  0
    4.9577   -4.5609   -2.0401 H   0  0  0  0  0  0  0  0  0  0  0  0
    4.3241   -1.7031    1.8716 H   0  0  0  0  0  0  0  0  0  0  0  0
  1  2  1  0
  1 19  1  0
  1 20  1  0
  1 21  1  0
  2  3  1  0
  2 22  1  0
  2 23  1  0
  3  9  1  0
  3  4  1  0
  3 43  1  1
  4  5  1  0
  4 24  1  0
  4 25  1  0
  5 17  1  0
  5  6  1  6
  5  7  1  0
  6 26  1  0
  6 27  1  0
  6 28  1  0
  8  7  1  6
  8 10  1  0
  8 13  1  0
  8  9  1  0
  9 10  1  0
  9 29  1  6
 10 11  1  0
 11 12  1  0
 11 30  1  0
 11 31  1  0
 12 13  1  0
 12 32  1  0
 12 33  1  0
 13 14  1  0
 13 34  1  1
 14 15  1  0
 14 16  1  0
 14 17  1  0
 15 35  1  0
 15 36  1  0
 15 37  1  0
 16 38  1  0
 16 39  1  0
 16 40  1  0
 17 18  1  0
 17 41  1  1
 18 42  1  0
M  CHG  1   3   1
M  END
>  <i_m_ct_stereo_status>  (214) 
1

>  <s_m_source_file>  (214) 
/var/tmp/pbs.5076255.sched01/tmpck0ladl8/45htcshi4i.sdf

>  <i_m_source_file_index>  (214) 
39

>  <i_lp_mmshare_version>  (214) 
48012

>  <i_f3d_flags>  (214) 
0

>  <s_epik_input>  (214) 
W0NIM11bQ0gyXU4xW0NIMl1bQ0BAXShPMikoW0NIM10pW0NASF0oW09IXSlDKFtDSDNdKShbQ0gzXSlbQ0BASF0zW0NIMl1bQ0gyXU40W0NAQEhdMVtDQEBdMjM0

>  <s_epik_cmdline>  (214) 
J2VwaWtfcHl0aG9uJywgJy1waHQnLCAnMi4wJywgJy1waCcsICc3LjAnLCAnLXRuJywgJzgnLCAnLW1hJywgJzIwMCcsICctaW1hZScsICc8aW5maWxlLm1hZT4nLCAnLW9tYWUnLCAnPG91dGZpbGUubWFlPic=

>  <r_epik_Ionization_Penalty>  (214) 
0.433178

>  <r_epik_Ionization_Penalty_Charging>  (214) 
0.433177

>  <r_epik_Ionization_Penalty_Neutral>  (214) 
9.52205e-07

>  <r_epik_State_Penalty>  (214) 
0.435465

>  <r_epik_Charging_Adjusted_Penalty>  (214) 
0.868642

>  <i_epik_Tot_Q>  (214) 
1

>  <i_epik_Tot_abs_Q>  (214) 
1

>  <s_epik_Chemistry_Notes>  (214) 
This compound contains an acetal/aminal-like group ( X-CH(R)-Y where X, Y are N, S, or O) that may be acid/base labile, releasing an aldehyde.

>  <s_lp_Force_Field>  (214) 
OPLS3e

>  <r_lp_Energy>  (214) 
128.982

>  <b_lp_Chiralities_Consistent>  (214) 
1

>  <s_lp_Variant>  (214) 
56:0-2

>  <s_i_glide_gridfile>  (214) 
pfpi4k_grid

>  <i_i_glide_lignum>  (214) 
39

>  <i_i_glide_rotatable_bonds>  (214) 
2

>  <r_i_docking_score>  (214) 
-3.59366

>  <r_i_glide_ligand_efficiency>  (214) 
-0.199648

>  <r_i_glide_ligand_efficiency_sa>  (214) 
-0.523225

>  <r_i_glide_ligand_efficiency_ln>  (214) 
-0.923731

>  <r_i_glide_gscore>  (214) 
-3.59366

>  <r_i_glide_lipo>  (214) 
-0.335743

>  <r_i_glide_hbond>  (214) 
0

>  <r_i_glide_metal>  (214) 
-0

>  <r_i_glide_rewards>  (214) 
-1.68379

>  <r_i_glide_evdw>  (214) 
-17.6874

>  <r_i_glide_ecoul>  (214) 
-4.25398

>  <r_i_glide_erotb>  (214) 
0

>  <r_i_glide_esite>  (214) 
-0.0516545

>  <r_i_glide_emodel>  (214) 
-26.0088

>  <r_i_glide_energy>  (214) 
-21.9414

>  <r_i_glide_einternal>  (214) 
2.32853

>  <r_i_glide_intrahb_reward>  (214) 
-0

>  <i_i_glide_confnum>  (214) 
2

>  <i_i_glide_posenum>  (214) 
6

>  <r_i_glide_eff_state_penalty>  (214) 
0

>  <ligand_id>  (214) 
56

>  <original_smiles>  (214) 
CCN1CC2(C)OC34C1N3CCC4C(C)(C)C2O

>  <smiles>  (214) 
[H]OC1([H])C2(C([H])([H])[H])OC34N(C([H])([H])C([H])([H])C3([H])C1(C([H])([H])[H])C([H])([H])[H])C4([H])[N+]([H])(C([H])([H])C([H])([H])[H])C2([H])[H]

$$$$
56:1:1
     RDKit          3D

 43 46  0  0  1  0  0  0  0  0999 V2000
    3.7617    0.0808    3.5674 C   0  0  0  0  0  0  0  0  0  0  0  0
    3.4528    0.0831    2.0610 C   0  0  0  0  0  0  0  0  0  0  0  0
    3.5259   -1.2739    1.4822 N   0  0  2  0  0  0  0  0  0  0  0  0
    3.6739   -1.2474   -0.0196 C   0  0  0  0  0  0  0  0  0  0  0  0
    3.7003   -2.6989   -0.6566 C   0  0  2  0  0  0  0  0  0  0  0  0
    3.1755   -2.6686   -2.1091 C   0  0  0  0  0  0  0  0  0  0  0  0
    2.7598   -3.5060    0.0650 O   0  0  0  0  0  0  0  0  0  0  0  0
    3.1703   -3.3525    1.3942 C   0  0  1  0  0  0  0  0  0  0  0  0
    2.3623   -2.1352    1.8605 C   0  0  1  0  0  0  0  0  0  0  0  0
    2.2207   -3.5173    2.4123 N   0  0  0  0  0  0  0  0  0  0  0  0
    2.9968   -3.8973    3.5907 C   0  0  0  0  0  0  0  0  0  0  0  0
    4.2468   -4.6331    3.0830 C   0  0  0  0  0  0  0  0  0  0  0  0
    4.5440   -3.8326    1.8342 C   0  0  1  0  0  0  0  0  0  0  0  0
    5.3006   -4.4147    0.6166 C   0  0  0  0  0  0  0  0  0  0  0  0
    6.7929   -4.5730    0.9776 C   0  0  0  0  0  0  0  0  0  0  0  0
    4.7364   -5.7970    0.1999 C   0  0  0  0  0  0  0  0  0  0  0  0
    5.1428   -3.3467   -0.5300 C   0  0  1  0  0  0  0  0  0  0  0  0
    5.6240   -3.8379   -1.7658 O   0  0  0  0  0  0  0  0  0  0  0  0
    3.7472    1.1000    3.9553 H   0  0  0  0  0  0  0  0  0  0  0  0
    4.7507   -0.3339    3.7786 H   0  0  0  0  0  0  0  0  0  0  0  0
    3.0223   -0.4963    4.1262 H   0  0  0  0  0  0  0  0  0  0  0  0
    2.4757    0.5337    1.8632 H   0  0  0  0  0  0  0  0  0  0  0  0
    4.1897    0.7140    1.5629 H   0  0  0  0  0  0  0  0  0  0  0  0
    2.8205   -0.6959   -0.4098 H   0  0  0  0  0  0  0  0  0  0  0  0
    4.5499   -0.6721   -0.3245 H   0  0  0  0  0  0  0  0  0  0  0  0
    3.8085   -2.0705   -2.7656 H   0  0  0  0  0  0  0  0  0  0  0  0
    2.1715   -2.2532   -2.1583 H   0  0  0  0  0  0  0  0  0  0  0  0
    3.1089   -3.6747   -2.5247 H   0  0  0  0  0  0  0  0  0  0  0  0
    1.4951   -1.8040    1.2882 H   0  0  0  0  0  0  0  0  0  0  0  0
    3.2388   -3.0218    4.1969 H   0  0  0  0  0  0  0  0  0  0  0  0
    2.4012   -4.5672    4.2080 H   0  0  0  0  0  0  0  0  0  0  0  0
    5.0577   -4.6155    3.8119 H   0  0  0  0  0  0  0  0  0  0  0  0
    4.0103   -5.6728    2.8584 H   0  0  0  0  0  0  0  0  0  0  0  0
    5.1374   -2.9916    2.1878 H   0  0  0  0  0  0  0  0  0  0  0  0
    7.3650   -4.9577    0.1328 H   0  0  0  0  0  0  0  0  0  0  0  0
    6.9313   -5.2586    1.8138 H   0  0  0  0  0  0  0  0  0  0  0  0
    7.2399   -3.6198    1.2640 H   0  0  0  0  0  0  0  0  0  0  0  0
    5.2416   -6.1826   -0.6830 H   0  0  0  0  0  0  0  0  0  0  0  0
    3.6738   -5.7658   -0.0365 H   0  0  0  0  0  0  0  0  0  0  0  0
    4.8724   -6.5416    0.9843 H   0  0  0  0  0  0  0  0  0  0  0  0
    5.8268   -2.5281   -0.2988 H   0  0  0  0  0  0  0  0  0  0  0  0
    5.0847   -4.5692   -2.0284 H   0  0  0  0  0  0  0  0  0  0  0  0
    4.3640   -1.7032    1.8539 H   0  0  0  0  0  0  0  0  0  0  0  0
  1  2  1  0
  1 19  1  0
  1 20  1  0
  1 21  1  0
  2  3  1  0
  2 22  1  0
  2 23  1  0
  3  9  1  0
  3  4  1  0
  3 43  1  1
  4  5  1  0
  4 24  1  0
  4 25  1  0
  5 17  1  0
  5  6  1  6
  5  7  1  0
  6 26  1  0
  6 27  1  0
  6 28  1  0
  8  7  1  6
  8 10  1  0
  8 13  1  0
  8  9  1  0
  9 10  1  0
  9 29  1  6
 10 11  1  0
 11 12  1  0
 11 30  1  0
 11 31  1  0
 12 13  1  0
 12 32  1  0
 12 33  1  0
 13 14  1  0
 13 34  1  1
 14 15  1  0
 14 16  1  0
 14 17  1  0
 15 35  1  0
 15 36  1  0
 15 37  1  0
 16 38  1  0
 16 39  1  0
 16 40  1  0
 17 18  1  0
 17 41  1  1
 18 42  1  0
M  CHG  1   3   1
M  END
>  <i_m_ct_stereo_status>  (215) 
1

>  <s_m_source_file>  (215) 
/var/tmp/pbs.5076255.sched01/tmpck0ladl8/45htcshi4i.sdf

>  <i_m_source_file_index>  (215) 
39

>  <i_lp_mmshare_version>  (215) 
48012

>  <i_f3d_flags>  (215) 
0

>  <s_epik_input>  (215) 
W0NIM11bQ0gyXU4xW0NIMl1bQ0BAXShPMikoW0NIM10pW0NASF0oW09IXSlDKFtDSDNdKShbQ0gzXSlbQ0BASF0zW0NIMl1bQ0gyXU40W0NAQEhdMVtDQEBdMjM0

>  <s_epik_cmdline>  (215) 
J2VwaWtfcHl0aG9uJywgJy1waHQnLCAnMi4wJywgJy1waCcsICc3LjAnLCAnLXRuJywgJzgnLCAnLW1hJywgJzIwMCcsICctaW1hZScsICc8aW5maWxlLm1hZT4nLCAnLW9tYWUnLCAnPG91dGZpbGUubWFlPic=

>  <r_epik_Ionization_Penalty>  (215) 
0.433178

>  <r_epik_Ionization_Penalty_Charging>  (215) 
0.433177

>  <r_epik_Ionization_Penalty_Neutral>  (215) 
9.52205e-07

>  <r_epik_State_Penalty>  (215) 
0.435465

>  <r_epik_Charging_Adjusted_Penalty>  (215) 
0.868642

>  <i_epik_Tot_Q>  (215) 
1

>  <i_epik_Tot_abs_Q>  (215) 
1

>  <s_epik_Chemistry_Notes>  (215) 
This compound contains an acetal/aminal-like group ( X-CH(R)-Y where X, Y are N, S, or O) that may be acid/base labile, releasing an aldehyde.

>  <s_lp_Force_Field>  (215) 
OPLS3e

>  <r_lp_Energy>  (215) 
128.982

>  <b_lp_Chiralities_Consistent>  (215) 
1

>  <s_lp_Variant>  (215) 
56:0-2

>  <s_i_glide_gridfile>  (215) 
pfpi4k_grid

>  <i_i_glide_lignum>  (215) 
39

>  <i_i_glide_rotatable_bonds>  (215) 
2

>  <r_i_docking_score>  (215) 
-3.52828

>  <r_i_glide_ligand_efficiency>  (215) 
-0.196016

>  <r_i_glide_ligand_efficiency_sa>  (215) 
-0.513706

>  <r_i_glide_ligand_efficiency_ln>  (215) 
-0.906927

>  <r_i_glide_gscore>  (215) 
-3.52828

>  <r_i_glide_lipo>  (215) 
-0.34225

>  <r_i_glide_hbond>  (215) 
0

>  <r_i_glide_metal>  (215) 
-0

>  <r_i_glide_rewards>  (215) 
-1.68387

>  <r_i_glide_evdw>  (215) 
-17.0099

>  <r_i_glide_ecoul>  (215) 
-3.99478

>  <r_i_glide_erotb>  (215) 
0

>  <r_i_glide_esite>  (215) 
-0.0524525

>  <r_i_glide_emodel>  (215) 
-26.1682

>  <r_i_glide_energy>  (215) 
-21.0047

>  <r_i_glide_einternal>  (215) 
0.113698

>  <r_i_glide_intrahb_reward>  (215) 
-0

>  <i_i_glide_confnum>  (215) 
1

>  <i_i_glide_posenum>  (215) 
13

>  <r_i_glide_eff_state_penalty>  (215) 
0

>  <ligand_id>  (215) 
56

>  <original_smiles>  (215) 
CCN1CC2(C)OC34C1N3CCC4C(C)(C)C2O

>  <smiles>  (215) 
[H]OC1([H])C2(C([H])([H])[H])OC34N(C([H])([H])C([H])([H])C3([H])C1(C([H])([H])[H])C([H])([H])[H])C4([H])[N+]([H])(C([H])([H])C([H])([H])[H])C2([H])[H]

$$$$
56:1:2
     RDKit          3D

 43 46  0  0  1  0  0  0  0  0999 V2000
    3.6281   -0.4998    4.5877 C   0  0  0  0  0  0  0  0  0  0  0  0
    3.7850   -0.0352    3.1313 C   0  0  0  0  0  0  0  0  0  0  0  0
    3.8148   -1.1723    2.1815 N   0  0  2  0  0  0  0  0  0  0  0  0
    4.1478   -0.7320    0.7740 C   0  0  0  0  0  0  0  0  0  0  0  0
    4.1623   -1.9449   -0.2483 C   0  0  2  0  0  0  0  0  0  0  0  0
    3.8348   -1.4551   -1.6751 C   0  0  0  0  0  0  0  0  0  0  0  0
    3.0796   -2.8192    0.1026 O   0  0  0  0  0  0  0  0  0  0  0  0
    3.3209   -3.0900    1.4527 C   0  0  1  0  0  0  0  0  0  0  0  0
    2.5516   -1.9645    2.1631 C   0  0  1  0  0  0  0  0  0  0  0  0
    2.2364   -3.4245    2.2790 N   0  0  0  0  0  0  0  0  0  0  0  0
    2.8216   -4.1999    3.3704 C   0  0  0  0  0  0  0  0  0  0  0  0
    4.0628   -4.9024    2.7980 C   0  0  0  0  0  0  0  0  0  0  0  0
    4.5839   -3.8202    1.8757 C   0  0  1  0  0  0  0  0  0  0  0  0
    5.4471   -4.1176    0.6259 C   0  0  0  0  0  0  0  0  0  0  0  0
    6.8598   -4.5422    1.0728 C   0  0  0  0  0  0  0  0  0  0  0  0
    4.8312   -5.2538   -0.2275 C   0  0  0  0  0  0  0  0  0  0  0  0
    5.5245   -2.7586   -0.1704 C   0  0  1  0  0  0  0  0  0  0  0  0
    6.1341   -2.9411   -1.4369 O   0  0  0  0  0  0  0  0  0  0  0  0
    3.6490    0.3591    5.2601 H   0  0  0  0  0  0  0  0  0  0  0  0
    4.4364   -1.1722    4.8868 H   0  0  0  0  0  0  0  0  0  0  0  0
    2.6784   -1.0149    4.7447 H   0  0  0  0  0  0  0  0  0  0  0  0
    2.9856    0.6590    2.8641 H   0  0  0  0  0  0  0  0  0  0  0  0
    4.7216    0.5196    3.0467 H   0  0  0  0  0  0  0  0  0  0  0  0
    3.3833   -0.0135    0.4741 H   0  0  0  0  0  0  0  0  0  0  0  0
    5.0984   -0.1960    0.7470 H   0  0  0  0  0  0  0  0  0  0  0  0
    4.5907   -0.7667   -2.0569 H   0  0  0  0  0  0  0  0  0  0  0  0
    2.8811   -0.9319   -1.7020 H   0  0  0  0  0  0  0  0  0  0  0  0
    3.7438   -2.2889   -2.3693 H   0  0  0  0  0  0  0  0  0  0  0  0
    1.7920   -1.3966    1.6248 H   0  0  0  0  0  0  0  0  0  0  0  0
    3.0519   -3.5661    4.2286 H   0  0  0  0  0  0  0  0  0  0  0  0
    2.0988   -4.9463    3.6999 H   0  0  0  0  0  0  0  0  0  0  0  0
    4.7711   -5.1849    3.5784 H   0  0  0  0  0  0  0  0  0  0  0  0
    3.7772   -5.8027    2.2558 H   0  0  0  0  0  0  0  0  0  0  0  0
    5.1892   -3.1835    2.5209 H   0  0  0  0  0  0  0  0  0  0  0  0
    7.5041   -4.7329    0.2152 H   0  0  0  0  0  0  0  0  0  0  0  0
    6.8323   -5.4473    1.6793 H   0  0  0  0  0  0  0  0  0  0  0  0
    7.3372   -3.7670    1.6704 H   0  0  0  0  0  0  0  0  0  0  0  0
    5.4129   -5.4358   -1.1257 H   0  0  0  0  0  0  0  0  0  0  0  0
    3.8147   -5.0390   -0.5519 H   0  0  0  0  0  0  0  0  0  0  0  0
    4.8054   -6.2000    0.3131 H   0  0  0  0  0  0  0  0  0  0  0  0
    6.2343   -2.1193    0.3598 H   0  0  0  0  0  0  0  0  0  0  0  0
    5.6105   -3.5552   -1.9304 H   0  0  0  0  0  0  0  0  0  0  0  0
    4.5564   -1.7838    2.4952 H   0  0  0  0  0  0  0  0  0  0  0  0
  1  2  1  0
  1 19  1  0
  1 20  1  0
  1 21  1  0
  2  3  1  0
  2 22  1  0
  2 23  1  0
  3  9  1  0
  3  4  1  0
  3 43  1  1
  4  5  1  0
  4 24  1  0
  4 25  1  0
  5 17  1  0
  5  6  1  6
  5  7  1  0
  6 26  1  0
  6 27  1  0
  6 28  1  0
  8  7  1  6
  8 10  1  0
  8 13  1  0
  8  9  1  0
  9 10  1  0
  9 29  1  6
 10 11  1  0
 11 12  1  0
 11 30  1  0
 11 31  1  0
 12 13  1  0
 12 32  1  0
 12 33  1  0
 13 14  1  0
 13 34  1  1
 14 15  1  0
 14 16  1  0
 14 17  1  0
 15 35  1  0
 15 36  1  0
 15 37  1  0
 16 38  1  0
 16 39  1  0
 16 40  1  0
 17 18  1  0
 17 41  1  1
 18 42  1  0
M  CHG  1   3   1
M  END
>  <i_m_ct_stereo_status>  (216) 
1

>  <s_m_source_file>  (216) 
/var/tmp/pbs.5076255.sched01/tmpck0ladl8/45htcshi4i.sdf

>  <i_m_source_file_index>  (216) 
39

>  <i_lp_mmshare_version>  (216) 
48012

>  <i_f3d_flags>  (216) 
0

>  <s_epik_input>  (216) 
W0NIM11bQ0gyXU4xW0NIMl1bQ0BAXShPMikoW0NIM10pW0NASF0oW09IXSlDKFtDSDNdKShbQ0gzXSlbQ0BASF0zW0NIMl1bQ0gyXU40W0NAQEhdMVtDQEBdMjM0

>  <s_epik_cmdline>  (216) 
J2VwaWtfcHl0aG9uJywgJy1waHQnLCAnMi4wJywgJy1waCcsICc3LjAnLCAnLXRuJywgJzgnLCAnLW1hJywgJzIwMCcsICctaW1hZScsICc8aW5maWxlLm1hZT4nLCAnLW9tYWUnLCAnPG91dGZpbGUubWFlPic=

>  <r_epik_Ionization_Penalty>  (216) 
0.433178

>  <r_epik_Ionization_Penalty_Charging>  (216) 
0.433177

>  <r_epik_Ionization_Penalty_Neutral>  (216) 
9.52205e-07

>  <r_epik_State_Penalty>  (216) 
0.435465

>  <r_epik_Charging_Adjusted_Penalty>  (216) 
0.868642

>  <i_epik_Tot_Q>  (216) 
1

>  <i_epik_Tot_abs_Q>  (216) 
1

>  <s_epik_Chemistry_Notes>  (216) 
This compound contains an acetal/aminal-like group ( X-CH(R)-Y where X, Y are N, S, or O) that may be acid/base labile, releasing an aldehyde.

>  <s_lp_Force_Field>  (216) 
OPLS3e

>  <r_lp_Energy>  (216) 
128.982

>  <b_lp_Chiralities_Consistent>  (216) 
1

>  <s_lp_Variant>  (216) 
56:0-2

>  <s_i_glide_gridfile>  (216) 
pfpi4k_grid

>  <i_i_glide_lignum>  (216) 
39

>  <i_i_glide_rotatable_bonds>  (216) 
2

>  <r_i_docking_score>  (216) 
-3.20611

>  <r_i_glide_ligand_efficiency>  (216) 
-0.178117

>  <r_i_glide_ligand_efficiency_sa>  (216) 
-0.466799

>  <r_i_glide_ligand_efficiency_ln>  (216) 
-0.824113

>  <r_i_glide_gscore>  (216) 
-3.20611

>  <r_i_glide_lipo>  (216) 
-0.279851

>  <r_i_glide_hbond>  (216) 
0

>  <r_i_glide_metal>  (216) 
-0

>  <r_i_glide_rewards>  (216) 
-1.68163

>  <r_i_glide_evdw>  (216) 
-18.1424

>  <r_i_glide_ecoul>  (216) 
-2.10543

>  <r_i_glide_erotb>  (216) 
0

>  <r_i_glide_esite>  (216) 
-0.0216883

>  <r_i_glide_emodel>  (216) 
-24.929

>  <r_i_glide_energy>  (216) 
-20.2478

>  <r_i_glide_einternal>  (216) 
0.0349279

>  <r_i_glide_intrahb_reward>  (216) 
-0

>  <i_i_glide_confnum>  (216) 
2

>  <i_i_glide_posenum>  (216) 
1

>  <r_i_glide_eff_state_penalty>  (216) 
0

>  <ligand_id>  (216) 
56

>  <original_smiles>  (216) 
CCN1CC2(C)OC34C1N3CCC4C(C)(C)C2O

>  <smiles>  (216) 
[H]OC1([H])C2(C([H])([H])[H])OC34N(C([H])([H])C([H])([H])C3([H])C1(C([H])([H])[H])C([H])([H])[H])C4([H])[N+]([H])(C([H])([H])C([H])([H])[H])C2([H])[H]

$$$$
57:1:0
     RDKit          3D

 64 70  0  0  1  0  0  0  0  0999 V2000
    1.7193  -11.6718    4.2751 C   0  0  0  0  0  0  0  0  0  0  0  0
    2.0068  -10.3831    5.0816 C   0  0  0  0  0  0  0  0  0  0  0  0
    3.4536   -9.7834    4.9880 C   0  0  2  0  0  0  0  0  0  0  0  0
    3.8104   -9.0085    6.2620 C   0  0  0  0  0  0  0  0  0  0  0  0
    4.2353   -7.6202    5.8070 C   0  0  0  0  0  0  0  0  0  0  0  0
    3.5911   -7.3344    4.4163 C   0  0  1  0  0  0  0  0  0  0  0  0
    1.9678   -7.0059    4.6012 C   0  0  0  0  0  0  0  0  0  0  0  0
    1.8145   -5.9442    5.5248 C   0  0  0  0  0  0  0  0  0  0  0  0
    0.5172   -5.6232    5.9191 C   0  0  0  0  0  0  0  0  0  0  0  0
   -0.5845   -6.2519    5.2998 C   0  0  0  0  0  0  0  0  0  0  0  0
   -0.4078   -6.9186    4.0581 C   0  0  0  0  0  0  0  0  0  0  0  0
   -1.5183   -7.1996    3.3054 O   0  0  0  0  0  0  0  0  0  0  0  0
   -1.4334   -8.3440    2.4579 C   0  0  0  0  0  0  0  0  0  0  0  0
    0.8979   -7.0021    3.5282 C   0  0  0  0  0  0  0  0  0  0  0  0
    1.0506   -6.5267    2.1030 O   0  0  0  0  0  0  0  0  0  0  0  0
    2.1528   -5.4703    1.4237 C   0  0  1  0  0  0  0  0  0  0  0  0
    3.8022   -5.3953    1.0538 C   0  0  0  0  0  0  0  0  0  0  0  0
    4.1371   -4.6784   -0.0269 C   0  0  0  0  0  0  0  0  0  0  0  0
    5.5711   -4.2988   -0.3654 C   0  0  0  0  0  0  0  0  0  0  0  0
    6.5389   -4.8461    0.5217 O   0  0  0  0  0  0  0  0  0  0  0  0
    6.1942   -4.8299    1.8984 C   0  0  0  0  0  0  0  0  0  0  0  0
    5.0474   -5.8556    2.0733 C   0  0  1  0  0  0  0  0  0  0  0  0
    4.5594   -6.1393    3.6612 C   0  0  1  0  0  0  0  0  0  0  0  0
    3.5479   -5.1083    3.6643 C   0  0  2  0  0  0  0  0  0  0  0  0
    2.8758   -4.8977    5.1142 C   0  0  0  0  0  0  0  0  0  0  0  0
    2.7830   -5.9173    2.5025 C   0  0  2  0  0  0  0  0  0  0  0  0
    3.0260   -7.6173    1.8831 C   0  0  0  0  0  0  0  0  0  0  0  0
    2.9514   -8.8809    2.6647 N   0  0  1  0  0  0  0  0  0  0  0  0
    3.3167  -10.0467    1.8237 C   0  0  0  0  0  0  0  0  0  0  0  0
    3.7573   -8.7473    3.8596 C   0  0  2  0  0  0  0  0  0  0  0  0
    0.7250  -12.0609    4.5060 H   0  0  0  0  0  0  0  0  0  0  0  0
    2.4638  -12.4414    4.5056 H   0  0  0  0  0  0  0  0  0  0  0  0
    1.6832  -11.4955    3.1999 H   0  0  0  0  0  0  0  0  0  0  0  0
    1.2713   -9.6174    4.8365 H   0  0  0  0  0  0  0  0  0  0  0  0
    1.8173  -10.6401    6.1269 H   0  0  0  0  0  0  0  0  0  0  0  0
    4.1580  -10.6110    4.9062 H   0  0  0  0  0  0  0  0  0  0  0  0
    2.9723   -8.9329    6.9492 H   0  0  0  0  0  0  0  0  0  0  0  0
    4.6050   -9.4890    6.8283 H   0  0  0  0  0  0  0  0  0  0  0  0
    4.0217   -6.8827    6.5728 H   0  0  0  0  0  0  0  0  0  0  0  0
    5.3195   -7.6319    5.7082 H   0  0  0  0  0  0  0  0  0  0  0  0
    0.3327   -4.8385    6.6505 H   0  0  0  0  0  0  0  0  0  0  0  0
   -1.5795   -6.0783    5.6394 H   0  0  0  0  0  0  0  0  0  0  0  0
   -2.3068   -8.4130    1.8168 H   0  0  0  0  0  0  0  0  0  0  0  0
   -1.4052   -9.2419    3.0663 H   0  0  0  0  0  0  0  0  0  0  0  0
   -0.5701   -8.3591    1.7991 H   0  0  0  0  0  0  0  0  0  0  0  0
    1.7961   -4.4444    1.4112 H   0  0  0  0  0  0  0  0  0  0  0  0
    3.3777   -4.2636   -0.6679 H   0  0  0  0  0  0  0  0  0  0  0  0
    5.7807   -4.6403   -1.3691 H   0  0  0  0  0  0  0  0  0  0  0  0
    5.6547   -3.2177   -0.3954 H   0  0  0  0  0  0  0  0  0  0  0  0
    7.0596   -5.1343    2.4742 H   0  0  0  0  0  0  0  0  0  0  0  0
    5.9114   -3.8295    2.2211 H   0  0  0  0  0  0  0  0  0  0  0  0
    5.5410   -6.7630    1.7106 H   0  0  0  0  0  0  0  0  0  0  0  0
    5.3797   -5.8782    4.3188 H   0  0  0  0  0  0  0  0  0  0  0  0
    3.9508   -4.1488    3.3376 H   0  0  0  0  0  0  0  0  0  0  0  0
    2.3980   -3.9170    5.1078 H   0  0  0  0  0  0  0  0  0  0  0  0
    3.6383   -4.8111    5.8818 H   0  0  0  0  0  0  0  0  0  0  0  0
    2.0735   -5.2149    3.0367 H   0  0  0  0  0  0  0  0  0  0  0  0
    2.3799   -7.8474    1.0303 H   0  0  0  0  0  0  0  0  0  0  0  0
    3.9349   -7.7925    1.3025 H   0  0  0  0  0  0  0  0  0  0  0  0
    4.2761   -9.8989    1.3079 H   0  0  0  0  0  0  0  0  0  0  0  0
    2.5576  -10.2250    1.0604 H   0  0  0  0  0  0  0  0  0  0  0  0
    3.4698  -10.9811    2.3647 H   0  0  0  0  0  0  0  0  0  0  0  0
    4.8069   -8.8694    3.5656 H   0  0  0  0  0  0  0  0  0  0  0  0
    1.9771   -8.9721    2.9862 H   0  0  0  0  0  0  0  0  0  0  0  0
  1  2  1  0
  1 31  1  0
  1 32  1  0
  1 33  1  0
  2  3  1  0
  2 34  1  0
  2 35  1  0
  3 30  1  0
  3  4  1  0
  3 36  1  6
  4  5  1  0
  4 37  1  0
  4 38  1  0
  6  5  1  1
  5 39  1  0
  5 40  1  0
  6 23  1  0
  6 30  1  0
  6  7  1  0
  7 14  2  0
  7  8  1  0
  8 25  1  0
  8  9  2  0
  9 10  1  0
  9 41  1  0
 10 11  2  0
 10 42  1  0
 11 12  1  0
 11 14  1  0
 12 13  1  0
 13 43  1  0
 13 44  1  0
 13 45  1  0
 14 15  1  0
 15 16  1  0
 16 26  1  0
 16 17  1  0
 16 46  1  1
 17 22  1  0
 17 18  2  0
 18 19  1  0
 18 47  1  0
 19 20  1  0
 19 48  1  0
 19 49  1  0
 20 21  1  0
 21 22  1  0
 21 50  1  0
 21 51  1  0
 22 23  1  0
 22 52  1  6
 23 24  1  0
 23 53  1  1
 24 25  1  0
 24 26  1  0
 24 54  1  6
 25 55  1  0
 25 56  1  0
 26 27  1  0
 26 57  1  1
 27 28  1  0
 27 58  1  0
 27 59  1  0
 28 29  1  0
 28 30  1  0
 28 64  1  1
 29 60  1  0
 29 61  1  0
 29 62  1  0
 30 63  1  6
M  CHG  1  28   1
M  END
>  <i_m_ct_stereo_status>  (217) 
1

>  <s_m_source_file>  (217) 
/var/tmp/pbs.5076255.sched01/tmpck0ladl8/45htcshi4i.sdf

>  <i_m_source_file_index>  (217) 
41

>  <i_lp_mmshare_version>  (217) 
48012

>  <i_f3d_flags>  (217) 
0

>  <s_epik_input>  (217) 
W0NIM11bQ0gyXVtDQEhdKFtDSDJdW0NIMl0xKVtDQEhdMk4oW0NIM10pW0NIMl1bQ0BASF0zW0NAQEhdKFtDSDJdNClbQ0BASF01W0NASF0oW0NIMl1PW0NIMl1bQ0hdNilDPTZbQ0BASF0zT2M3YyhPW0NIM10pW2NIXVtjSF1jNGM3W0NAQF0xMjU=

>  <s_epik_cmdline>  (217) 
J2VwaWtfcHl0aG9uJywgJy1waHQnLCAnMi4wJywgJy1waCcsICc3LjAnLCAnLXRuJywgJzgnLCAnLW1hJywgJzIwMCcsICctaW1hZScsICc8aW5maWxlLm1hZT4nLCAnLW9tYWUnLCAnPG91dGZpbGUubWFlPic=

>  <r_lp_tautomer_probability>  (217) 
1

>  <r_epik_Ionization_Penalty>  (217) 
0.00605371

>  <r_epik_Ionization_Penalty_Charging>  (217) 
0.00605371

>  <r_epik_Ionization_Penalty_Neutral>  (217) 
7.21729e-13

>  <r_epik_State_Penalty>  (217) 
0.00445884

>  <r_epik_Charging_Adjusted_Penalty>  (217) 
0.0105126

>  <i_epik_Tot_Q>  (217) 
1

>  <i_epik_Tot_abs_Q>  (217) 
1

>  <s_lp_Force_Field>  (217) 
OPLS3e

>  <r_lp_Energy>  (217) 
588.465

>  <b_lp_Chiralities_Consistent>  (217) 
1

>  <s_lp_Variant>  (217) 
57:0-2

>  <s_i_glide_gridfile>  (217) 
pfpi4k_grid

>  <i_i_glide_lignum>  (217) 
41

>  <i_i_glide_rotatable_bonds>  (217) 
2

>  <r_i_docking_score>  (217) 
-2.61589

>  <r_i_glide_ligand_efficiency>  (217) 
-0.0871964

>  <r_i_glide_ligand_efficiency_sa>  (217) 
-0.27094

>  <r_i_glide_ligand_efficiency_ln>  (217) 
-0.594359

>  <r_i_glide_gscore>  (217) 
-2.61589

>  <r_i_glide_lipo>  (217) 
-0.171081

>  <r_i_glide_hbond>  (217) 
-0.0844116

>  <r_i_glide_metal>  (217) 
-0

>  <r_i_glide_rewards>  (217) 
-0.623502

>  <r_i_glide_evdw>  (217) 
-21.4812

>  <r_i_glide_ecoul>  (217) 
-4.34205

>  <r_i_glide_erotb>  (217) 
0

>  <r_i_glide_esite>  (217) 
-0.0115325

>  <r_i_glide_emodel>  (217) 
-28.3052

>  <r_i_glide_energy>  (217) 
-25.8232

>  <r_i_glide_einternal>  (217) 
4.65457

>  <r_i_glide_intrahb_reward>  (217) 
-0

>  <i_i_glide_confnum>  (217) 
1

>  <i_i_glide_posenum>  (217) 
14

>  <r_i_glide_eff_state_penalty>  (217) 
0

>  <ligand_id>  (217) 
57

>  <original_smiles>  (217) 
CCC1CCC23c4c5ccc(OC)c4OC4C6=CCOCC6C2C(C5)C4CN(C)C13

>  <smiles>  (217) 
[H]C1=C2C3([H])Oc4c(OC([H])([H])[H])c([H])c([H])c5c4C46C([H])([H])C([H])([H])C([H])(C([H])([H])C([H])([H])[H])C4([H])[N+]([H])(C([H])([H])[H])C([H])([H])C3([H])C([H])(C5([H])[H])C6([H])C2([H])C([H])([H])OC1([H])[H]

$$$$
57:1:1
     RDKit          3D

 64 70  0  0  1  0  0  0  0  0999 V2000
    2.6052  -10.0514    3.1055 C   0  0  0  0  0  0  0  0  0  0  0  0
    4.0337   -9.9576    2.5462 C   0  0  0  0  0  0  0  0  0  0  0  0
    4.9697   -8.8610    3.1704 C   0  0  2  0  0  0  0  0  0  0  0  0
    5.1433   -9.0266    4.6763 C   0  0  0  0  0  0  0  0  0  0  0  0
    4.8262   -7.6586    5.2768 C   0  0  0  0  0  0  0  0  0  0  0  0
    3.9376   -6.8351    4.2787 C   0  0  1  0  0  0  0  0  0  0  0  0
    2.3561   -7.3571    4.2867 C   0  0  0  0  0  0  0  0  0  0  0  0
    1.8756   -7.3426    5.6159 C   0  0  0  0  0  0  0  0  0  0  0  0
    0.6428   -7.9720    5.8799 C   0  0  0  0  0  0  0  0  0  0  0  0
   -0.1552   -8.4142    4.8113 C   0  0  0  0  0  0  0  0  0  0  0  0
    0.0894   -7.8891    3.4980 C   0  0  0  0  0  0  0  0  0  0  0  0
   -0.7883   -8.0015    2.4511 O   0  0  0  0  0  0  0  0  0  0  0  0
   -1.9371   -8.8162    2.6185 C   0  0  0  0  0  0  0  0  0  0  0  0
    1.2495   -7.0924    3.3187 C   0  0  0  0  0  0  0  0  0  0  0  0
    1.0309   -5.8161    2.5278 O   0  0  0  0  0  0  0  0  0  0  0  0
    1.4781   -4.2715    2.8853 C   0  0  1  0  0  0  0  0  0  0  0  0
    2.8804   -3.3183    2.9829 C   0  0  0  0  0  0  0  0  0  0  0  0
    2.7386   -2.0165    2.6690 C   0  0  0  0  0  0  0  0  0  0  0  0
    3.8092   -0.9761    2.9488 C   0  0  0  0  0  0  0  0  0  0  0  0
    5.0212   -1.5116    3.4792 O   0  0  0  0  0  0  0  0  0  0  0  0
    4.8708   -2.5304    4.4614 C   0  0  0  0  0  0  0  0  0  0  0  0
    4.3297   -3.7722    3.7109 C   0  0  1  0  0  0  0  0  0  0  0  0
    4.2044   -5.1763    4.6434 C   0  0  1  0  0  0  0  0  0  0  0  0
    2.8492   -4.9177    5.0880 C   0  0  2  0  0  0  0  0  0  0  0  0
    2.3314   -5.9842    6.1847 C   0  0  0  0  0  0  0  0  0  0  0  0
    2.3827   -4.9964    3.5457 C   0  0  2  0  0  0  0  0  0  0  0  0
    3.2587   -5.6220    2.0538 C   0  0  0  0  0  0  0  0  0  0  0  0
    3.8110   -6.9830    1.8736 N   0  0  1  0  0  0  0  0  0  0  0  0
    4.5176   -7.1520    0.5624 C   0  0  0  0  0  0  0  0  0  0  0  0
    4.6304   -7.3390    3.0073 C   0  0  2  0  0  0  0  0  0  0  0  0
    2.0199  -10.8809    2.7059 H   0  0  0  0  0  0  0  0  0  0  0  0
    2.1425   -9.1697    2.7223 H   0  0  0  0  0  0  0  0  0  0  0  0
    2.5729  -10.1046    4.2114 H   0  0  0  0  0  0  0  0  0  0  0  0
    4.5180  -10.9349    2.6403 H   0  0  0  0  0  0  0  0  0  0  0  0
    3.9302   -9.7832    1.4739 H   0  0  0  0  0  0  0  0  0  0  0  0
    5.9489   -9.0127    2.7044 H   0  0  0  0  0  0  0  0  0  0  0  0
    4.4877   -9.7801    5.0953 H   0  0  0  0  0  0  0  0  0  0  0  0
    6.1444   -9.3621    4.9425 H   0  0  0  0  0  0  0  0  0  0  0  0
    4.4106   -7.7643    6.2768 H   0  0  0  0  0  0  0  0  0  0  0  0
    5.7810   -7.1583    5.4082 H   0  0  0  0  0  0  0  0  0  0  0  0
    0.2439   -8.0255    6.8904 H   0  0  0  0  0  0  0  0  0  0  0  0
   -1.0283   -9.0021    5.0005 H   0  0  0  0  0  0  0  0  0  0  0  0
   -2.5269   -8.8460    1.7131 H   0  0  0  0  0  0  0  0  0  0  0  0
   -2.5823   -8.4035    3.3937 H   0  0  0  0  0  0  0  0  0  0  0  0
   -1.7048   -9.8522    2.8734 H   0  0  0  0  0  0  0  0  0  0  0  0
    0.6715   -3.7368    3.4145 H   0  0  0  0  0  0  0  0  0  0  0  0
    1.7935   -1.6593    2.2972 H   0  0  0  0  0  0  0  0  0  0  0  0
    4.0315   -0.4643    2.0176 H   0  0  0  0  0  0  0  0  0  0  0  0
    3.3982   -0.2342    3.6311 H   0  0  0  0  0  0  0  0  0  0  0  0
    5.8399   -2.7557    4.8915 H   0  0  0  0  0  0  0  0  0  0  0  0
    4.2119   -2.2127    5.2717 H   0  0  0  0  0  0  0  0  0  0  0  0
    5.1285   -3.9292    2.9708 H   0  0  0  0  0  0  0  0  0  0  0  0
    4.9089   -5.1006    5.4689 H   0  0  0  0  0  0  0  0  0  0  0  0
    2.7600   -3.9179    5.5276 H   0  0  0  0  0  0  0  0  0  0  0  0
    1.4734   -5.5450    6.7064 H   0  0  0  0  0  0  0  0  0  0  0  0
    3.0781   -6.1234    6.9716 H   0  0  0  0  0  0  0  0  0  0  0  0
    1.5318   -5.1323    4.2410 H   0  0  0  0  0  0  0  0  0  0  0  0
    2.6783   -5.4845    1.1314 H   0  0  0  0  0  0  0  0  0  0  0  0
    4.0952   -5.0088    1.6895 H   0  0  0  0  0  0  0  0  0  0  0  0
    5.3571   -6.4477    0.4599 H   0  0  0  0  0  0  0  0  0  0  0  0
    3.8495   -6.9638   -0.2788 H   0  0  0  0  0  0  0  0  0  0  0  0
    4.9325   -8.1481    0.4228 H   0  0  0  0  0  0  0  0  0  0  0  0
    5.5784   -6.7979    2.9184 H   0  0  0  0  0  0  0  0  0  0  0  0
    3.0179   -7.6503    1.8749 H   0  0  0  0  0  0  0  0  0  0  0  0
  1  2  1  0
  1 31  1  0
  1 32  1  0
  1 33  1  0
  2  3  1  0
  2 34  1  0
  2 35  1  0
  3 30  1  0
  3  4  1  0
  3 36  1  6
  4  5  1  0
  4 37  1  0
  4 38  1  0
  6  5  1  1
  5 39  1  0
  5 40  1  0
  6 23  1  0
  6 30  1  0
  6  7  1  0
  7 14  2  0
  7  8  1  0
  8 25  1  0
  8  9  2  0
  9 10  1  0
  9 41  1  0
 10 11  2  0
 10 42  1  0
 11 12  1  0
 11 14  1  0
 12 13  1  0
 13 43  1  0
 13 44  1  0
 13 45  1  0
 14 15  1  0
 15 16  1  0
 16 26  1  0
 16 17  1  0
 16 46  1  1
 17 22  1  0
 17 18  2  0
 18 19  1  0
 18 47  1  0
 19 20  1  0
 19 48  1  0
 19 49  1  0
 20 21  1  0
 21 22  1  0
 21 50  1  0
 21 51  1  0
 22 23  1  0
 22 52  1  6
 23 24  1  0
 23 53  1  1
 24 25  1  0
 24 26  1  0
 24 54  1  1
 25 55  1  0
 25 56  1  0
 26 27  1  0
 26 57  1  1
 27 28  1  0
 27 58  1  0
 27 59  1  0
 28 29  1  0
 28 30  1  0
 28 64  1  6
 29 60  1  0
 29 61  1  0
 29 62  1  0
 30 63  1  6
M  CHG  1  28   1
M  END
>  <i_m_ct_stereo_status>  (218) 
1

>  <s_m_source_file>  (218) 
/var/tmp/pbs.5076255.sched01/tmpck0ladl8/45htcshi4i.sdf

>  <i_m_source_file_index>  (218) 
41

>  <i_lp_mmshare_version>  (218) 
48012

>  <i_f3d_flags>  (218) 
0

>  <s_epik_input>  (218) 
W0NIM11bQ0gyXVtDQEhdKFtDSDJdW0NIMl0xKVtDQEhdMk4oW0NIM10pW0NIMl1bQ0BASF0zW0NAQEhdKFtDSDJdNClbQ0BASF01W0NASF0oW0NIMl1PW0NIMl1bQ0hdNilDPTZbQ0BASF0zT2M3YyhPW0NIM10pW2NIXVtjSF1jNGM3W0NAQF0xMjU=

>  <s_epik_cmdline>  (218) 
J2VwaWtfcHl0aG9uJywgJy1waHQnLCAnMi4wJywgJy1waCcsICc3LjAnLCAnLXRuJywgJzgnLCAnLW1hJywgJzIwMCcsICctaW1hZScsICc8aW5maWxlLm1hZT4nLCAnLW9tYWUnLCAnPG91dGZpbGUubWFlPic=

>  <r_lp_tautomer_probability>  (218) 
1

>  <r_epik_Ionization_Penalty>  (218) 
0.00605371

>  <r_epik_Ionization_Penalty_Charging>  (218) 
0.00605371

>  <r_epik_Ionization_Penalty_Neutral>  (218) 
7.21729e-13

>  <r_epik_State_Penalty>  (218) 
0.00445884

>  <r_epik_Charging_Adjusted_Penalty>  (218) 
0.0105126

>  <i_epik_Tot_Q>  (218) 
1

>  <i_epik_Tot_abs_Q>  (218) 
1

>  <s_lp_Force_Field>  (218) 
OPLS3e

>  <r_lp_Energy>  (218) 
588.465

>  <b_lp_Chiralities_Consistent>  (218) 
1

>  <s_lp_Variant>  (218) 
57:0-2

>  <s_i_glide_gridfile>  (218) 
pfpi4k_grid

>  <i_i_glide_lignum>  (218) 
41

>  <i_i_glide_rotatable_bonds>  (218) 
2

>  <r_i_docking_score>  (218) 
-2.51478

>  <r_i_glide_ligand_efficiency>  (218) 
-0.0838259

>  <r_i_glide_ligand_efficiency_sa>  (218) 
-0.260466

>  <r_i_glide_ligand_efficiency_ln>  (218) 
-0.571384

>  <r_i_glide_gscore>  (218) 
-2.51478

>  <r_i_glide_lipo>  (218) 
-0.30501

>  <r_i_glide_hbond>  (218) 
-0.00677972

>  <r_i_glide_metal>  (218) 
-0

>  <r_i_glide_rewards>  (218) 
-0.623502

>  <r_i_glide_evdw>  (218) 
-21.0026

>  <r_i_glide_ecoul>  (218) 
-3.52903

>  <r_i_glide_erotb>  (218) 
0

>  <r_i_glide_esite>  (218) 
0

>  <r_i_glide_emodel>  (218) 
-26.0785

>  <r_i_glide_energy>  (218) 
-24.5316

>  <r_i_glide_einternal>  (218) 
5.00563

>  <r_i_glide_intrahb_reward>  (218) 
-0

>  <i_i_glide_confnum>  (218) 
2

>  <i_i_glide_posenum>  (218) 
3

>  <r_i_glide_eff_state_penalty>  (218) 
0

>  <ligand_id>  (218) 
57

>  <original_smiles>  (218) 
CCC1CCC23c4c5ccc(OC)c4OC4C6=CCOCC6C2C(C5)C4CN(C)C13

>  <smiles>  (218) 
[H]C1=C2C3([H])Oc4c(OC([H])([H])[H])c([H])c([H])c5c4C46C([H])([H])C([H])([H])C([H])(C([H])([H])C([H])([H])[H])C4([H])[N+]([H])(C([H])([H])[H])C([H])([H])C3([H])C([H])(C5([H])[H])C6([H])C2([H])C([H])([H])OC1([H])[H]

$$$$
57:1:2
     RDKit          3D

 64 70  0  0  1  0  0  0  0  0999 V2000
    3.4798  -11.2829    3.8621 C   0  0  0  0  0  0  0  0  0  0  0  0
    3.3698   -9.9547    4.6493 C   0  0  0  0  0  0  0  0  0  0  0  0
    4.6095   -8.9920    4.6225 C   0  0  2  0  0  0  0  0  0  0  0  0
    4.6343   -8.0940    5.8622 C   0  0  0  0  0  0  0  0  0  0  0  0
    4.7164   -6.6645    5.3476 C   0  0  0  0  0  0  0  0  0  0  0  0
    4.1398   -6.6196    3.8989 C   0  0  1  0  0  0  0  0  0  0  0  0
    2.4741   -6.7294    3.9363 C   0  0  0  0  0  0  0  0  0  0  0  0
    1.9687   -5.7107    4.7778 C   0  0  0  0  0  0  0  0  0  0  0  0
    0.6045   -5.7398    5.0701 C   0  0  0  0  0  0  0  0  0  0  0  0
   -0.2411   -6.6766    4.4310 C   0  0  0  0  0  0  0  0  0  0  0  0
    0.1959   -7.2796    3.2129 C   0  0  0  0  0  0  0  0  0  0  0  0
   -0.6563   -7.8779    2.3140 O   0  0  0  0  0  0  0  0  0  0  0  0
   -1.9360   -8.3021    2.7827 C   0  0  0  0  0  0  0  0  0  0  0  0
    1.5312   -7.0485    2.7929 C   0  0  0  0  0  0  0  0  0  0  0  0
    1.6982   -6.6396    1.3497 O   0  0  0  0  0  0  0  0  0  0  0  0
    2.5359   -5.3566    0.6832 C   0  0  1  0  0  0  0  0  0  0  0  0
    4.1364   -4.8487    0.4368 C   0  0  0  0  0  0  0  0  0  0  0  0
    4.3759   -4.1182   -0.6645 C   0  0  0  0  0  0  0  0  0  0  0  0
    5.6849   -3.3872   -0.9188 C   0  0  0  0  0  0  0  0  0  0  0  0
    6.6759   -3.6100    0.0753 O   0  0  0  0  0  0  0  0  0  0  0  0
    6.2071   -3.6270    1.4138 C   0  0  0  0  0  0  0  0  0  0  0  0
    5.3633   -4.9118    1.5742 C   0  0  1  0  0  0  0  0  0  0  0  0
    4.8300   -5.2486    3.1389 C   0  0  1  0  0  0  0  0  0  0  0  0
    3.5855   -4.5272    2.9965 C   0  0  2  0  0  0  0  0  0  0  0  0
    2.7565   -4.4391    4.3764 C   0  0  0  0  0  0  0  0  0  0  0  0
    3.1647   -5.5592    1.8397 C   0  0  2  0  0  0  0  0  0  0  0  0
    3.9088   -7.1572    1.3546 C   0  0  0  0  0  0  0  0  0  0  0  0
    4.0983   -8.3594    2.2116 N   0  0  1  0  0  0  0  0  0  0  0  0
    4.8399   -9.4189    1.4641 C   0  0  0  0  0  0  0  0  0  0  0  0
    4.7273   -7.9621    3.4500 C   0  0  2  0  0  0  0  0  0  0  0  0
    2.6114  -11.9202    4.0463 H   0  0  0  0  0  0  0  0  0  0  0  0
    4.3889  -11.8236    4.1440 H   0  0  0  0  0  0  0  0  0  0  0  0
    3.4492  -11.1289    2.7861 H   0  0  0  0  0  0  0  0  0  0  0  0
    2.4779   -9.4105    4.3345 H   0  0  0  0  0  0  0  0  0  0  0  0
    3.1841  -10.2344    5.6941 H   0  0  0  0  0  0  0  0  0  0  0  0
    5.5119   -9.6031    4.6437 H   0  0  0  0  0  0  0  0  0  0  0  0
    3.7482   -8.2157    6.4763 H   0  0  0  0  0  0  0  0  0  0  0  0
    5.4729   -8.3173    6.5155 H   0  0  0  0  0  0  0  0  0  0  0  0
    4.2511   -5.9781    6.0439 H   0  0  0  0  0  0  0  0  0  0  0  0
    5.7685   -6.3903    5.3298 H   0  0  0  0  0  0  0  0  0  0  0  0
    0.1654   -4.9819    5.7215 H   0  0  0  0  0  0  0  0  0  0  0  0
   -1.2677   -6.7363    4.7264 H   0  0  0  0  0  0  0  0  0  0  0  0
   -2.4542   -8.8244    1.9823 H   0  0  0  0  0  0  0  0  0  0  0  0
   -2.5735   -7.4656    3.0700 H   0  0  0  0  0  0  0  0  0  0  0  0
   -1.8631   -8.9984    3.6201 H   0  0  0  0  0  0  0  0  0  0  0  0
    1.8997   -4.4783    0.5678 H   0  0  0  0  0  0  0  0  0  0  0  0
    3.5922   -3.9481   -1.3813 H   0  0  0  0  0  0  0  0  0  0  0  0
    6.0771   -3.7020   -1.8775 H   0  0  0  0  0  0  0  0  0  0  0  0
    5.4839   -2.3250   -1.0118 H   0  0  0  0  0  0  0  0  0  0  0  0
    7.0598   -3.6749    2.0717 H   0  0  0  0  0  0  0  0  0  0  0  0
    5.6513   -2.7233    1.6530 H   0  0  0  0  0  0  0  0  0  0  0  0
    6.1113   -5.6673    1.3125 H   0  0  0  0  0  0  0  0  0  0  0  0
    5.4920   -4.7484    3.8354 H   0  0  0  0  0  0  0  0  0  0  0  0
    3.7540   -3.5073    2.6386 H   0  0  0  0  0  0  0  0  0  0  0  0
    2.0445   -3.6203    4.2689 H   0  0  0  0  0  0  0  0  0  0  0  0
    3.3995   -4.1173    5.1901 H   0  0  0  0  0  0  0  0  0  0  0  0
    2.2527   -5.0499    2.2619 H   0  0  0  0  0  0  0  0  0  0  0  0
    3.4456   -7.5798    0.4752 H   0  0  0  0  0  0  0  0  0  0  0  0
    4.8781   -7.1051    0.8611 H   0  0  0  0  0  0  0  0  0  0  0  0
    5.7695   -9.0483    1.0191 H   0  0  0  0  0  0  0  0  0  0  0  0
    4.2150   -9.8174    0.6661 H   0  0  0  0  0  0  0  0  0  0  0  0
    5.1739  -10.2605    2.0687 H   0  0  0  0  0  0  0  0  0  0  0  0
    5.7951   -7.8109    3.2463 H   0  0  0  0  0  0  0  0  0  0  0  0
    3.1588   -8.6948    2.4587 H   0  0  0  0  0  0  0  0  0  0  0  0
  1  2  1  0
  1 31  1  0
  1 32  1  0
  1 33  1  0
  2  3  1  0
  2 34  1  0
  2 35  1  0
  3 30  1  0
  3  4  1  0
  3 36  1  1
  4  5  1  0
  4 37  1  0
  4 38  1  0
  6  5  1  1
  5 39  1  0
  5 40  1  0
  6 23  1  0
  6 30  1  0
  6  7  1  0
  7 14  2  0
  7  8  1  0
  8 25  1  0
  8  9  2  0
  9 10  1  0
  9 41  1  0
 10 11  2  0
 10 42  1  0
 11 12  1  0
 11 14  1  0
 12 13  1  0
 13 43  1  0
 13 44  1  0
 13 45  1  0
 14 15  1  0
 15 16  1  0
 16 26  1  0
 16 17  1  0
 16 46  1  1
 17 22  1  0
 17 18  2  0
 18 19  1  0
 18 47  1  0
 19 20  1  0
 19 48  1  0
 19 49  1  0
 20 21  1  0
 21 22  1  0
 21 50  1  0
 21 51  1  0
 22 23  1  0
 22 52  1  6
 23 24  1  0
 23 53  1  1
 24 25  1  0
 24 26  1  0
 24 54  1  6
 25 55  1  0
 25 56  1  0
 26 27  1  0
 26 57  1  1
 27 28  1  0
 27 58  1  0
 27 59  1  0
 28 29  1  0
 28 30  1  0
 28 64  1  1
 29 60  1  0
 29 61  1  0
 29 62  1  0
 30 63  1  6
M  CHG  1  28   1
M  END
>  <i_m_ct_stereo_status>  (219) 
1

>  <s_m_source_file>  (219) 
/var/tmp/pbs.5076255.sched01/tmpck0ladl8/45htcshi4i.sdf

>  <i_m_source_file_index>  (219) 
41

>  <i_lp_mmshare_version>  (219) 
48012

>  <i_f3d_flags>  (219) 
0

>  <s_epik_input>  (219) 
W0NIM11bQ0gyXVtDQEhdKFtDSDJdW0NIMl0xKVtDQEhdMk4oW0NIM10pW0NIMl1bQ0BASF0zW0NAQEhdKFtDSDJdNClbQ0BASF01W0NASF0oW0NIMl1PW0NIMl1bQ0hdNilDPTZbQ0BASF0zT2M3YyhPW0NIM10pW2NIXVtjSF1jNGM3W0NAQF0xMjU=

>  <s_epik_cmdline>  (219) 
J2VwaWtfcHl0aG9uJywgJy1waHQnLCAnMi4wJywgJy1waCcsICc3LjAnLCAnLXRuJywgJzgnLCAnLW1hJywgJzIwMCcsICctaW1hZScsICc8aW5maWxlLm1hZT4nLCAnLW9tYWUnLCAnPG91dGZpbGUubWFlPic=

>  <r_lp_tautomer_probability>  (219) 
1

>  <r_epik_Ionization_Penalty>  (219) 
0.00605371

>  <r_epik_Ionization_Penalty_Charging>  (219) 
0.00605371

>  <r_epik_Ionization_Penalty_Neutral>  (219) 
7.21729e-13

>  <r_epik_State_Penalty>  (219) 
0.00445884

>  <r_epik_Charging_Adjusted_Penalty>  (219) 
0.0105126

>  <i_epik_Tot_Q>  (219) 
1

>  <i_epik_Tot_abs_Q>  (219) 
1

>  <s_lp_Force_Field>  (219) 
OPLS3e

>  <r_lp_Energy>  (219) 
588.465

>  <b_lp_Chiralities_Consistent>  (219) 
1

>  <s_lp_Variant>  (219) 
57:0-2

>  <s_i_glide_gridfile>  (219) 
pfpi4k_grid

>  <i_i_glide_lignum>  (219) 
41

>  <i_i_glide_rotatable_bonds>  (219) 
2

>  <r_i_docking_score>  (219) 
-2.46986

>  <r_i_glide_ligand_efficiency>  (219) 
-0.0823288

>  <r_i_glide_ligand_efficiency_sa>  (219) 
-0.255815

>  <r_i_glide_ligand_efficiency_ln>  (219) 
-0.56118

>  <r_i_glide_gscore>  (219) 
-2.46986

>  <r_i_glide_lipo>  (219) 
-0.359411

>  <r_i_glide_hbond>  (219) 
0

>  <r_i_glide_metal>  (219) 
-0

>  <r_i_glide_rewards>  (219) 
-0.623502

>  <r_i_glide_evdw>  (219) 
-22.6203

>  <r_i_glide_ecoul>  (219) 
-2.32403

>  <r_i_glide_erotb>  (219) 
0

>  <r_i_glide_esite>  (219) 
-0.00733224

>  <r_i_glide_emodel>  (219) 
-28.5892

>  <r_i_glide_energy>  (219) 
-24.9443

>  <r_i_glide_einternal>  (219) 
1.69324

>  <r_i_glide_intrahb_reward>  (219) 
-0

>  <i_i_glide_confnum>  (219) 
1

>  <i_i_glide_posenum>  (219) 
16

>  <r_i_glide_eff_state_penalty>  (219) 
0

>  <ligand_id>  (219) 
57

>  <original_smiles>  (219) 
CCC1CCC23c4c5ccc(OC)c4OC4C6=CCOCC6C2C(C5)C4CN(C)C13

>  <smiles>  (219) 
[H]C1=C2C3([H])Oc4c(OC([H])([H])[H])c([H])c([H])c5c4C46C([H])([H])C([H])([H])C([H])(C([H])([H])C([H])([H])[H])C4([H])[N+]([H])(C([H])([H])[H])C([H])([H])C3([H])C([H])(C5([H])[H])C6([H])C2([H])C([H])([H])OC1([H])[H]

$$$$
57:2:0
     RDKit          3D

 64 70  0  0  1  0  0  0  0  0999 V2000
    0.2602   -8.8614    9.5988 C   0  0  0  0  0  0  0  0  0  0  0  0
    0.9742   -9.1651    8.2686 C   0  0  0  0  0  0  0  0  0  0  0  0
    2.5117   -8.9941    8.3220 C   0  0  2  0  0  0  0  0  0  0  0  0
    2.9333   -7.5869    8.7510 C   0  0  0  0  0  0  0  0  0  0  0  0
    3.9548   -7.1389    7.7086 C   0  0  0  0  0  0  0  0  0  0  0  0
    3.5621   -7.8010    6.3388 C   0  0  1  0  0  0  0  0  0  0  0  0
    2.1752   -7.0010    5.7063 C   0  0  0  0  0  0  0  0  0  0  0  0
    2.4394   -5.6583    5.8965 C   0  0  0  0  0  0  0  0  0  0  0  0
    1.3685   -4.7660    5.6684 C   0  0  0  0  0  0  0  0  0  0  0  0
    0.2509   -5.2031    4.9313 C   0  0  0  0  0  0  0  0  0  0  0  0
    0.3581   -6.4013    4.1980 C   0  0  0  0  0  0  0  0  0  0  0  0
   -0.5642   -6.6541    3.2073 O   0  0  0  0  0  0  0  0  0  0  0  0
   -0.8026   -8.0194    2.8789 C   0  0  0  0  0  0  0  0  0  0  0  0
    1.5457   -7.1568    4.3437 C   0  0  0  0  0  0  0  0  0  0  0  0
    2.2293   -7.5110    3.0779 O   0  0  0  0  0  0  0  0  0  0  0  0
    3.2626   -8.6051    2.7743 C   0  0  1  0  0  0  0  0  0  0  0  0
    4.8848   -8.5351    2.6278 C   0  0  0  0  0  0  0  0  0  0  0  0
    5.5157   -8.4822    1.4474 C   0  0  0  0  0  0  0  0  0  0  0  0
    7.0249   -8.3389    1.3435 C   0  0  0  0  0  0  0  0  0  0  0  0
    7.6897   -8.5417    2.5934 O   0  0  0  0  0  0  0  0  0  0  0  0
    7.1491   -7.8194    3.6936 C   0  0  0  0  0  0  0  0  0  0  0  0
    5.7784   -8.4370    4.0483 C   0  0  1  0  0  0  0  0  0  0  0  0
    5.0146   -7.7088    5.4005 C   0  0  1  0  0  0  0  0  0  0  0  0
    4.1835   -7.1360    4.4739 C   0  0  2  0  0  0  0  0  0  0  0  0
    3.6477   -5.6593    4.9558 C   0  0  0  0  0  0  0  0  0  0  0  0
    3.3906   -8.7808    4.1239 C   0  0  1  0  0  0  0  0  0  0  0  0
    2.2885   -9.7400    4.7957 C   0  0  0  0  0  0  0  0  0  0  0  0
    2.6720  -10.2461    6.1276 N   0  0  1  0  0  0  0  0  0  0  0  0
    3.4340  -11.5215    6.0924 C   0  0  0  0  0  0  0  0  0  0  0  0
    3.2762   -9.2021    6.9864 C   0  0  2  0  0  0  0  0  0  0  0  0
   -0.8067   -9.0502    9.5067 H   0  0  0  0  0  0  0  0  0  0  0  0
    0.3686   -7.8203    9.8993 H   0  0  0  0  0  0  0  0  0  0  0  0
    0.6370   -9.4854   10.4098 H   0  0  0  0  0  0  0  0  0  0  0  0
    0.7361  -10.1965    8.0079 H   0  0  0  0  0  0  0  0  0  0  0  0
    0.5490   -8.5429    7.4820 H   0  0  0  0  0  0  0  0  0  0  0  0
    2.8963   -9.7107    9.0474 H   0  0  0  0  0  0  0  0  0  0  0  0
    2.0917   -6.8931    8.7521 H   0  0  0  0  0  0  0  0  0  0  0  0
    3.3573   -7.5738    9.7563 H   0  0  0  0  0  0  0  0  0  0  0  0
    4.0612   -6.0540    7.7046 H   0  0  0  0  0  0  0  0  0  0  0  0
    4.9329   -7.5045    8.0263 H   0  0  0  0  0  0  0  0  0  0  0  0
    1.4517   -3.7226    5.9556 H   0  0  0  0  0  0  0  0  0  0  0  0
   -0.5780   -4.5372    4.7732 H   0  0  0  0  0  0  0  0  0  0  0  0
   -1.4375   -8.0777    1.9915 H   0  0  0  0  0  0  0  0  0  0  0  0
   -1.3291   -8.4925    3.7080 H   0  0  0  0  0  0  0  0  0  0  0  0
    0.0929   -8.5996    2.6599 H   0  0  0  0  0  0  0  0  0  0  0  0
    2.8327   -9.4599    2.2490 H   0  0  0  0  0  0  0  0  0  0  0  0
    4.9599   -8.4958    0.5217 H   0  0  0  0  0  0  0  0  0  0  0  0
    7.3956   -9.0759    0.6329 H   0  0  0  0  0  0  0  0  0  0  0  0
    7.2767   -7.3591    0.9347 H   0  0  0  0  0  0  0  0  0  0  0  0
    7.8339   -7.9192    4.5346 H   0  0  0  0  0  0  0  0  0  0  0  0
    7.0756   -6.7564    3.4544 H   0  0  0  0  0  0  0  0  0  0  0  0
    6.0318   -9.4606    4.3398 H   0  0  0  0  0  0  0  0  0  0  0  0
    5.7022   -6.9778    5.8281 H   0  0  0  0  0  0  0  0  0  0  0  0
    4.7118   -6.5783    3.6819 H   0  0  0  0  0  0  0  0  0  0  0  0
    3.3806   -5.0534    4.0853 H   0  0  0  0  0  0  0  0  0  0  0  0
    4.4507   -5.1024    5.4384 H   0  0  0  0  0  0  0  0  0  0  0  0
    3.9905   -9.6916    4.2543 H   0  0  0  0  0  0  0  0  0  0  0  0
    1.2614   -9.3952    4.8915 H   0  0  0  0  0  0  0  0  0  0  0  0
    2.1501  -10.6045    4.1459 H   0  0  0  0  0  0  0  0  0  0  0  0
    4.4222  -11.4029    5.6448 H   0  0  0  0  0  0  0  0  0  0  0  0
    2.8920  -12.2866    5.5310 H   0  0  0  0  0  0  0  0  0  0  0  0
    3.5651  -11.9097    7.1045 H   0  0  0  0  0  0  0  0  0  0  0  0
    4.2590   -9.5793    7.2711 H   0  0  0  0  0  0  0  0  0  0  0  0
    1.8112  -10.5270    6.5863 H   0  0  0  0  0  0  0  0  0  0  0  0
  1  2  1  0
  1 31  1  0
  1 32  1  0
  1 33  1  0
  2  3  1  0
  2 34  1  0
  2 35  1  0
  3 30  1  0
  3  4  1  0
  3 36  1  1
  4  5  1  0
  4 37  1  0
  4 38  1  0
  6  5  1  1
  5 39  1  0
  5 40  1  0
  6 23  1  0
  6 30  1  0
  6  7  1  0
  7 14  2  0
  7  8  1  0
  8 25  1  0
  8  9  2  0
  9 10  1  0
  9 41  1  0
 10 11  2  0
 10 42  1  0
 11 12  1  0
 11 14  1  0
 12 13  1  0
 13 43  1  0
 13 44  1  0
 13 45  1  0
 14 15  1  0
 15 16  1  0
 16 26  1  0
 16 17  1  0
 16 46  1  6
 17 22  1  0
 17 18  2  0
 18 19  1  0
 18 47  1  0
 19 20  1  0
 19 48  1  0
 19 49  1  0
 20 21  1  0
 21 22  1  0
 21 50  1  0
 21 51  1  0
 22 23  1  0
 22 52  1  1
 23 24  1  0
 23 53  1  1
 24 25  1  0
 24 26  1  0
 24 54  1  6
 25 55  1  0
 25 56  1  0
 26 27  1  0
 26 57  1  6
 27 28  1  0
 27 58  1  0
 27 59  1  0
 28 29  1  0
 28 30  1  0
 28 64  1  1
 29 60  1  0
 29 61  1  0
 29 62  1  0
 30 63  1  1
M  CHG  1  28   1
M  END
>  <i_m_ct_stereo_status>  (220) 
1

>  <s_m_source_file>  (220) 
/var/tmp/pbs.5076255.sched01/tmpck0ladl8/45htcshi4i.sdf

>  <i_m_source_file_index>  (220) 
42

>  <i_lp_mmshare_version>  (220) 
48012

>  <i_f3d_flags>  (220) 
0

>  <s_epik_input>  (220) 
W0NIM11bQ0gyXVtDQEhdKFtDSDJdW0NIMl0xKVtDQEhdMk4oW0NIM10pW0NIMl1bQ0BASF0zW0NAQEhdKFtDSDJdNClbQ0BASF01W0NASF0oW0NIMl1PW0NIMl1bQ0hdNilDPTZbQ0BASF0zT2M3YyhPW0NIM10pW2NIXVtjSF1jNGM3W0NAQF0xMjU=

>  <s_epik_cmdline>  (220) 
J2VwaWtfcHl0aG9uJywgJy1waHQnLCAnMi4wJywgJy1waCcsICc3LjAnLCAnLXRuJywgJzgnLCAnLW1hJywgJzIwMCcsICctaW1hZScsICc8aW5maWxlLm1hZT4nLCAnLW9tYWUnLCAnPG91dGZpbGUubWFlPic=

>  <r_lp_tautomer_probability>  (220) 
1

>  <r_epik_Ionization_Penalty>  (220) 
0.00605371

>  <r_epik_Ionization_Penalty_Charging>  (220) 
0.00605371

>  <r_epik_Ionization_Penalty_Neutral>  (220) 
7.21729e-13

>  <r_epik_State_Penalty>  (220) 
0.00445884

>  <r_epik_Charging_Adjusted_Penalty>  (220) 
0.0105126

>  <i_epik_Tot_Q>  (220) 
1

>  <i_epik_Tot_abs_Q>  (220) 
1

>  <s_lp_Force_Field>  (220) 
OPLS3e

>  <r_lp_Energy>  (220) 
559.34

>  <b_lp_Chiralities_Consistent>  (220) 
1

>  <s_lp_Variant>  (220) 
57:0-3

>  <s_i_glide_gridfile>  (220) 
pfpi4k_grid

>  <i_i_glide_lignum>  (220) 
42

>  <i_i_glide_rotatable_bonds>  (220) 
2

>  <r_i_docking_score>  (220) 
-2.86074

>  <r_i_glide_ligand_efficiency>  (220) 
-0.0953579

>  <r_i_glide_ligand_efficiency_sa>  (220) 
-0.296299

>  <r_i_glide_ligand_efficiency_ln>  (220) 
-0.649991

>  <r_i_glide_gscore>  (220) 
-2.86074

>  <r_i_glide_lipo>  (220) 
-0.254945

>  <r_i_glide_hbond>  (220) 
-0.241311

>  <r_i_glide_metal>  (220) 
-0

>  <r_i_glide_rewards>  (220) 
-0.623502

>  <r_i_glide_evdw>  (220) 
-15.7896

>  <r_i_glide_ecoul>  (220) 
-5.78729

>  <r_i_glide_erotb>  (220) 
0

>  <r_i_glide_esite>  (220) 
-0.0834057

>  <r_i_glide_emodel>  (220) 
-25.6331

>  <r_i_glide_energy>  (220) 
-21.5769

>  <r_i_glide_einternal>  (220) 
3.45139

>  <r_i_glide_intrahb_reward>  (220) 
-0

>  <i_i_glide_confnum>  (220) 
1

>  <i_i_glide_posenum>  (220) 
1

>  <r_i_glide_eff_state_penalty>  (220) 
0

>  <ligand_id>  (220) 
57

>  <original_smiles>  (220) 
CCC1CCC23c4c5ccc(OC)c4OC4C6=CCOCC6C2C(C5)C4CN(C)C13

>  <smiles>  (220) 
[H]C1=C2C3([H])Oc4c(OC([H])([H])[H])c([H])c([H])c5c4C46C([H])([H])C([H])([H])C([H])(C([H])([H])C([H])([H])[H])C4([H])[N+]([H])(C([H])([H])[H])C([H])([H])C3([H])C([H])(C5([H])[H])C6([H])C2([H])C([H])([H])OC1([H])[H]

$$$$
57:2:1
     RDKit          3D

 64 70  0  0  1  0  0  0  0  0999 V2000
    3.2511  -11.5049    4.1501 C   0  0  0  0  0  0  0  0  0  0  0  0
    2.8801  -10.1840    4.8504 C   0  0  0  0  0  0  0  0  0  0  0  0
    4.0084   -9.1217    4.8211 C   0  0  2  0  0  0  0  0  0  0  0  0
    3.9081   -8.1320    5.9827 C   0  0  0  0  0  0  0  0  0  0  0  0
    4.0001   -6.7493    5.3369 C   0  0  0  0  0  0  0  0  0  0  0  0
    3.3428   -6.8451    3.9156 C   0  0  1  0  0  0  0  0  0  0  0  0
    1.6374   -6.9466    4.0985 C   0  0  0  0  0  0  0  0  0  0  0  0
    1.3377   -5.9848    5.0488 C   0  0  0  0  0  0  0  0  0  0  0  0
    0.0214   -5.9949    5.5628 C   0  0  0  0  0  0  0  0  0  0  0  0
   -0.9896   -6.6724    4.8599 C   0  0  0  0  0  0  0  0  0  0  0  0
   -0.7273   -7.0828    3.5443 C   0  0  0  0  0  0  0  0  0  0  0  0
   -1.7828   -7.2924    2.7012 O   0  0  0  0  0  0  0  0  0  0  0  0
   -2.1286   -8.6565    2.4864 C   0  0  0  0  0  0  0  0  0  0  0  0
    0.5727   -6.8797    3.0344 C   0  0  0  0  0  0  0  0  0  0  0  0
    0.6351   -6.1615    1.7407 O   0  0  0  0  0  0  0  0  0  0  0  0
    1.7632   -6.0563    0.7035 C   0  0  1  0  0  0  0  0  0  0  0  0
    2.9010   -4.9080    0.4370 C   0  0  0  0  0  0  0  0  0  0  0  0
    2.7998   -3.9672   -0.5138 C   0  0  0  0  0  0  0  0  0  0  0  0
    3.8471   -2.8813   -0.7002 C   0  0  0  0  0  0  0  0  0  0  0  0
    5.0428   -3.1206    0.0500 O   0  0  0  0  0  0  0  0  0  0  0  0
    4.8343   -3.4659    1.4168 C   0  0  0  0  0  0  0  0  0  0  0  0
    4.2186   -4.8842    1.4775 C   0  0  1  0  0  0  0  0  0  0  0  0
    3.9604   -5.4659    3.0702 C   0  0  1  0  0  0  0  0  0  0  0  0
    2.6328   -5.2370    2.8134 C   0  0  2  0  0  0  0  0  0  0  0  0
    1.8096   -4.8209    4.1713 C   0  0  0  0  0  0  0  0  0  0  0  0
    2.5840   -6.6570    1.6146 C   0  0  1  0  0  0  0  0  0  0  0  0
    2.4812   -8.2620    1.6889 C   0  0  0  0  0  0  0  0  0  0  0  0
    3.6365   -8.8944    2.3423 N   0  0  1  0  0  0  0  0  0  0  0  0
    4.7571   -9.2386    1.4206 C   0  0  0  0  0  0  0  0  0  0  0  0
    4.0546   -8.2003    3.5771 C   0  0  2  0  0  0  0  0  0  0  0  0
    2.4152  -12.2040    4.1823 H   0  0  0  0  0  0  0  0  0  0  0  0
    4.0961  -11.9889    4.6426 H   0  0  0  0  0  0  0  0  0  0  0  0
    3.5177  -11.3779    3.1027 H   0  0  0  0  0  0  0  0  0  0  0  0
    1.9579   -9.7771    4.4355 H   0  0  0  0  0  0  0  0  0  0  0  0
    2.6400  -10.4365    5.8860 H   0  0  0  0  0  0  0  0  0  0  0  0
    4.9623   -9.6406    4.9099 H   0  0  0  0  0  0  0  0  0  0  0  0
    2.9645   -8.2335    6.5230 H   0  0  0  0  0  0  0  0  0  0  0  0
    4.7065   -8.2761    6.7129 H   0  0  0  0  0  0  0  0  0  0  0  0
    3.6065   -5.9771    5.9990 H   0  0  0  0  0  0  0  0  0  0  0  0
    5.0583   -6.5002    5.2322 H   0  0  0  0  0  0  0  0  0  0  0  0
   -0.2373   -5.3749    6.4185 H   0  0  0  0  0  0  0  0  0  0  0  0
   -2.0085   -6.6593    5.2129 H   0  0  0  0  0  0  0  0  0  0  0  0
   -2.8894   -8.7198    1.7033 H   0  0  0  0  0  0  0  0  0  0  0  0
   -2.5503   -9.1080    3.3877 H   0  0  0  0  0  0  0  0  0  0  0  0
   -1.2805   -9.2550    2.1508 H   0  0  0  0  0  0  0  0  0  0  0  0
    1.5255   -6.6391   -0.1811 H   0  0  0  0  0  0  0  0  0  0  0  0
    1.9500   -3.9378   -1.1769 H   0  0  0  0  0  0  0  0  0  0  0  0
    4.1155   -2.8326   -1.7550 H   0  0  0  0  0  0  0  0  0  0  0  0
    3.4148   -1.9137   -0.4395 H   0  0  0  0  0  0  0  0  0  0  0  0
    5.7982   -3.4537    1.9222 H   0  0  0  0  0  0  0  0  0  0  0  0
    4.1989   -2.7229    1.9035 H   0  0  0  0  0  0  0  0  0  0  0  0
    4.9971   -5.5103    1.0316 H   0  0  0  0  0  0  0  0  0  0  0  0
    4.3704   -4.7385    3.7709 H   0  0  0  0  0  0  0  0  0  0  0  0
    2.4174   -4.2020    2.4913 H   0  0  0  0  0  0  0  0  0  0  0  0
    0.9263   -4.2322    3.9117 H   0  0  0  0  0  0  0  0  0  0  0  0
    2.4113   -4.1574    4.7901 H   0  0  0  0  0  0  0  0  0  0  0  0
    3.4996   -6.9178    1.0674 H   0  0  0  0  0  0  0  0  0  0  0  0
    1.5924   -8.7284    2.1053 H   0  0  0  0  0  0  0  0  0  0  0  0
    2.4443   -8.6817    0.6957 H   0  0  0  0  0  0  0  0  0  0  0  0
    5.2465   -8.3486    1.0248 H   0  0  0  0  0  0  0  0  0  0  0  0
    4.4058   -9.8376    0.5793 H   0  0  0  0  0  0  0  0  0  0  0  0
    5.5038   -9.8352    1.9426 H   0  0  0  0  0  0  0  0  0  0  0  0
    5.1045   -7.9409    3.4393 H   0  0  0  0  0  0  0  0  0  0  0  0
    3.2838   -9.7947    2.6458 H   0  0  0  0  0  0  0  0  0  0  0  0
  1  2  1  0
  1 31  1  0
  1 32  1  0
  1 33  1  0
  2  3  1  0
  2 34  1  0
  2 35  1  0
  3 30  1  0
  3  4  1  0
  3 36  1  1
  4  5  1  0
  4 37  1  0
  4 38  1  0
  6  5  1  1
  5 39  1  0
  5 40  1  0
  6 23  1  0
  6 30  1  0
  6  7  1  0
  7 14  2  0
  7  8  1  0
  8 25  1  0
  8  9  2  0
  9 10  1  0
  9 41  1  0
 10 11  2  0
 10 42  1  0
 11 12  1  0
 11 14  1  0
 12 13  1  0
 13 43  1  0
 13 44  1  0
 13 45  1  0
 14 15  1  0
 15 16  1  0
 16 26  1  0
 16 17  1  0
 16 46  1  6
 17 22  1  0
 17 18  2  0
 18 19  1  0
 18 47  1  0
 19 20  1  0
 19 48  1  0
 19 49  1  0
 20 21  1  0
 21 22  1  0
 21 50  1  0
 21 51  1  0
 22 23  1  0
 22 52  1  6
 23 24  1  0
 23 53  1  1
 24 25  1  0
 24 26  1  0
 24 54  1  6
 25 55  1  0
 25 56  1  0
 26 27  1  0
 26 57  1  6
 27 28  1  0
 27 58  1  0
 27 59  1  0
 28 29  1  0
 28 30  1  0
 28 64  1  1
 29 60  1  0
 29 61  1  0
 29 62  1  0
 30 63  1  6
M  CHG  1  28   1
M  END
>  <i_m_ct_stereo_status>  (221) 
1

>  <s_m_source_file>  (221) 
/var/tmp/pbs.5076255.sched01/tmpck0ladl8/45htcshi4i.sdf

>  <i_m_source_file_index>  (221) 
42

>  <i_lp_mmshare_version>  (221) 
48012

>  <i_f3d_flags>  (221) 
0

>  <s_epik_input>  (221) 
W0NIM11bQ0gyXVtDQEhdKFtDSDJdW0NIMl0xKVtDQEhdMk4oW0NIM10pW0NIMl1bQ0BASF0zW0NAQEhdKFtDSDJdNClbQ0BASF01W0NASF0oW0NIMl1PW0NIMl1bQ0hdNilDPTZbQ0BASF0zT2M3YyhPW0NIM10pW2NIXVtjSF1jNGM3W0NAQF0xMjU=

>  <s_epik_cmdline>  (221) 
J2VwaWtfcHl0aG9uJywgJy1waHQnLCAnMi4wJywgJy1waCcsICc3LjAnLCAnLXRuJywgJzgnLCAnLW1hJywgJzIwMCcsICctaW1hZScsICc8aW5maWxlLm1hZT4nLCAnLW9tYWUnLCAnPG91dGZpbGUubWFlPic=

>  <r_lp_tautomer_probability>  (221) 
1

>  <r_epik_Ionization_Penalty>  (221) 
0.00605371

>  <r_epik_Ionization_Penalty_Charging>  (221) 
0.00605371

>  <r_epik_Ionization_Penalty_Neutral>  (221) 
7.21729e-13

>  <r_epik_State_Penalty>  (221) 
0.00445884

>  <r_epik_Charging_Adjusted_Penalty>  (221) 
0.0105126

>  <i_epik_Tot_Q>  (221) 
1

>  <i_epik_Tot_abs_Q>  (221) 
1

>  <s_lp_Force_Field>  (221) 
OPLS3e

>  <r_lp_Energy>  (221) 
559.34

>  <b_lp_Chiralities_Consistent>  (221) 
1

>  <s_lp_Variant>  (221) 
57:0-3

>  <s_i_glide_gridfile>  (221) 
pfpi4k_grid

>  <i_i_glide_lignum>  (221) 
42

>  <i_i_glide_rotatable_bonds>  (221) 
2

>  <r_i_docking_score>  (221) 
-2.81364

>  <r_i_glide_ligand_efficiency>  (221) 
-0.093788

>  <r_i_glide_ligand_efficiency_sa>  (221) 
-0.291421

>  <r_i_glide_ligand_efficiency_ln>  (221) 
-0.639289

>  <r_i_glide_gscore>  (221) 
-2.81364

>  <r_i_glide_lipo>  (221) 
-0.2057

>  <r_i_glide_hbond>  (221) 
-0.276649

>  <r_i_glide_metal>  (221) 
-0

>  <r_i_glide_rewards>  (221) 
-0.623502

>  <r_i_glide_evdw>  (221) 
-20.5118

>  <r_i_glide_ecoul>  (221) 
-4.41686

>  <r_i_glide_erotb>  (221) 
0

>  <r_i_glide_esite>  (221) 
-0.0196711

>  <r_i_glide_emodel>  (221) 
-26.6671

>  <r_i_glide_energy>  (221) 
-24.9286

>  <r_i_glide_einternal>  (221) 
7.80951

>  <r_i_glide_intrahb_reward>  (221) 
-0

>  <i_i_glide_confnum>  (221) 
1

>  <i_i_glide_posenum>  (221) 
27

>  <r_i_glide_eff_state_penalty>  (221) 
0

>  <ligand_id>  (221) 
57

>  <original_smiles>  (221) 
CCC1CCC23c4c5ccc(OC)c4OC4C6=CCOCC6C2C(C5)C4CN(C)C13

>  <smiles>  (221) 
[H]C1=C2C3([H])Oc4c(OC([H])([H])[H])c([H])c([H])c5c4C46C([H])([H])C([H])([H])C([H])(C([H])([H])C([H])([H])[H])C4([H])[N+]([H])(C([H])([H])[H])C([H])([H])C3([H])C([H])(C5([H])[H])C6([H])C2([H])C([H])([H])OC1([H])[H]

$$$$
57:2:2
     RDKit          3D

 64 70  0  0  1  0  0  0  0  0999 V2000
    2.5201  -10.2528    4.4068 C   0  0  0  0  0  0  0  0  0  0  0  0
    4.0550  -10.4267    4.5085 C   0  0  0  0  0  0  0  0  0  0  0  0
    4.9050   -9.1388    4.7454 C   0  0  2  0  0  0  0  0  0  0  0  0
    4.5909   -8.4123    6.0448 C   0  0  0  0  0  0  0  0  0  0  0  0
    4.4440   -6.9459    5.6610 C   0  0  0  0  0  0  0  0  0  0  0  0
    3.8991   -6.8775    4.1916 C   0  0  1  0  0  0  0  0  0  0  0  0
    2.2320   -7.3129    4.1593 C   0  0  0  0  0  0  0  0  0  0  0  0
    1.6932   -6.6256    5.2193 C   0  0  0  0  0  0  0  0  0  0  0  0
    0.3686   -6.9443    5.6220 C   0  0  0  0  0  0  0  0  0  0  0  0
   -0.4294   -7.6452    4.7052 C   0  0  0  0  0  0  0  0  0  0  0  0
   -0.0521   -7.6686    3.3557 C   0  0  0  0  0  0  0  0  0  0  0  0
   -0.8877   -8.0155    2.3163 O   0  0  0  0  0  0  0  0  0  0  0  0
   -2.1213   -8.6476    2.6400 C   0  0  0  0  0  0  0  0  0  0  0  0
    1.2433   -7.1710    3.0269 C   0  0  0  0  0  0  0  0  0  0  0  0
    1.2712   -6.2412    1.8766 O   0  0  0  0  0  0  0  0  0  0  0  0
    2.4460   -5.7743    0.9858 C   0  0  1  0  0  0  0  0  0  0  0  0
    3.3601   -4.4318    1.0444 C   0  0  0  0  0  0  0  0  0  0  0  0
    3.1329   -3.3637    0.2605 C   0  0  0  0  0  0  0  0  0  0  0  0
    3.9469   -2.1016    0.4024 C   0  0  0  0  0  0  0  0  0  0  0  0
    5.1118   -2.2684    1.2143 O   0  0  0  0  0  0  0  0  0  0  0  0
    4.8801   -2.8789    2.4758 C   0  0  0  0  0  0  0  0  0  0  0  0
    4.5621   -4.3605    2.2183 C   0  0  1  0  0  0  0  0  0  0  0  0
    4.3063   -5.2747    3.6573 C   0  0  1  0  0  0  0  0  0  0  0  0
    2.9815   -5.2305    3.3108 C   0  0  2  0  0  0  0  0  0  0  0  0
    2.0048   -5.2446    4.6398 C   0  0  0  0  0  0  0  0  0  0  0  0
    3.2934   -6.3750    1.8778 C   0  0  1  0  0  0  0  0  0  0  0  0
    3.4763   -7.9436    1.6346 C   0  0  0  0  0  0  0  0  0  0  0  0
    4.6794   -8.5083    2.3096 N   0  0  1  0  0  0  0  0  0  0  0  0
    5.9332   -8.4762    1.4785 C   0  0  0  0  0  0  0  0  0  0  0  0
    4.8590   -8.0026    3.6953 C   0  0  2  0  0  0  0  0  0  0  0  0
    1.9988  -11.2179    4.3277 H   0  0  0  0  0  0  0  0  0  0  0  0
    2.2840   -9.6585    3.5208 H   0  0  0  0  0  0  0  0  0  0  0  0
    2.1136   -9.7420    5.2908 H   0  0  0  0  0  0  0  0  0  0  0  0
    4.2838  -11.1261    5.3207 H   0  0  0  0  0  0  0  0  0  0  0  0
    4.4014  -10.9231    3.5979 H   0  0  0  0  0  0  0  0  0  0  0  0
    5.9424   -9.4657    4.7979 H   0  0  0  0  0  0  0  0  0  0  0  0
    3.6791   -8.7743    6.5044 H   0  0  0  0  0  0  0  0  0  0  0  0
    5.3683   -8.5441    6.7881 H   0  0  0  0  0  0  0  0  0  0  0  0
    3.8674   -6.4041    6.4007 H   0  0  0  0  0  0  0  0  0  0  0  0
    5.4340   -6.4881    5.6839 H   0  0  0  0  0  0  0  0  0  0  0  0
   -0.0605   -6.6269    6.5740 H   0  0  0  0  0  0  0  0  0  0  0  0
   -1.3935   -8.0056    4.9970 H   0  0  0  0  0  0  0  0  0  0  0  0
   -2.6597   -8.8546    1.7171 H   0  0  0  0  0  0  0  0  0  0  0  0
   -2.7637   -8.0134    3.2527 H   0  0  0  0  0  0  0  0  0  0  0  0
   -1.9858   -9.6053    3.1437 H   0  0  0  0  0  0  0  0  0  0  0  0
    2.4527   -6.2449   -0.0035 H   0  0  0  0  0  0  0  0  0  0  0  0
    2.3290   -3.3635   -0.4604 H   0  0  0  0  0  0  0  0  0  0  0  0
    4.2671   -1.8023   -0.5875 H   0  0  0  0  0  0  0  0  0  0  0  0
    3.3099   -1.3135    0.7925 H   0  0  0  0  0  0  0  0  0  0  0  0
    5.7847   -2.8075    3.0723 H   0  0  0  0  0  0  0  0  0  0  0  0
    4.0767   -2.3732    3.0164 H   0  0  0  0  0  0  0  0  0  0  0  0
    5.4700   -4.7513    1.7541 H   0  0  0  0  0  0  0  0  0  0  0  0
    4.5194   -4.6282    4.5078 H   0  0  0  0  0  0  0  0  0  0  0  0
    2.5995   -4.2076    3.1389 H   0  0  0  0  0  0  0  0  0  0  0  0
    1.0388   -4.8020    4.3760 H   0  0  0  0  0  0  0  0  0  0  0  0
    2.4289   -4.5859    5.4028 H   0  0  0  0  0  0  0  0  0  0  0  0
    4.2976   -6.3792    1.3910 H   0  0  0  0  0  0  0  0  0  0  0  0
    2.6198   -8.6050    1.7893 H   0  0  0  0  0  0  0  0  0  0  0  0
    3.6751   -8.0958    0.5728 H   0  0  0  0  0  0  0  0  0  0  0  0
    6.2653   -7.4508    1.2907 H   0  0  0  0  0  0  0  0  0  0  0  0
    5.7564   -8.9654    0.5159 H   0  0  0  0  0  0  0  0  0  0  0  0
    6.7474   -9.0139    1.9742 H   0  0  0  0  0  0  0  0  0  0  0  0
    5.8494   -7.5410    3.7150 H   0  0  0  0  0  0  0  0  0  0  0  0
    4.4858   -9.5026    2.4222 H   0  0  0  0  0  0  0  0  0  0  0  0
  1  2  1  0
  1 31  1  0
  1 32  1  0
  1 33  1  0
  2  3  1  0
  2 34  1  0
  2 35  1  0
  3 30  1  0
  3  4  1  0
  3 36  1  1
  4  5  1  0
  4 37  1  0
  4 38  1  0
  6  5  1  1
  5 39  1  0
  5 40  1  0
  6 23  1  0
  6 30  1  0
  6  7  1  0
  7 14  2  0
  7  8  1  0
  8 25  1  0
  8  9  2  0
  9 10  1  0
  9 41  1  0
 10 11  2  0
 10 42  1  0
 11 12  1  0
 11 14  1  0
 12 13  1  0
 13 43  1  0
 13 44  1  0
 13 45  1  0
 14 15  1  0
 15 16  1  0
 16 26  1  0
 16 17  1  0
 16 46  1  6
 17 22  1  0
 17 18  2  0
 18 19  1  0
 18 47  1  0
 19 20  1  0
 19 48  1  0
 19 49  1  0
 20 21  1  0
 21 22  1  0
 21 50  1  0
 21 51  1  0
 22 23  1  0
 22 52  1  6
 23 24  1  0
 23 53  1  1
 24 25  1  0
 24 26  1  0
 24 54  1  6
 25 55  1  0
 25 56  1  0
 26 27  1  0
 26 57  1  6
 27 28  1  0
 27 58  1  0
 27 59  1  0
 28 29  1  0
 28 30  1  0
 28 64  1  1
 29 60  1  0
 29 61  1  0
 29 62  1  0
 30 63  1  6
M  CHG  1  28   1
M  END
>  <i_m_ct_stereo_status>  (222) 
1

>  <s_m_source_file>  (222) 
/var/tmp/pbs.5076255.sched01/tmpck0ladl8/45htcshi4i.sdf

>  <i_m_source_file_index>  (222) 
42

>  <i_lp_mmshare_version>  (222) 
48012

>  <i_f3d_flags>  (222) 
0

>  <s_epik_input>  (222) 
W0NIM11bQ0gyXVtDQEhdKFtDSDJdW0NIMl0xKVtDQEhdMk4oW0NIM10pW0NIMl1bQ0BASF0zW0NAQEhdKFtDSDJdNClbQ0BASF01W0NASF0oW0NIMl1PW0NIMl1bQ0hdNilDPTZbQ0BASF0zT2M3YyhPW0NIM10pW2NIXVtjSF1jNGM3W0NAQF0xMjU=

>  <s_epik_cmdline>  (222) 
J2VwaWtfcHl0aG9uJywgJy1waHQnLCAnMi4wJywgJy1waCcsICc3LjAnLCAnLXRuJywgJzgnLCAnLW1hJywgJzIwMCcsICctaW1hZScsICc8aW5maWxlLm1hZT4nLCAnLW9tYWUnLCAnPG91dGZpbGUubWFlPic=

>  <r_lp_tautomer_probability>  (222) 
1

>  <r_epik_Ionization_Penalty>  (222) 
0.00605371

>  <r_epik_Ionization_Penalty_Charging>  (222) 
0.00605371

>  <r_epik_Ionization_Penalty_Neutral>  (222) 
7.21729e-13

>  <r_epik_State_Penalty>  (222) 
0.00445884

>  <r_epik_Charging_Adjusted_Penalty>  (222) 
0.0105126

>  <i_epik_Tot_Q>  (222) 
1

>  <i_epik_Tot_abs_Q>  (222) 
1

>  <s_lp_Force_Field>  (222) 
OPLS3e

>  <r_lp_Energy>  (222) 
559.34

>  <b_lp_Chiralities_Consistent>  (222) 
1

>  <s_lp_Variant>  (222) 
57:0-3

>  <s_i_glide_gridfile>  (222) 
pfpi4k_grid

>  <i_i_glide_lignum>  (222) 
42

>  <i_i_glide_rotatable_bonds>  (222) 
2

>  <r_i_docking_score>  (222) 
-2.30563

>  <r_i_glide_ligand_efficiency>  (222) 
-0.0768544

>  <r_i_glide_ligand_efficiency_sa>  (222) 
-0.238805

>  <r_i_glide_ligand_efficiency_ln>  (222) 
-0.523865

>  <r_i_glide_gscore>  (222) 
-2.30563

>  <r_i_glide_lipo>  (222) 
-0.276028

>  <r_i_glide_hbond>  (222) 
-0.0190337

>  <r_i_glide_metal>  (222) 
-0

>  <r_i_glide_rewards>  (222) 
-0.623502

>  <r_i_glide_evdw>  (222) 
-21.8398

>  <r_i_glide_ecoul>  (222) 
-1.92768

>  <r_i_glide_erotb>  (222) 
0

>  <r_i_glide_esite>  (222) 
-0.00592742

>  <r_i_glide_emodel>  (222) 
-25.7378

>  <r_i_glide_energy>  (222) 
-23.7675

>  <r_i_glide_einternal>  (222) 
4.19255

>  <r_i_glide_intrahb_reward>  (222) 
-0

>  <i_i_glide_confnum>  (222) 
1

>  <i_i_glide_posenum>  (222) 
15

>  <r_i_glide_eff_state_penalty>  (222) 
0

>  <ligand_id>  (222) 
57

>  <original_smiles>  (222) 
CCC1CCC23c4c5ccc(OC)c4OC4C6=CCOCC6C2C(C5)C4CN(C)C13

>  <smiles>  (222) 
[H]C1=C2C3([H])Oc4c(OC([H])([H])[H])c([H])c([H])c5c4C46C([H])([H])C([H])([H])C([H])(C([H])([H])C([H])([H])[H])C4([H])[N+]([H])(C([H])([H])[H])C([H])([H])C3([H])C([H])(C5([H])[H])C6([H])C2([H])C([H])([H])OC1([H])[H]

$$$$
57:3:0
     RDKit          3D

 64 70  0  0  1  0  0  0  0  0999 V2000
    8.2314   -9.5936    4.1095 C   0  0  0  0  0  0  0  0  0  0  0  0
    7.0018   -8.8905    4.7079 C   0  0  0  0  0  0  0  0  0  0  0  0
    7.1427   -7.3602    4.7851 C   0  0  2  0  0  0  0  0  0  0  0  0
    5.9008   -6.6494    5.3842 C   0  0  0  0  0  0  0  0  0  0  0  0
    5.3332   -5.6523    4.3217 C   0  0  0  0  0  0  0  0  0  0  0  0
    5.6471   -6.3020    2.8617 C   0  0  1  0  0  0  0  0  0  0  0  0
    4.5580   -7.0943    2.7702 C   0  0  0  0  0  0  0  0  0  0  0  0
    4.8772   -8.2813    2.0912 C   0  0  0  0  0  0  0  0  0  0  0  0
    3.6940   -8.8710    1.5526 C   0  0  0  0  0  0  0  0  0  0  0  0
    2.4527   -8.1462    1.6127 C   0  0  0  0  0  0  0  0  0  0  0  0
    2.3657   -6.7636    2.0151 C   0  0  0  0  0  0  0  0  0  0  0  0
    1.2330   -6.0020    1.8191 O   0  0  0  0  0  0  0  0  0  0  0  0
    0.0460   -6.6541    1.4159 C   0  0  0  0  0  0  0  0  0  0  0  0
    3.5094   -6.1152    2.5533 C   0  0  0  0  0  0  0  0  0  0  0  0
    3.8791   -4.6517    2.4913 O   0  0  0  0  0  0  0  0  0  0  0  0
    5.2387   -3.9203    1.9435 C   0  0  2  0  0  0  0  0  0  0  0  0
    4.8029   -3.6267    0.5732 C   0  0  0  0  0  0  0  0  0  0  0  0
    4.7712   -2.4875   -0.1467 C   0  0  0  0  0  0  0  0  0  0  0  0
    4.4743   -2.5362   -1.6491 C   0  0  0  0  0  0  0  0  0  0  0  0
    4.0854   -3.8587   -2.0461 O   0  0  0  0  0  0  0  0  0  0  0  0
    4.9386   -4.8625   -1.4514 C   0  0  0  0  0  0  0  0  0  0  0  0
    4.5762   -4.9710    0.0472 C   0  0  1  0  0  0  0  0  0  0  0  0
    5.3423   -6.0900    0.9901 C   0  0  1  0  0  0  0  0  0  0  0  0
    6.6145   -6.3408    0.7651 C   0  0  2  0  0  0  0  0  0  0  0  0
    6.2820   -8.0066    1.2687 C   0  0  0  0  0  0  0  0  0  0  0  0
    6.7590   -4.7749    1.4243 C   0  0  1  0  0  0  0  0  0  0  0  0
    8.2513   -5.0479    1.8772 C   0  0  0  0  0  0  0  0  0  0  0  0
    8.3872   -6.3372    2.6385 N   0  0  1  0  0  0  0  0  0  0  0  0
    9.6808   -6.4193    3.3647 C   0  0  0  0  0  0  0  0  0  0  0  0
    7.1539   -6.6224    3.4482 C   0  0  2  0  0  0  0  0  0  0  0  0
    8.0672  -10.6691    4.0428 H   0  0  0  0  0  0  0  0  0  0  0  0
    9.1202   -9.4124    4.7142 H   0  0  0  0  0  0  0  0  0  0  0  0
    8.4630   -9.2378    3.1103 H   0  0  0  0  0  0  0  0  0  0  0  0
    6.0997   -9.1768    4.1741 H   0  0  0  0  0  0  0  0  0  0  0  0
    6.8525   -9.2629    5.7220 H   0  0  0  0  0  0  0  0  0  0  0  0
    8.0152   -7.1089    5.3935 H   0  0  0  0  0  0  0  0  0  0  0  0
    5.1346   -7.3821    5.6486 H   0  0  0  0  0  0  0  0  0  0  0  0
    6.1622   -6.1003    6.2946 H   0  0  0  0  0  0  0  0  0  0  0  0
    4.3021   -5.4463    4.6382 H   0  0  0  0  0  0  0  0  0  0  0  0
    5.8087   -4.6767    4.4458 H   0  0  0  0  0  0  0  0  0  0  0  0
    3.7320   -9.7745    0.9421 H   0  0  0  0  0  0  0  0  0  0  0  0
    1.5992   -8.6334    1.1714 H   0  0  0  0  0  0  0  0  0  0  0  0
   -0.7308   -5.9181    1.2880 H   0  0  0  0  0  0  0  0  0  0  0  0
   -0.2905   -7.3705    2.1705 H   0  0  0  0  0  0  0  0  0  0  0  0
    0.1258   -7.1498    0.4481 H   0  0  0  0  0  0  0  0  0  0  0  0
    5.4391   -2.9595    2.4192 H   0  0  0  0  0  0  0  0  0  0  0  0
    5.0220   -1.5276    0.2739 H   0  0  0  0  0  0  0  0  0  0  0  0
    3.6440   -1.8754   -1.9100 H   0  0  0  0  0  0  0  0  0  0  0  0
    5.3694   -2.2069   -2.2068 H   0  0  0  0  0  0  0  0  0  0  0  0
    4.8899   -5.8964   -1.7721 H   0  0  0  0  0  0  0  0  0  0  0  0
    5.9542   -4.5050   -1.6013 H   0  0  0  0  0  0  0  0  0  0  0  0
    3.4965   -5.1855    0.1179 H   0  0  0  0  0  0  0  0  0  0  0  0
    4.7641   -6.8074    0.3876 H   0  0  0  0  0  0  0  0  0  0  0  0
    6.9104   -6.2440   -0.3106 H   0  0  0  0  0  0  0  0  0  0  0  0
    7.1465   -8.4729    1.7445 H   0  0  0  0  0  0  0  0  0  0  0  0
    6.0765   -8.7452    0.4899 H   0  0  0  0  0  0  0  0  0  0  0  0
    6.8620   -4.4460    2.4428 H   0  0  0  0  0  0  0  0  0  0  0  0
    8.8417   -5.1218    0.9555 H   0  0  0  0  0  0  0  0  0  0  0  0
    8.8027   -4.2865    2.4340 H   0  0  0  0  0  0  0  0  0  0  0  0
    9.7314   -5.7273    4.2200 H   0  0  0  0  0  0  0  0  0  0  0  0
   10.5136   -6.1803    2.6921 H   0  0  0  0  0  0  0  0  0  0  0  0
    9.8590   -7.4204    3.7524 H   0  0  0  0  0  0  0  0  0  0  0  0
    7.4738   -5.7092    3.9582 H   0  0  0  0  0  0  0  0  0  0  0  0
    8.4418   -7.0614    1.9052 H   0  0  0  0  0  0  0  0  0  0  0  0
  1  2  1  0
  1 31  1  0
  1 32  1  0
  1 33  1  0
  2  3  1  0
  2 34  1  0
  2 35  1  0
  3 30  1  0
  3  4  1  0
  3 36  1  1
  4  5  1  0
  4 37  1  0
  4 38  1  0
  6  5  1  1
  5 39  1  0
  5 40  1  0
  6 23  1  0
  6 30  1  0
  6  7  1  0
  7 14  2  0
  7  8  1  0
  8 25  1  0
  8  9  2  0
  9 10  1  0
  9 41  1  0
 10 11  2  0
 10 42  1  0
 11 12  1  0
 11 14  1  0
 12 13  1  0
 13 43  1  0
 13 44  1  0
 13 45  1  0
 14 15  1  0
 15 16  1  0
 16 26  1  0
 16 17  1  0
 16 46  1  1
 17 22  1  0
 17 18  2  0
 18 19  1  0
 18 47  1  0
 19 20  1  0
 19 48  1  0
 19 49  1  0
 20 21  1  0
 21 22  1  0
 21 50  1  0
 21 51  1  0
 22 23  1  0
 22 52  1  6
 23 24  1  0
 23 53  1  6
 24 25  1  0
 24 26  1  0
 24 54  1  6
 25 55  1  0
 25 56  1  0
 26 27  1  0
 26 57  1  6
 27 28  1  0
 27 58  1  0
 27 59  1  0
 28 29  1  0
 28 30  1  0
 28 64  1  6
 29 60  1  0
 29 61  1  0
 29 62  1  0
 30 63  1  1
M  CHG  1  28   1
M  END
>  <i_m_ct_stereo_status>  (223) 
1

>  <s_m_source_file>  (223) 
/var/tmp/pbs.5076255.sched01/tmpck0ladl8/45htcshi4i.sdf

>  <i_m_source_file_index>  (223) 
43

>  <i_lp_mmshare_version>  (223) 
48012

>  <i_f3d_flags>  (223) 
0

>  <s_epik_input>  (223) 
W0NIM11bQ0gyXVtDQEhdKFtDSDJdW0NIMl0xKVtDQEhdMk4oW0NIM10pW0NIMl1bQ0BASF0zW0NAQEhdKFtDSDJdNClbQ0BASF01W0NASF0oW0NIMl1PW0NIMl1bQ0hdNilDPTZbQ0BASF0zT2M3YyhPW0NIM10pW2NIXVtjSF1jNGM3W0NAQF0xMjU=

>  <s_epik_cmdline>  (223) 
J2VwaWtfcHl0aG9uJywgJy1waHQnLCAnMi4wJywgJy1waCcsICc3LjAnLCAnLXRuJywgJzgnLCAnLW1hJywgJzIwMCcsICctaW1hZScsICc8aW5maWxlLm1hZT4nLCAnLW9tYWUnLCAnPG91dGZpbGUubWFlPic=

>  <r_lp_tautomer_probability>  (223) 
1

>  <r_epik_Ionization_Penalty>  (223) 
0.00605371

>  <r_epik_Ionization_Penalty_Charging>  (223) 
0.00605371

>  <r_epik_Ionization_Penalty_Neutral>  (223) 
7.21729e-13

>  <r_epik_State_Penalty>  (223) 
0.00445884

>  <r_epik_Charging_Adjusted_Penalty>  (223) 
0.0105126

>  <i_epik_Tot_Q>  (223) 
1

>  <i_epik_Tot_abs_Q>  (223) 
1

>  <s_lp_Force_Field>  (223) 
OPLS3e

>  <r_lp_Energy>  (223) 
684.153

>  <b_lp_Chiralities_Consistent>  (223) 
1

>  <s_lp_Variant>  (223) 
57:0-4

>  <s_i_glide_gridfile>  (223) 
pfpi4k_grid

>  <i_i_glide_lignum>  (223) 
43

>  <i_i_glide_rotatable_bonds>  (223) 
2

>  <r_i_docking_score>  (223) 
-1.83302

>  <r_i_glide_ligand_efficiency>  (223) 
-0.0611007

>  <r_i_glide_ligand_efficiency_sa>  (223) 
-0.189854

>  <r_i_glide_ligand_efficiency_ln>  (223) 
-0.416482

>  <r_i_glide_gscore>  (223) 
-1.83302

>  <r_i_glide_lipo>  (223) 
-0.494483

>  <r_i_glide_hbond>  (223) 
-0.0851734

>  <r_i_glide_metal>  (223) 
-0

>  <r_i_glide_rewards>  (223) 
-0.623502

>  <r_i_glide_evdw>  (223) 
-10.8579

>  <r_i_glide_ecoul>  (223) 
-0.384565

>  <r_i_glide_erotb>  (223) 
0

>  <r_i_glide_esite>  (223) 
-0.0292814

>  <r_i_glide_emodel>  (223) 
-12.086

>  <r_i_glide_energy>  (223) 
-11.2425

>  <r_i_glide_einternal>  (223) 
0.219229

>  <r_i_glide_intrahb_reward>  (223) 
-0

>  <i_i_glide_confnum>  (223) 
2

>  <i_i_glide_posenum>  (223) 
5

>  <r_i_glide_eff_state_penalty>  (223) 
0

>  <ligand_id>  (223) 
57

>  <original_smiles>  (223) 
CCC1CCC23c4c5ccc(OC)c4OC4C6=CCOCC6C2C(C5)C4CN(C)C13

>  <smiles>  (223) 
[H]C1=C2C3([H])Oc4c(OC([H])([H])[H])c([H])c([H])c5c4C46C([H])([H])C([H])([H])C([H])(C([H])([H])C([H])([H])[H])C4([H])[N+]([H])(C([H])([H])[H])C([H])([H])C3([H])C([H])(C5([H])[H])C6([H])C2([H])C([H])([H])OC1([H])[H]

$$$$
58:0:0
     RDKit          3D

 51 57  0  0  1  0  0  0  0  0999 V2000
    5.0144   -0.8627    1.9456 C   0  0  0  0  0  0  0  0  0  0  0  0
    4.9057   -1.9162    0.8341 C   0  0  1  0  0  0  0  0  0  0  0  0
    5.9888   -1.5901   -0.2376 C   0  0  0  0  0  0  0  0  0  0  0  0
    5.6166   -2.0011   -1.6755 C   0  0  2  0  0  0  0  0  0  0  0  0
    4.6716   -0.9450   -2.2875 C   0  0  0  0  0  0  0  0  0  0  0  0
    3.4510   -1.7955   -2.3458 C   0  0  1  0  0  0  0  0  0  0  0  0
    3.7668   -3.1323   -3.0134 C   0  0  0  0  0  0  0  0  0  0  0  0
    4.6427   -3.1343   -1.7289 C   0  0  1  0  0  0  0  0  0  0  0  0
    5.0715   -4.4470   -1.3883 O   0  0  0  0  0  0  0  0  0  0  0  0
    6.0529   -4.4043   -0.2313 O   0  0  0  0  0  0  0  0  0  0  0  0
    5.3431   -4.4007    1.0130 C   0  0  2  0  0  0  0  0  0  0  0  0
    5.2345   -3.1001    1.5730 O   0  0  0  0  0  0  0  0  0  0  0  0
    6.2513   -5.1211    2.0574 C   0  0  1  0  0  0  0  0  0  0  0  0
    5.5823   -5.0878    3.4655 C   0  0  0  0  0  0  0  0  0  0  0  0
    4.2367   -5.8377    3.4138 C   0  0  2  0  0  0  0  0  0  0  0  0
    4.4791   -7.3044    3.0114 C   0  0  0  0  0  0  0  0  0  0  0  0
    5.1718   -7.3549    1.6356 C   0  0  2  0  0  0  0  0  0  0  0  0
    6.5151   -6.5954    1.6939 C   0  0  0  0  0  0  0  0  0  0  0  0
    4.2641   -6.6777    0.5894 C   0  0  0  0  0  0  0  0  0  0  0  0
    3.9955   -5.2115    0.9891 C   0  0  1  0  0  0  0  0  0  0  0  0
    3.3234   -5.1700    2.3715 C   0  0  0  0  0  0  0  0  0  0  0  0
    3.3285   -2.6595   -1.0718 C   0  0  1  0  0  0  0  0  0  0  0  0
    3.4555   -1.9715    0.2966 C   0  0  0  0  0  0  0  0  0  0  0  0
    4.7907    0.1363    1.5750 H   0  0  0  0  0  0  0  0  0  0  0  0
    6.0239   -0.8397    2.3632 H   0  0  0  0  0  0  0  0  0  0  0  0
    4.3332   -1.0763    2.7666 H   0  0  0  0  0  0  0  0  0  0  0  0
    6.2249   -0.5248   -0.2222 H   0  0  0  0  0  0  0  0  0  0  0  0
    6.9112   -2.0955    0.0264 H   0  0  0  0  0  0  0  0  0  0  0  0
    6.4864   -2.1868   -2.3057 H   0  0  0  0  0  0  0  0  0  0  0  0
    4.5248   -0.0697   -1.6624 H   0  0  0  0  0  0  0  0  0  0  0  0
    4.9812   -0.6355   -3.2859 H   0  0  0  0  0  0  0  0  0  0  0  0
    2.4992   -1.3477   -2.6729 H   0  0  0  0  0  0  0  0  0  0  0  0
    2.9695   -3.8490   -3.0875 H   0  0  0  0  0  0  0  0  0  0  0  0
    4.3695   -3.0382   -3.9296 H   0  0  0  0  0  0  0  0  0  0  0  0
    7.2193   -4.6141    2.0995 H   0  0  0  0  0  0  0  0  0  0  0  0
    6.2285   -5.5421    4.2156 H   0  0  0  0  0  0  0  0  0  0  0  0
    5.4107   -4.0686    3.8047 H   0  0  0  0  0  0  0  0  0  0  0  0
    3.7531   -5.8045    4.3873 H   0  0  0  0  0  0  0  0  0  0  0  0
    5.0897   -7.8106    3.7631 H   0  0  0  0  0  0  0  0  0  0  0  0
    3.5306   -7.8401    2.9642 H   0  0  0  0  0  0  0  0  0  0  0  0
    5.3582   -8.3968    1.3582 H   0  0  0  0  0  0  0  0  0  0  0  0
    7.0415   -6.6639    0.7394 H   0  0  0  0  0  0  0  0  0  0  0  0
    7.1708   -7.0588    2.4355 H   0  0  0  0  0  0  0  0  0  0  0  0
    4.7257   -6.7467   -0.3947 H   0  0  0  0  0  0  0  0  0  0  0  0
    3.3232   -7.2211    0.5200 H   0  0  0  0  0  0  0  0  0  0  0  0
    3.2658   -4.8315    0.2909 H   0  0  0  0  0  0  0  0  0  0  0  0
    2.3601   -5.6821    2.3255 H   0  0  0  0  0  0  0  0  0  0  0  0
    3.1084   -4.1438    2.6640 H   0  0  0  0  0  0  0  0  0  0  0  0
    2.4720   -3.3111   -1.1166 H   0  0  0  0  0  0  0  0  0  0  0  0
    2.8120   -2.4693    1.0258 H   0  0  0  0  0  0  0  0  0  0  0  0
    3.0661   -0.9556    0.2201 H   0  0  0  0  0  0  0  0  0  0  0  0
  2  1  1  1
  1 24  1  0
  1 25  1  0
  1 26  1  0
  2 12  1  0
  2 23  1  0
  2  3  1  0
  3  4  1  0
  3 27  1  0
  3 28  1  0
  4  8  1  0
  4  5  1  0
  4 29  1  6
  5  6  1  0
  5 30  1  0
  5 31  1  0
  6 22  1  0
  6  7  1  0
  6 32  1  6
  7  8  1  0
  7 33  1  0
  7 34  1  0
  8  9  1  1
  8 22  1  0
  9 10  1  0
 11 10  1  6
 11 20  1  0
 11 12  1  0
 11 13  1  0
 13 18  1  0
 13 14  1  0
 13 35  1  1
 14 15  1  0
 14 36  1  0
 14 37  1  0
 15 21  1  0
 15 16  1  0
 15 38  1  1
 16 17  1  0
 16 39  1  0
 16 40  1  0
 17 18  1  0
 17 19  1  0
 17 41  1  6
 18 42  1  0
 18 43  1  0
 19 20  1  0
 19 44  1  0
 19 45  1  0
 20 21  1  0
 20 46  1  6
 21 47  1  0
 21 48  1  0
 22 23  1  0
 22 49  1  1
 23 50  1  0
 23 51  1  0
M  END
>  <i_m_ct_stereo_status>  (224) 
1

>  <s_m_source_file>  (224) 
/var/tmp/pbs.5076255.sched01/tmpck0ladl8/45htcshi4i.sdf

>  <i_m_source_file_index>  (224) 
44

>  <i_lp_mmshare_version>  (224) 
48012

>  <i_f3d_flags>  (224) 
0

>  <s_epik_input>  (224) 
W0NIMl0xW0NAQEhdKFtDSDJdMilbQ0BASF0zW0NIMl1bQ0BdKFtDSDNdKShbQ0gyXVtDQEhdMVtDQF0yMzQpT1tDQF01KE9PNClbQ0BIXTZbQ0gyXVtDQEBIXTdbQ0gyXVtDQEhdKFtDSDJdNilbQ0gyXVtDQEhdNVtDSDJdNw==

>  <s_epik_cmdline>  (224) 
J2VwaWtfcHl0aG9uJywgJy1waHQnLCAnMi4wJywgJy1waCcsICc3LjAnLCAnLXRuJywgJzgnLCAnLW1hJywgJzIwMCcsICctaW1hZScsICc8aW5maWxlLm1hZT4nLCAnLW9tYWUnLCAnPG91dGZpbGUubWFlPic=

>  <r_lp_tautomer_probability>  (224) 
1

>  <r_epik_Ionization_Penalty>  (224) 
3.0982e-13

>  <r_epik_Ionization_Penalty_Charging>  (224) 
0

>  <r_epik_Ionization_Penalty_Neutral>  (224) 
3.0982e-13

>  <r_epik_State_Penalty>  (224) 
-0

>  <r_epik_Charging_Adjusted_Penalty>  (224) 
0

>  <i_epik_Tot_Q>  (224) 
0

>  <i_epik_Tot_abs_Q>  (224) 
0

>  <s_lp_Force_Field>  (224) 
OPLS3e

>  <r_lp_Energy>  (224) 
68.4778

>  <b_lp_Chiralities_Consistent>  (224) 
1

>  <s_lp_Variant>  (224) 
58:0-1

>  <s_i_glide_gridfile>  (224) 
pfpi4k_grid

>  <i_i_glide_lignum>  (224) 
44

>  <i_i_glide_rotatable_bonds>  (224) 
0

>  <r_i_docking_score>  (224) 
-3.11796

>  <r_i_glide_ligand_efficiency>  (224) 
-0.135563

>  <r_i_glide_ligand_efficiency_sa>  (224) 
-0.385524

>  <r_i_glide_ligand_efficiency_ln>  (224) 
-0.75395

>  <r_i_glide_gscore>  (224) 
-3.11796

>  <r_i_glide_lipo>  (224) 
-0.546136

>  <r_i_glide_hbond>  (224) 
0

>  <r_i_glide_metal>  (224) 
-0

>  <r_i_glide_rewards>  (224) 
-1.32261

>  <r_i_glide_evdw>  (224) 
-25.9778

>  <r_i_glide_ecoul>  (224) 
0.331201

>  <r_i_glide_erotb>  (224) 
0

>  <r_i_glide_esite>  (224) 
0

>  <r_i_glide_emodel>  (224) 
-30.2067

>  <r_i_glide_energy>  (224) 
-25.6466

>  <r_i_glide_einternal>  (224) 
0

>  <r_i_glide_intrahb_reward>  (224) 
-0

>  <i_i_glide_confnum>  (224) 
2

>  <i_i_glide_posenum>  (224) 
13

>  <r_i_glide_eff_state_penalty>  (224) 
0

>  <ligand_id>  (224) 
58

>  <original_smiles>  (224) 
CC12CC3CC4CC3(OOC3(O1)C1CC5CC(C1)CC3C5)C4C2

>  <smiles>  (224) 
[H]C([H])([H])C12OC3(OOC45C([H])([H])C([H])(C([H])([H])C4([H])C1([H])[H])C5([H])C2([H])[H])C1([H])C([H])([H])C2([H])C([H])([H])C([H])(C1([H])[H])C([H])([H])C3([H])C2([H])[H]

$$$$
58:0:1
     RDKit          3D

 51 57  0  0  1  0  0  0  0  0999 V2000
    7.4534   -1.8587    0.1648 C   0  0  0  0  0  0  0  0  0  0  0  0
    5.9688   -2.1889   -0.0649 C   0  0  1  0  0  0  0  0  0  0  0  0
    5.8847   -3.6543   -0.5682 C   0  0  0  0  0  0  0  0  0  0  0  0
    4.7199   -3.9425   -1.5225 C   0  0  2  0  0  0  0  0  0  0  0  0
    5.0521   -3.4676   -2.9527 C   0  0  0  0  0  0  0  0  0  0  0  0
    4.0529   -2.3316   -3.0204 C   0  0  1  0  0  0  0  0  0  0  0  0
    2.6893   -2.8669   -2.5793 C   0  0  0  0  0  0  0  0  0  0  0  0
    3.5296   -3.0225   -1.3008 C   0  0  1  0  0  0  0  0  0  0  0  0
    2.7336   -3.1774   -0.1288 O   0  0  0  0  0  0  0  0  0  0  0  0
    3.5893   -3.5096    1.0723 O   0  0  0  0  0  0  0  0  0  0  0  0
    4.1128   -2.3164    1.6547 C   0  0  2  0  0  0  0  0  0  0  0  0
    5.4669   -2.0631    1.2640 O   0  0  0  0  0  0  0  0  0  0  0  0
    4.2981   -2.5844    3.1802 C   0  0  1  0  0  0  0  0  0  0  0  0
    4.9357   -1.3459    3.8726 C   0  0  0  0  0  0  0  0  0  0  0  0
    4.0048   -0.1266    3.7104 C   0  0  2  0  0  0  0  0  0  0  0  0
    2.6424   -0.4145    4.3686 C   0  0  0  0  0  0  0  0  0  0  0  0
    2.0104   -1.6585    3.7040 C   0  0  2  0  0  0  0  0  0  0  0  0
    2.9438   -2.8776    3.8698 C   0  0  0  0  0  0  0  0  0  0  0  0
    1.8075   -1.3809    2.2012 C   0  0  0  0  0  0  0  0  0  0  0  0
    3.1645   -1.0795    1.5286 C   0  0  1  0  0  0  0  0  0  0  0  0
    3.7987    0.1442    2.2090 C   0  0  0  0  0  0  0  0  0  0  0  0
    4.0057   -1.6064   -1.6542 C   0  0  1  0  0  0  0  0  0  0  0  0
    5.3162   -1.1486   -1.0128 C   0  0  0  0  0  0  0  0  0  0  0  0
    8.0344   -1.9139   -0.7571 H   0  0  0  0  0  0  0  0  0  0  0  0
    7.9038   -2.5566    0.8706 H   0  0  0  0  0  0  0  0  0  0  0  0
    7.5761   -0.8564    0.5789 H   0  0  0  0  0  0  0  0  0  0  0  0
    6.8152   -3.9194   -1.0696 H   0  0  0  0  0  0  0  0  0  0  0  0
    5.8188   -4.3231    0.2834 H   0  0  0  0  0  0  0  0  0  0  0  0
    4.4482   -4.9911   -1.4934 H   0  0  0  0  0  0  0  0  0  0  0  0
    6.0776   -3.1209   -3.0763 H   0  0  0  0  0  0  0  0  0  0  0  0
    4.8440   -4.2372   -3.6995 H   0  0  0  0  0  0  0  0  0  0  0  0
    4.0515   -1.6832   -3.8993 H   0  0  0  0  0  0  0  0  0  0  0  0
    1.8663   -2.1502   -2.5490 H   0  0  0  0  0  0  0  0  0  0  0  0
    2.3876   -3.8072   -3.0462 H   0  0  0  0  0  0  0  0  0  0  0  0
    4.9551   -3.4454    3.3242 H   0  0  0  0  0  0  0  0  0  0  0  0
    5.1185   -1.5409    4.9285 H   0  0  0  0  0  0  0  0  0  0  0  0
    5.9066   -1.1083    3.4384 H   0  0  0  0  0  0  0  0  0  0  0  0
    4.4599    0.7498    4.1751 H   0  0  0  0  0  0  0  0  0  0  0  0
    2.7591   -0.5707    5.4421 H   0  0  0  0  0  0  0  0  0  0  0  0
    1.9820    0.4442    4.2433 H   0  0  0  0  0  0  0  0  0  0  0  0
    1.0480   -1.8711    4.1747 H   0  0  0  0  0  0  0  0  0  0  0  0
    2.4824   -3.7707    3.4448 H   0  0  0  0  0  0  0  0  0  0  0  0
    3.0992   -3.0864    4.9306 H   0  0  0  0  0  0  0  0  0  0  0  0
    1.3399   -2.2466    1.7367 H   0  0  0  0  0  0  0  0  0  0  0  0
    1.1256   -0.5398    2.0597 H   0  0  0  0  0  0  0  0  0  0  0  0
    2.9607   -0.8017    0.5023 H   0  0  0  0  0  0  0  0  0  0  0  0
    3.1603    1.0187    2.0698 H   0  0  0  0  0  0  0  0  0  0  0  0
    4.7498    0.3853    1.7390 H   0  0  0  0  0  0  0  0  0  0  0  0
    3.2556   -0.8069   -1.6412 H   0  0  0  0  0  0  0  0  0  0  0  0
    5.1784   -0.2216   -0.4666 H   0  0  0  0  0  0  0  0  0  0  0  0
    6.0167   -0.9252   -1.8130 H   0  0  0  0  0  0  0  0  0  0  0  0
  2  1  1  1
  1 24  1  0
  1 25  1  0
  1 26  1  0
  2 12  1  0
  2 23  1  0
  2  3  1  0
  3  4  1  0
  3 27  1  0
  3 28  1  0
  4  8  1  0
  4  5  1  0
  4 29  1  6
  5  6  1  0
  5 30  1  0
  5 31  1  0
  6 22  1  0
  6  7  1  0
  6 32  1  6
  7  8  1  0
  7 33  1  0
  7 34  1  0
  8  9  1  1
  8 22  1  0
  9 10  1  0
 11 10  1  6
 11 20  1  0
 11 12  1  0
 11 13  1  0
 13 18  1  0
 13 14  1  0
 13 35  1  6
 14 15  1  0
 14 36  1  0
 14 37  1  0
 15 21  1  0
 15 16  1  0
 15 38  1  1
 16 17  1  0
 16 39  1  0
 16 40  1  0
 17 18  1  0
 17 19  1  0
 17 41  1  1
 18 42  1  0
 18 43  1  0
 19 20  1  0
 19 44  1  0
 19 45  1  0
 20 21  1  0
 20 46  1  6
 21 47  1  0
 21 48  1  0
 22 23  1  0
 22 49  1  6
 23 50  1  0
 23 51  1  0
M  END
>  <i_m_ct_stereo_status>  (225) 
1

>  <s_m_source_file>  (225) 
/var/tmp/pbs.5076255.sched01/tmpck0ladl8/45htcshi4i.sdf

>  <i_m_source_file_index>  (225) 
44

>  <i_lp_mmshare_version>  (225) 
48012

>  <i_f3d_flags>  (225) 
0

>  <s_epik_input>  (225) 
W0NIMl0xW0NAQEhdKFtDSDJdMilbQ0BASF0zW0NIMl1bQ0BdKFtDSDNdKShbQ0gyXVtDQEhdMVtDQF0yMzQpT1tDQF01KE9PNClbQ0BIXTZbQ0gyXVtDQEBIXTdbQ0gyXVtDQEhdKFtDSDJdNilbQ0gyXVtDQEhdNVtDSDJdNw==

>  <s_epik_cmdline>  (225) 
J2VwaWtfcHl0aG9uJywgJy1waHQnLCAnMi4wJywgJy1waCcsICc3LjAnLCAnLXRuJywgJzgnLCAnLW1hJywgJzIwMCcsICctaW1hZScsICc8aW5maWxlLm1hZT4nLCAnLW9tYWUnLCAnPG91dGZpbGUubWFlPic=

>  <r_lp_tautomer_probability>  (225) 
1

>  <r_epik_Ionization_Penalty>  (225) 
3.0982e-13

>  <r_epik_Ionization_Penalty_Charging>  (225) 
0

>  <r_epik_Ionization_Penalty_Neutral>  (225) 
3.0982e-13

>  <r_epik_State_Penalty>  (225) 
-0

>  <r_epik_Charging_Adjusted_Penalty>  (225) 
0

>  <i_epik_Tot_Q>  (225) 
0

>  <i_epik_Tot_abs_Q>  (225) 
0

>  <s_lp_Force_Field>  (225) 
OPLS3e

>  <r_lp_Energy>  (225) 
68.4778

>  <b_lp_Chiralities_Consistent>  (225) 
1

>  <s_lp_Variant>  (225) 
58:0-1

>  <s_i_glide_gridfile>  (225) 
pfpi4k_grid

>  <i_i_glide_lignum>  (225) 
44

>  <i_i_glide_rotatable_bonds>  (225) 
0

>  <r_i_docking_score>  (225) 
-3.07573

>  <r_i_glide_ligand_efficiency>  (225) 
-0.133727

>  <r_i_glide_ligand_efficiency_sa>  (225) 
-0.380303

>  <r_i_glide_ligand_efficiency_ln>  (225) 
-0.74374

>  <r_i_glide_gscore>  (225) 
-3.07573

>  <r_i_glide_lipo>  (225) 
-0.489886

>  <r_i_glide_hbond>  (225) 
0

>  <r_i_glide_metal>  (225) 
-0

>  <r_i_glide_rewards>  (225) 
-1.25158

>  <r_i_glide_evdw>  (225) 
-26.5076

>  <r_i_glide_ecoul>  (225) 
-0.0578565

>  <r_i_glide_erotb>  (225) 
0

>  <r_i_glide_esite>  (225) 
-0.000202798

>  <r_i_glide_emodel>  (225) 
-31.0876

>  <r_i_glide_energy>  (225) 
-26.5655

>  <r_i_glide_einternal>  (225) 
0

>  <r_i_glide_intrahb_reward>  (225) 
-0

>  <i_i_glide_confnum>  (225) 
1

>  <i_i_glide_posenum>  (225) 
1

>  <r_i_glide_eff_state_penalty>  (225) 
0

>  <ligand_id>  (225) 
58

>  <original_smiles>  (225) 
CC12CC3CC4CC3(OOC3(O1)C1CC5CC(C1)CC3C5)C4C2

>  <smiles>  (225) 
[H]C([H])([H])C12OC3(OOC45C([H])([H])C([H])(C([H])([H])C4([H])C1([H])[H])C5([H])C2([H])[H])C1([H])C([H])([H])C2([H])C([H])([H])C([H])(C1([H])[H])C([H])([H])C3([H])C2([H])[H]

$$$$
58:0:2
     RDKit          3D

 51 57  0  0  1  0  0  0  0  0999 V2000
    7.0416   -1.8581    0.8398 C   0  0  0  0  0  0  0  0  0  0  0  0
    5.7874   -2.5859    0.3922 C   0  0  1  0  0  0  0  0  0  0  0  0
    6.1447   -3.3921   -0.8953 C   0  0  0  0  0  0  0  0  0  0  0  0
    4.9901   -3.5747   -1.8857 C   0  0  2  0  0  0  0  0  0  0  0  0
    4.8155   -2.2986   -2.7242 C   0  0  0  0  0  0  0  0  0  0  0  0
    3.4893   -1.8563   -2.1403 C   0  0  1  0  0  0  0  0  0  0  0  0
    2.5348   -3.0534   -2.1570 C   0  0  0  0  0  0  0  0  0  0  0  0
    3.6423   -3.5146   -1.1985 C   0  0  1  0  0  0  0  0  0  0  0  0
    3.2126   -4.5819   -0.3642 O   0  0  0  0  0  0  0  0  0  0  0  0
    4.3631   -5.1662    0.4149 O   0  0  0  0  0  0  0  0  0  0  0  0
    4.5307   -4.4205    1.6170 C   0  0  2  0  0  0  0  0  0  0  0  0
    5.5785   -3.4407    1.5175 O   0  0  0  0  0  0  0  0  0  0  0  0
    5.1114   -5.4030    2.6769 C   0  0  1  0  0  0  0  0  0  0  0  0
    5.3783   -4.6645    4.0156 C   0  0  0  0  0  0  0  0  0  0  0  0
    4.0682   -4.0777    4.5677 C   0  0  2  0  0  0  0  0  0  0  0  0
    3.0790   -5.2203    4.8460 C   0  0  0  0  0  0  0  0  0  0  0  0
    2.8115   -5.9977    3.5368 C   0  0  2  0  0  0  0  0  0  0  0  0
    4.1325   -6.5694    2.9792 C   0  0  0  0  0  0  0  0  0  0  0  0
    2.2083   -5.0331    2.4978 C   0  0  0  0  0  0  0  0  0  0  0  0
    3.1966   -3.8721    2.2277 C   0  0  1  0  0  0  0  0  0  0  0  0
    3.4661   -3.1128    3.5370 C   0  0  0  0  0  0  0  0  0  0  0  0
    3.5061   -2.1074   -0.6192 C   0  0  1  0  0  0  0  0  0  0  0  0
    4.6493   -1.5625    0.2257 C   0  0  0  0  0  0  0  0  0  0  0  0
    7.3847   -1.1213    0.1088 H   0  0  0  0  0  0  0  0  0  0  0  0
    7.8508   -2.5769    0.9758 H   0  0  0  0  0  0  0  0  0  0  0  0
    6.8918   -1.3354    1.7846 H   0  0  0  0  0  0  0  0  0  0  0  0
    6.9963   -2.9419   -1.4263 H   0  0  0  0  0  0  0  0  0  0  0  0
    6.4742   -4.3740   -0.5918 H   0  0  0  0  0  0  0  0  0  0  0  0
    5.0827   -4.4574   -2.5105 H   0  0  0  0  0  0  0  0  0  0  0  0
    5.5657   -1.5370   -2.5346 H   0  0  0  0  0  0  0  0  0  0  0  0
    4.7382   -2.4824   -3.7924 H   0  0  0  0  0  0  0  0  0  0  0  0
    3.0404   -0.9156   -2.4333 H   0  0  0  0  0  0  0  0  0  0  0  0
    1.5308   -2.9154   -1.7263 H   0  0  0  0  0  0  0  0  0  0  0  0
    2.5047   -3.5877   -3.0977 H   0  0  0  0  0  0  0  0  0  0  0  0
    6.0477   -5.8329    2.3132 H   0  0  0  0  0  0  0  0  0  0  0  0
    5.8401   -5.3254    4.7512 H   0  0  0  0  0  0  0  0  0  0  0  0
    6.0687   -3.8447    3.8740 H   0  0  0  0  0  0  0  0  0  0  0  0
    4.2663   -3.5342    5.4892 H   0  0  0  0  0  0  0  0  0  0  0  0
    3.4751   -5.8920    5.6046 H   0  0  0  0  0  0  0  0  0  0  0  0
    2.1431   -4.8153    5.2259 H   0  0  0  0  0  0  0  0  0  0  0  0
    2.1232   -6.8233    3.7367 H   0  0  0  0  0  0  0  0  0  0  0  0
    3.9510   -7.1626    2.0819 H   0  0  0  0  0  0  0  0  0  0  0  0
    4.5800   -7.2530    3.7099 H   0  0  0  0  0  0  0  0  0  0  0  0
    1.9808   -5.5945    1.5878 H   0  0  0  0  0  0  0  0  0  0  0  0
    1.2537   -4.6446    2.8600 H   0  0  0  0  0  0  0  0  0  0  0  0
    2.6706   -3.1674    1.5991 H   0  0  0  0  0  0  0  0  0  0  0  0
    2.5379   -2.6799    3.9068 H   0  0  0  0  0  0  0  0  0  0  0  0
    4.1418   -2.2797    3.3549 H   0  0  0  0  0  0  0  0  0  0  0  0
    2.5646   -1.8787   -0.1413 H   0  0  0  0  0  0  0  0  0  0  0  0
    4.2811   -1.2699    1.2085 H   0  0  0  0  0  0  0  0  0  0  0  0
    5.0395   -0.6437   -0.2275 H   0  0  0  0  0  0  0  0  0  0  0  0
  2  1  1  1
  1 24  1  0
  1 25  1  0
  1 26  1  0
  2 12  1  0
  2 23  1  0
  2  3  1  0
  3  4  1  0
  3 27  1  0
  3 28  1  0
  4  8  1  0
  4  5  1  0
  4 29  1  6
  5  6  1  0
  5 30  1  0
  5 31  1  0
  6 22  1  0
  6  7  1  0
  6 32  1  1
  7  8  1  0
  7 33  1  0
  7 34  1  0
  8  9  1  1
  8 22  1  0
  9 10  1  0
 11 10  1  6
 11 20  1  0
 11 12  1  0
 11 13  1  0
 13 18  1  0
 13 14  1  0
 13 35  1  6
 14 15  1  0
 14 36  1  0
 14 37  1  0
 15 21  1  0
 15 16  1  0
 15 38  1  1
 16 17  1  0
 16 39  1  0
 16 40  1  0
 17 18  1  0
 17 19  1  0
 17 41  1  1
 18 42  1  0
 18 43  1  0
 19 20  1  0
 19 44  1  0
 19 45  1  0
 20 21  1  0
 20 46  1  6
 21 47  1  0
 21 48  1  0
 22 23  1  0
 22 49  1  1
 23 50  1  0
 23 51  1  0
M  END
>  <i_m_ct_stereo_status>  (226) 
1

>  <s_m_source_file>  (226) 
/var/tmp/pbs.5076255.sched01/tmpck0ladl8/45htcshi4i.sdf

>  <i_m_source_file_index>  (226) 
44

>  <i_lp_mmshare_version>  (226) 
48012

>  <i_f3d_flags>  (226) 
0

>  <s_epik_input>  (226) 
W0NIMl0xW0NAQEhdKFtDSDJdMilbQ0BASF0zW0NIMl1bQ0BdKFtDSDNdKShbQ0gyXVtDQEhdMVtDQF0yMzQpT1tDQF01KE9PNClbQ0BIXTZbQ0gyXVtDQEBIXTdbQ0gyXVtDQEhdKFtDSDJdNilbQ0gyXVtDQEhdNVtDSDJdNw==

>  <s_epik_cmdline>  (226) 
J2VwaWtfcHl0aG9uJywgJy1waHQnLCAnMi4wJywgJy1waCcsICc3LjAnLCAnLXRuJywgJzgnLCAnLW1hJywgJzIwMCcsICctaW1hZScsICc8aW5maWxlLm1hZT4nLCAnLW9tYWUnLCAnPG91dGZpbGUubWFlPic=

>  <r_lp_tautomer_probability>  (226) 
1

>  <r_epik_Ionization_Penalty>  (226) 
3.0982e-13

>  <r_epik_Ionization_Penalty_Charging>  (226) 
0

>  <r_epik_Ionization_Penalty_Neutral>  (226) 
3.0982e-13

>  <r_epik_State_Penalty>  (226) 
-0

>  <r_epik_Charging_Adjusted_Penalty>  (226) 
0

>  <i_epik_Tot_Q>  (226) 
0

>  <i_epik_Tot_abs_Q>  (226) 
0

>  <s_lp_Force_Field>  (226) 
OPLS3e

>  <r_lp_Energy>  (226) 
68.4778

>  <b_lp_Chiralities_Consistent>  (226) 
1

>  <s_lp_Variant>  (226) 
58:0-1

>  <s_i_glide_gridfile>  (226) 
pfpi4k_grid

>  <i_i_glide_lignum>  (226) 
44

>  <i_i_glide_rotatable_bonds>  (226) 
0

>  <r_i_docking_score>  (226) 
-2.56999

>  <r_i_glide_ligand_efficiency>  (226) 
-0.111739

>  <r_i_glide_ligand_efficiency_sa>  (226) 
-0.31777

>  <r_i_glide_ligand_efficiency_ln>  (226) 
-0.621447

>  <r_i_glide_gscore>  (226) 
-2.56999

>  <r_i_glide_lipo>  (226) 
-0.37352

>  <r_i_glide_hbond>  (226) 
0

>  <r_i_glide_metal>  (226) 
-0

>  <r_i_glide_rewards>  (226) 
-1.28057

>  <r_i_glide_evdw>  (226) 
-20.2179

>  <r_i_glide_ecoul>  (226) 
0.633315

>  <r_i_glide_erotb>  (226) 
0

>  <r_i_glide_esite>  (226) 
0

>  <r_i_glide_emodel>  (226) 
-23.185

>  <r_i_glide_energy>  (226) 
-19.5846

>  <r_i_glide_einternal>  (226) 
0

>  <r_i_glide_intrahb_reward>  (226) 
-0

>  <i_i_glide_confnum>  (226) 
2

>  <i_i_glide_posenum>  (226) 
12

>  <r_i_glide_eff_state_penalty>  (226) 
0

>  <ligand_id>  (226) 
58

>  <original_smiles>  (226) 
CC12CC3CC4CC3(OOC3(O1)C1CC5CC(C1)CC3C5)C4C2

>  <smiles>  (226) 
[H]C([H])([H])C12OC3(OOC45C([H])([H])C([H])(C([H])([H])C4([H])C1([H])[H])C5([H])C2([H])[H])C1([H])C([H])([H])C2([H])C([H])([H])C([H])(C1([H])[H])C([H])([H])C3([H])C2([H])[H]

$$$$
59:0:0
     RDKit          3D

 16 16  0  0  1  0  0  0  0  0999 V2000
   -8.2080   -4.1966   -5.5314 C   0  0  0  0  0  0  0  0  0  0  0  0
   -7.2070   -4.5342   -4.4177 C   0  0  0  0  0  0  0  0  0  0  0  0
   -6.2711   -5.6390   -4.7927 C   0  0  0  0  0  0  0  0  0  0  0  0
   -5.0051   -5.4003   -5.1151 N   0  0  0  0  0  0  0  0  0  0  0  0
   -4.4956   -6.6742   -5.4071 O   0  0  0  0  0  0  0  0  0  0  0  0
   -5.5235   -7.5337   -5.2275 C   0  0  0  0  0  0  0  0  0  0  0  0
   -5.3008   -8.9895   -5.4550 C   0  0  0  0  0  0  0  0  0  0  0  0
   -6.6555   -6.9431   -4.8559 N   0  0  0  0  0  0  0  0  0  0  0  0
   -8.8921   -3.4090   -5.2113 H   0  0  0  0  0  0  0  0  0  0  0  0
   -8.8136   -5.0669   -5.7908 H   0  0  0  0  0  0  0  0  0  0  0  0
   -7.7041   -3.8561   -6.4373 H   0  0  0  0  0  0  0  0  0  0  0  0
   -6.6333   -3.6416   -4.1629 H   0  0  0  0  0  0  0  0  0  0  0  0
   -7.7463   -4.8212   -3.5177 H   0  0  0  0  0  0  0  0  0  0  0  0
   -6.2267   -9.5370   -5.2787 H   0  0  0  0  0  0  0  0  0  0  0  0
   -4.5367   -9.3675   -4.7734 H   0  0  0  0  0  0  0  0  0  0  0  0
   -4.9831   -9.1656   -6.4828 H   0  0  0  0  0  0  0  0  0  0  0  0
  1  2  1  0
  1  9  1  0
  1 10  1  0
  1 11  1  0
  2  3  1  0
  2 12  1  0
  2 13  1  0
  3  8  1  0
  3  4  2  0
  4  5  1  0
  5  6  1  0
  6  7  1  0
  6  8  2  0
  7 14  1  0
  7 15  1  0
  7 16  1  0
M  END
>  <i_m_ct_stereo_status>  (227) 
1

>  <s_m_source_file>  (227) 
/var/tmp/pbs.5076255.sched01/tmpck0ladl8/45htcshi4i.sdf

>  <i_m_source_file_index>  (227) 
45

>  <i_lp_mmshare_version>  (227) 
48012

>  <i_f3d_flags>  (227) 
0

>  <s_epik_input>  (227) 
W0NIM11bQ0gyXWMxbm9jKG4xKVtDSDNd

>  <s_epik_cmdline>  (227) 
J2VwaWtfcHl0aG9uJywgJy1waHQnLCAnMi4wJywgJy1waCcsICc3LjAnLCAnLXRuJywgJzgnLCAnLW1hJywgJzIwMCcsICctaW1hZScsICc8aW5maWxlLm1hZT4nLCAnLW9tYWUnLCAnPG91dGZpbGUubWFlPic=

>  <r_lp_tautomer_probability>  (227) 
1

>  <r_epik_Ionization_Penalty>  (227) 
2.45035e-11

>  <r_epik_Ionization_Penalty_Charging>  (227) 
0

>  <r_epik_Ionization_Penalty_Neutral>  (227) 
2.45035e-11

>  <r_epik_State_Penalty>  (227) 
-0

>  <r_epik_Charging_Adjusted_Penalty>  (227) 
0

>  <i_epik_Tot_Q>  (227) 
0

>  <i_epik_Tot_abs_Q>  (227) 
0

>  <s_lp_Force_Field>  (227) 
OPLS3e

>  <r_lp_Energy>  (227) 
-0.924773

>  <b_lp_Chiralities_Consistent>  (227) 
1

>  <s_lp_Variant>  (227) 
59:0-1

>  <s_i_glide_gridfile>  (227) 
pfpi4k_grid

>  <i_i_glide_lignum>  (227) 
45

>  <i_i_glide_rotatable_bonds>  (227) 
1

>  <r_i_docking_score>  (227) 
-4.55607

>  <r_i_glide_ligand_efficiency>  (227) 
-0.569508

>  <r_i_glide_ligand_efficiency_sa>  (227) 
-1.13902

>  <r_i_glide_ligand_efficiency_ln>  (227) 
-1.47951

>  <r_i_glide_gscore>  (227) 
-4.55607

>  <r_i_glide_lipo>  (227) 
-1.18247

>  <r_i_glide_hbond>  (227) 
0

>  <r_i_glide_metal>  (227) 
-0

>  <r_i_glide_rewards>  (227) 
-2.1

>  <r_i_glide_evdw>  (227) 
-15.2198

>  <r_i_glide_ecoul>  (227) 
-3.27673

>  <r_i_glide_erotb>  (227) 
0

>  <r_i_glide_esite>  (227) 
-0.021099

>  <r_i_glide_emodel>  (227) 
-23.3755

>  <r_i_glide_energy>  (227) 
-18.4966

>  <r_i_glide_einternal>  (227) 
0.435384

>  <r_i_glide_intrahb_reward>  (227) 
-0

>  <i_i_glide_confnum>  (227) 
2

>  <i_i_glide_posenum>  (227) 
3

>  <r_i_glide_eff_state_penalty>  (227) 
0

>  <ligand_id>  (227) 
59

>  <original_smiles>  (227) 
CCc1noc(C)n1

>  <smiles>  (227) 
[H]C([H])([H])c1nc(C([H])([H])C([H])([H])[H])no1

$$$$
59:0:1
     RDKit          3D

 16 16  0  0  1  0  0  0  0  0999 V2000
   -1.4514   -9.3839    2.4693 C   0  0  0  0  0  0  0  0  0  0  0  0
   -0.8504   -8.1429    3.1304 C   0  0  0  0  0  0  0  0  0  0  0  0
    0.1870   -7.4807    2.2841 C   0  0  0  0  0  0  0  0  0  0  0  0
   -0.1525   -6.6558    1.3012 N   0  0  0  0  0  0  0  0  0  0  0  0
    1.0851   -6.2559    0.7732 O   0  0  0  0  0  0  0  0  0  0  0  0
    2.0246   -6.9009    1.5063 C   0  0  0  0  0  0  0  0  0  0  0  0
    3.4648   -6.6769    1.1981 C   0  0  0  0  0  0  0  0  0  0  0  0
    1.5217   -7.6743    2.4634 N   0  0  0  0  0  0  0  0  0  0  0  0
   -2.1854   -9.8531    3.1277 H   0  0  0  0  0  0  0  0  0  0  0  0
   -0.6879  -10.1308    2.2438 H   0  0  0  0  0  0  0  0  0  0  0  0
   -1.9603   -9.1289    1.5405 H   0  0  0  0  0  0  0  0  0  0  0  0
   -1.6422   -7.4309    3.3602 H   0  0  0  0  0  0  0  0  0  0  0  0
   -0.3936   -8.4272    4.0764 H   0  0  0  0  0  0  0  0  0  0  0  0
    4.0798   -7.2569    1.8833 H   0  0  0  0  0  0  0  0  0  0  0  0
    3.7164   -5.6247    1.3109 H   0  0  0  0  0  0  0  0  0  0  0  0
    3.7023   -6.9864    0.1828 H   0  0  0  0  0  0  0  0  0  0  0  0
  1  2  1  0
  1  9  1  0
  1 10  1  0
  1 11  1  0
  2  3  1  0
  2 12  1  0
  2 13  1  0
  3  8  1  0
  3  4  2  0
  4  5  1  0
  5  6  1  0
  6  7  1  0
  6  8  2  0
  7 14  1  0
  7 15  1  0
  7 16  1  0
M  END
>  <i_m_ct_stereo_status>  (228) 
1

>  <s_m_source_file>  (228) 
/var/tmp/pbs.5076255.sched01/tmpck0ladl8/45htcshi4i.sdf

>  <i_m_source_file_index>  (228) 
45

>  <i_lp_mmshare_version>  (228) 
48012

>  <i_f3d_flags>  (228) 
0

>  <s_epik_input>  (228) 
W0NIM11bQ0gyXWMxbm9jKG4xKVtDSDNd

>  <s_epik_cmdline>  (228) 
J2VwaWtfcHl0aG9uJywgJy1waHQnLCAnMi4wJywgJy1waCcsICc3LjAnLCAnLXRuJywgJzgnLCAnLW1hJywgJzIwMCcsICctaW1hZScsICc8aW5maWxlLm1hZT4nLCAnLW9tYWUnLCAnPG91dGZpbGUubWFlPic=

>  <r_lp_tautomer_probability>  (228) 
1

>  <r_epik_Ionization_Penalty>  (228) 
2.45035e-11

>  <r_epik_Ionization_Penalty_Charging>  (228) 
0

>  <r_epik_Ionization_Penalty_Neutral>  (228) 
2.45035e-11

>  <r_epik_State_Penalty>  (228) 
-0

>  <r_epik_Charging_Adjusted_Penalty>  (228) 
0

>  <i_epik_Tot_Q>  (228) 
0

>  <i_epik_Tot_abs_Q>  (228) 
0

>  <s_lp_Force_Field>  (228) 
OPLS3e

>  <r_lp_Energy>  (228) 
-0.924773

>  <b_lp_Chiralities_Consistent>  (228) 
1

>  <s_lp_Variant>  (228) 
59:0-1

>  <s_i_glide_gridfile>  (228) 
pfpi4k_grid

>  <i_i_glide_lignum>  (228) 
45

>  <i_i_glide_rotatable_bonds>  (228) 
1

>  <r_i_docking_score>  (228) 
-3.91578

>  <r_i_glide_ligand_efficiency>  (228) 
-0.489472

>  <r_i_glide_ligand_efficiency_sa>  (228) 
-0.978944

>  <r_i_glide_ligand_efficiency_ln>  (228) 
-1.27159

>  <r_i_glide_gscore>  (228) 
-3.91578

>  <r_i_glide_lipo>  (228) 
-0.311484

>  <r_i_glide_hbond>  (228) 
0

>  <r_i_glide_metal>  (228) 
-0

>  <r_i_glide_rewards>  (228) 
-2.25

>  <r_i_glide_evdw>  (228) 
-12.1589

>  <r_i_glide_ecoul>  (228) 
-3.25633

>  <r_i_glide_erotb>  (228) 
0

>  <r_i_glide_esite>  (228) 
-0.257896

>  <r_i_glide_emodel>  (228) 
-19.7584

>  <r_i_glide_energy>  (228) 
-15.4153

>  <r_i_glide_einternal>  (228) 
0.18227

>  <r_i_glide_intrahb_reward>  (228) 
-0

>  <i_i_glide_confnum>  (228) 
2

>  <i_i_glide_posenum>  (228) 
29

>  <r_i_glide_eff_state_penalty>  (228) 
0

>  <ligand_id>  (228) 
59

>  <original_smiles>  (228) 
CCc1noc(C)n1

>  <smiles>  (228) 
[H]C([H])([H])c1nc(C([H])([H])C([H])([H])[H])no1

$$$$
59:0:2
     RDKit          3D

 16 16  0  0  1  0  0  0  0  0999 V2000
   -1.7359   -8.2470    3.7768 C   0  0  0  0  0  0  0  0  0  0  0  0
   -1.1617   -8.6905    2.4258 C   0  0  0  0  0  0  0  0  0  0  0  0
   -0.0019   -7.8537    1.9836 C   0  0  0  0  0  0  0  0  0  0  0  0
   -0.1805   -6.7138    1.3182 N   0  0  0  0  0  0  0  0  0  0  0  0
    1.1252   -6.2608    1.0935 O   0  0  0  0  0  0  0  0  0  0  0  0
    1.9398   -7.1736    1.6817 C   0  0  0  0  0  0  0  0  0  0  0  0
    3.4103   -6.9648    1.6309 C   0  0  0  0  0  0  0  0  0  0  0  0
    1.2888   -8.1694    2.2734 N   0  0  0  0  0  0  0  0  0  0  0  0
   -2.5687   -8.8846    4.0711 H   0  0  0  0  0  0  0  0  0  0  0  0
   -2.0974   -7.2198    3.7397 H   0  0  0  0  0  0  0  0  0  0  0  0
   -0.9833   -8.3175    4.5608 H   0  0  0  0  0  0  0  0  0  0  0  0
   -0.8403   -9.7307    2.4957 H   0  0  0  0  0  0  0  0  0  0  0  0
   -1.9463   -8.6669    1.6681 H   0  0  0  0  0  0  0  0  0  0  0  0
    3.9153   -7.7841    2.1406 H   0  0  0  0  0  0  0  0  0  0  0  0
    3.6677   -6.0269    2.1238 H   0  0  0  0  0  0  0  0  0  0  0  0
    3.7464   -6.9290    0.5941 H   0  0  0  0  0  0  0  0  0  0  0  0
  1  2  1  0
  1  9  1  0
  1 10  1  0
  1 11  1  0
  2  3  1  0
  2 12  1  0
  2 13  1  0
  3  8  1  0
  3  4  2  0
  4  5  1  0
  5  6  1  0
  6  7  1  0
  6  8  2  0
  7 14  1  0
  7 15  1  0
  7 16  1  0
M  END
>  <i_m_ct_stereo_status>  (229) 
1

>  <s_m_source_file>  (229) 
/var/tmp/pbs.5076255.sched01/tmpck0ladl8/45htcshi4i.sdf

>  <i_m_source_file_index>  (229) 
45

>  <i_lp_mmshare_version>  (229) 
48012

>  <i_f3d_flags>  (229) 
0

>  <s_epik_input>  (229) 
W0NIM11bQ0gyXWMxbm9jKG4xKVtDSDNd

>  <s_epik_cmdline>  (229) 
J2VwaWtfcHl0aG9uJywgJy1waHQnLCAnMi4wJywgJy1waCcsICc3LjAnLCAnLXRuJywgJzgnLCAnLW1hJywgJzIwMCcsICctaW1hZScsICc8aW5maWxlLm1hZT4nLCAnLW9tYWUnLCAnPG91dGZpbGUubWFlPic=

>  <r_lp_tautomer_probability>  (229) 
1

>  <r_epik_Ionization_Penalty>  (229) 
2.45035e-11

>  <r_epik_Ionization_Penalty_Charging>  (229) 
0

>  <r_epik_Ionization_Penalty_Neutral>  (229) 
2.45035e-11

>  <r_epik_State_Penalty>  (229) 
-0

>  <r_epik_Charging_Adjusted_Penalty>  (229) 
0

>  <i_epik_Tot_Q>  (229) 
0

>  <i_epik_Tot_abs_Q>  (229) 
0

>  <s_lp_Force_Field>  (229) 
OPLS3e

>  <r_lp_Energy>  (229) 
-0.924773

>  <b_lp_Chiralities_Consistent>  (229) 
1

>  <s_lp_Variant>  (229) 
59:0-1

>  <s_i_glide_gridfile>  (229) 
pfpi4k_grid

>  <i_i_glide_lignum>  (229) 
45

>  <i_i_glide_rotatable_bonds>  (229) 
1

>  <r_i_docking_score>  (229) 
-3.74093

>  <r_i_glide_ligand_efficiency>  (229) 
-0.467616

>  <r_i_glide_ligand_efficiency_sa>  (229) 
-0.935231

>  <r_i_glide_ligand_efficiency_ln>  (229) 
-1.21481

>  <r_i_glide_gscore>  (229) 
-3.74093

>  <r_i_glide_lipo>  (229) 
-0.0976287

>  <r_i_glide_hbond>  (229) 
0

>  <r_i_glide_metal>  (229) 
-0

>  <r_i_glide_rewards>  (229) 
-2.25

>  <r_i_glide_evdw>  (229) 
-12.5037

>  <r_i_glide_ecoul>  (229) 
-3.38762

>  <r_i_glide_erotb>  (229) 
0

>  <r_i_glide_esite>  (229) 
-0.259969

>  <r_i_glide_emodel>  (229) 
-20.1402

>  <r_i_glide_energy>  (229) 
-15.8913

>  <r_i_glide_einternal>  (229) 
0.0264307

>  <r_i_glide_intrahb_reward>  (229) 
-0

>  <i_i_glide_confnum>  (229) 
1

>  <i_i_glide_posenum>  (229) 
19

>  <r_i_glide_eff_state_penalty>  (229) 
0

>  <ligand_id>  (229) 
59

>  <original_smiles>  (229) 
CCc1noc(C)n1

>  <smiles>  (229) 
[H]C([H])([H])c1nc(C([H])([H])C([H])([H])[H])no1

$$$$
60:0:0
     RDKit          3D

 81 87  0  0  1  0  0  0  0  0999 V2000
   -0.8215   -4.5045    8.5359 C   0  0  0  0  0  0  0  0  0  0  0  0
    0.3099   -3.5840    9.0146 C   0  0  0  0  0  0  0  0  0  0  0  0
    0.9009   -4.0088   10.3651 C   0  0  0  0  0  0  0  0  0  0  0  0
    1.3465   -3.6045    8.0710 O   0  0  0  0  0  0  0  0  0  0  0  0
    1.2638   -2.4087    7.4048 C   0  0  2  0  0  0  0  0  0  0  0  0
    2.4523   -1.8438    6.9157 O   0  0  0  0  0  0  0  0  0  0  0  0
    2.2200   -0.5794    6.2431 C   0  0  1  0  0  0  0  0  0  0  0  0
    2.3854   -0.7281    4.8514 O   0  0  0  0  0  0  0  0  0  0  0  0
    3.6827   -0.4402    4.3419 C   0  0  0  0  0  0  0  0  0  0  0  0
    3.7423   -0.2667    2.7837 C   0  0  2  0  0  0  0  0  0  0  0  0
    2.7356    0.7925    2.2141 C   0  0  0  0  0  0  0  0  0  0  0  0
    2.7479    2.1973    2.8828 C   0  0  0  0  0  0  0  0  0  0  0  0
    1.5912    2.1787    3.8669 C   0  0  0  0  0  0  0  0  0  0  0  0
    0.5253    1.3163    3.1824 C   0  0  0  0  0  0  0  0  0  0  0  0
    1.2629    0.3475    2.2546 C   0  0  0  0  0  0  0  0  0  0  0  0
    3.7811   -1.6461    2.0335 C   0  0  2  0  0  0  0  0  0  0  0  0
    5.0407   -2.4692    2.4501 C   0  0  0  0  0  0  0  0  0  0  0  0
    5.8660   -3.2407    1.3979 C   0  0  1  0  0  0  0  0  0  0  0  0
    5.0811   -4.3478    0.6681 C   0  0  0  0  0  0  0  0  0  0  0  0
    4.2687   -3.8303   -0.5317 C   0  0  2  0  0  0  0  0  0  0  0  0
    5.1849   -3.0651   -1.4877 C   0  0  0  0  0  0  0  0  0  0  0  0
    5.7640   -1.8483   -0.7623 C   0  0  2  0  0  0  0  0  0  0  0  0
    6.6233   -2.3110    0.4265 C   0  0  0  0  0  0  0  0  0  0  0  0
    4.6349   -0.8948   -0.3326 C   0  0  0  0  0  0  0  0  0  0  0  0
    3.5221   -1.5746    0.4994 C   0  0  1  0  0  0  0  0  0  0  0  0
    3.0976   -2.9290   -0.1063 C   0  0  0  0  0  0  0  0  0  0  0  0
    0.7870   -0.0451    6.4981 C   0  0  2  0  0  0  0  0  0  0  0  0
    0.5821    1.3521    6.3912 O   0  0  0  0  0  0  0  0  0  0  0  0
   -0.5887    1.5851    7.1694 C   0  0  0  0  0  0  0  0  0  0  0  0
   -0.4109    2.9156    7.9076 C   0  0  0  0  0  0  0  0  0  0  0  0
   -1.7847    1.6116    6.2086 C   0  0  0  0  0  0  0  0  0  0  0  0
   -0.7161    0.5314    8.0716 O   0  0  0  0  0  0  0  0  0  0  0  0
    0.5291   -0.1225    7.9878 C   0  0  1  0  0  0  0  0  0  0  0  0
    0.7813   -1.5222    8.5228 C   0  0  1  0  0  0  0  0  0  0  0  0
   -0.2197   -2.2903    9.1297 O   0  0  0  0  0  0  0  0  0  0  0  0
   -1.2365   -4.1400    7.5897 H   0  0  0  0  0  0  0  0  0  0  0  0
   -1.6152   -4.5260    9.2723 H   0  0  0  0  0  0  0  0  0  0  0  0
   -0.4430   -5.5112    8.3791 H   0  0  0  0  0  0  0  0  0  0  0  0
    1.7000   -3.3199   10.6730 H   0  0  0  0  0  0  0  0  0  0  0  0
    1.3254   -5.0087   10.2965 H   0  0  0  0  0  0  0  0  0  0  0  0
    0.1317   -3.9918   11.1270 H   0  0  0  0  0  0  0  0  0  0  0  0
    0.5566   -2.5578    6.5962 H   0  0  0  0  0  0  0  0  0  0  0  0
    2.9425    0.1088    6.6752 H   0  0  0  0  0  0  0  0  0  0  0  0
    4.0467    0.4967    4.7514 H   0  0  0  0  0  0  0  0  0  0  0  0
    4.3785   -1.2117    4.7029 H   0  0  0  0  0  0  0  0  0  0  0  0
    4.7333    0.1548    2.5877 H   0  0  0  0  0  0  0  0  0  0  0  0
    3.0211    0.9663    1.1740 H   0  0  0  0  0  0  0  0  0  0  0  0
    3.6713    2.4036    3.4160 H   0  0  0  0  0  0  0  0  0  0  0  0
    2.6040    2.9886    2.1508 H   0  0  0  0  0  0  0  0  0  0  0  0
    1.9678    1.7229    4.7972 H   0  0  0  0  0  0  0  0  0  0  0  0
    1.2413    3.1721    4.1545 H   0  0  0  0  0  0  0  0  0  0  0  0
   -0.0891    0.7703    3.8908 H   0  0  0  0  0  0  0  0  0  0  0  0
   -0.1565    1.9234    2.5823 H   0  0  0  0  0  0  0  0  0  0  0  0
    0.8171    0.3763    1.2628 H   0  0  0  0  0  0  0  0  0  0  0  0
    1.1432   -0.6793    2.6008 H   0  0  0  0  0  0  0  0  0  0  0  0
    2.9289   -2.1988    2.4368 H   0  0  0  0  0  0  0  0  0  0  0  0
    5.7541   -1.8152    2.9518 H   0  0  0  0  0  0  0  0  0  0  0  0
    4.7243   -3.1890    3.2061 H   0  0  0  0  0  0  0  0  0  0  0  0
    6.6286   -3.7557    1.9826 H   0  0  0  0  0  0  0  0  0  0  0  0
    5.7962   -5.0841    0.2956 H   0  0  0  0  0  0  0  0  0  0  0  0
    4.4310   -4.8767    1.3651 H   0  0  0  0  0  0  0  0  0  0  0  0
    3.8581   -4.6789   -1.0640 H   0  0  0  0  0  0  0  0  0  0  0  0
    5.9904   -3.7121   -1.8386 H   0  0  0  0  0  0  0  0  0  0  0  0
    4.6236   -2.7478   -2.3671 H   0  0  0  0  0  0  0  0  0  0  0  0
    6.3911   -1.3317   -1.4728 H   0  0  0  0  0  0  0  0  0  0  0  0
    7.0264   -1.4484    0.9589 H   0  0  0  0  0  0  0  0  0  0  0  0
    7.4825   -2.8549    0.0320 H   0  0  0  0  0  0  0  0  0  0  0  0
    5.0390   -0.0294    0.1913 H   0  0  0  0  0  0  0  0  0  0  0  0
    4.1845   -0.5084   -1.2473 H   0  0  0  0  0  0  0  0  0  0  0  0
    2.6370   -0.9580    0.3687 H   0  0  0  0  0  0  0  0  0  0  0  0
    2.5027   -2.7256   -0.9980 H   0  0  0  0  0  0  0  0  0  0  0  0
    2.4461   -3.4679    0.5811 H   0  0  0  0  0  0  0  0  0  0  0  0
    0.0403   -0.5919    5.9079 H   0  0  0  0  0  0  0  0  0  0  0  0
    0.4596    2.8954    8.5858 H   0  0  0  0  0  0  0  0  0  0  0  0
   -1.2853    3.1387    8.5045 H   0  0  0  0  0  0  0  0  0  0  0  0
   -0.2638    3.7253    7.1863 H   0  0  0  0  0  0  0  0  0  0  0  0
   -1.9098    0.6555    5.6779 H   0  0  0  0  0  0  0  0  0  0  0  0
   -1.6360    2.3869    5.4522 H   0  0  0  0  0  0  0  0  0  0  0  0
   -2.7007    1.8283    6.7397 H   0  0  0  0  0  0  0  0  0  0  0  0
    1.2533    0.5229    8.4906 H   0  0  0  0  0  0  0  0  0  0  0  0
    1.6110   -1.4354    9.2322 H   0  0  0  0  0  0  0  0  0  0  0  0
  1  2  1  0
  1 36  1  0
  1 37  1  0
  1 38  1  0
  2 35  1  0
  2  3  1  0
  2  4  1  0
  3 39  1  0
  3 40  1  0
  3 41  1  0
  4  5  1  0
  5 34  1  0
  5  6  1  0
  5 42  1  6
  6  7  1  0
  7  8  1  0
  7 27  1  0
  7 43  1  1
  8  9  1  0
  9 10  1  0
  9 44  1  0
  9 45  1  0
 10 11  1  0
 10 16  1  0
 10 46  1  1
 11 15  1  0
 11 12  1  0
 11 47  1  0
 12 13  1  0
 12 48  1  0
 12 49  1  0
 13 14  1  0
 13 50  1  0
 13 51  1  0
 14 15  1  0
 14 52  1  0
 14 53  1  0
 15 54  1  0
 15 55  1  0
 16 25  1  0
 16 17  1  0
 16 56  1  1
 17 18  1  0
 17 57  1  0
 17 58  1  0
 18 23  1  0
 18 19  1  0
 18 59  1  1
 19 20  1  0
 19 60  1  0
 19 61  1  0
 20 26  1  0
 20 21  1  0
 20 62  1  6
 21 22  1  0
 21 63  1  0
 21 64  1  0
 22 23  1  0
 22 24  1  0
 22 65  1  6
 23 66  1  0
 23 67  1  0
 24 25  1  0
 24 68  1  0
 24 69  1  0
 25 26  1  0
 25 70  1  1
 26 71  1  0
 26 72  1  0
 27 33  1  0
 27 28  1  0
 27 73  1  6
 28 29  1  0
 29 30  1  0
 29 31  1  0
 29 32  1  0
 30 74  1  0
 30 75  1  0
 30 76  1  0
 31 77  1  0
 31 78  1  0
 31 79  1  0
 32 33  1  0
 33 34  1  0
 33 80  1  1
 34 35  1  0
 34 81  1  1
M  END
>  <i_m_ct_stereo_status>  (230) 
1

>  <s_m_source_file>  (230) 
/var/tmp/pbs.5076255.sched01/tmpegbcst3k/90u3quomt0.sdf

>  <i_m_source_file_index>  (230) 
1

>  <i_lp_mmshare_version>  (230) 
48012

>  <i_f3d_flags>  (230) 
2

>  <s_epik_input>  (230) 
W0NIM11DKE8xKShbQ0gzXSlPW0NAQEhdKFtDQEhdMTIpW0NASF0zW0NAQEhdKE9DKE8zKShbQ0gzXSlbQ0gzXSlbQ0BASF0oTzIpT1tDSDJdW0NASF0oW0NIXTRbQ0gyXVtDSDJdW0NIMl1bQ0gyXTQpW0NASF0oW0NIMl1bQ0BASF01NilbQ0BIXTdbQ0gyXVtDQEBIXShbQ0gyXTYpW0NIMl1bQ0BASF0oW0NIMl01KVtDSDJdNw==

>  <s_epik_cmdline>  (230) 
J2VwaWtfcHl0aG9uJywgJy1waHQnLCAnMi4wJywgJy1waCcsICc3LjAnLCAnLXRuJywgJzgnLCAnLW1hJywgJzIwMCcsICctaW1hZScsICc8aW5maWxlLm1hZT4nLCAnLW9tYWUnLCAnPG91dGZpbGUubWFlPic=

>  <r_lp_tautomer_probability>  (230) 
1

>  <r_epik_Ionization_Penalty>  (230) 
3.07846e-14

>  <r_epik_Ionization_Penalty_Charging>  (230) 
0

>  <r_epik_Ionization_Penalty_Neutral>  (230) 
3.07846e-14

>  <r_epik_State_Penalty>  (230) 
-0

>  <r_epik_Charging_Adjusted_Penalty>  (230) 
0

>  <i_epik_Tot_Q>  (230) 
0

>  <i_epik_Tot_abs_Q>  (230) 
0

>  <s_epik_Chemistry_Notes>  (230) 
This compound contains an acetal/aminal-like group ( X-CH(R)-Y where X, Y are N, S, or O) that may be acid/base labile, releasing an aldehyde.

>  <s_lp_Force_Field>  (230) 
OPLS3e

>  <r_lp_Energy>  (230) 
64.66

>  <b_lp_Chiralities_Consistent>  (230) 
0

>  <s_lp_Variant>  (230) 
60:0-1

>  <s_i_glide_gridfile>  (230) 
pfpi4k_grid

>  <i_i_glide_lignum>  (230) 
1

>  <i_i_glide_rotatable_bonds>  (230) 
5

>  <r_i_docking_score>  (230) 
-1.74458

>  <r_i_glide_ligand_efficiency>  (230) 
-0.0498451

>  <r_i_glide_ligand_efficiency_sa>  (230) 
-0.163046

>  <r_i_glide_ligand_efficiency_ln>  (230) 
-0.382973

>  <r_i_glide_gscore>  (230) 
-1.74458

>  <r_i_glide_lipo>  (230) 
-0.377968

>  <r_i_glide_hbond>  (230) 
-0.19787

>  <r_i_glide_metal>  (230) 
-0

>  <r_i_glide_rewards>  (230) 
-0.0636004

>  <r_i_glide_evdw>  (230) 
-20.6262

>  <r_i_glide_ecoul>  (230) 
-3.03525

>  <r_i_glide_erotb>  (230) 
0.422667

>  <r_i_glide_esite>  (230) 
-0.0412084

>  <r_i_glide_emodel>  (230) 
-24.0524

>  <r_i_glide_energy>  (230) 
-23.6614

>  <r_i_glide_einternal>  (230) 
2.9025

>  <r_i_glide_intrahb_reward>  (230) 
-0

>  <i_i_glide_confnum>  (230) 
4

>  <i_i_glide_posenum>  (230) 
4

>  <r_i_glide_eff_state_penalty>  (230) 
0

>  <ligand_id>  (230) 
60

>  <original_smiles>  (230) 
CC1(C)OC2OC(OCC(C3CCCC3)C3CC4CC5CC(C4)CC3C5)C3OC(C)(C)OC3C2O1

>  <smiles>  (230) 
[H]C([H])([H])C1(C([H])([H])[H])OC2([H])OC([H])(OC([H])([H])C([H])(C3([H])C([H])([H])C([H])([H])C([H])([H])C3([H])[H])C3([H])C([H])([H])C4([H])C([H])([H])C5([H])C([H])([H])C([H])(C4([H])[H])C([H])([H])C3([H])C5([H])[H])C3([H])OC(C([H])([H])[H])(C([H])([H])[H])OC3([H])C2([H])O1

$$$$
60:0:1
     RDKit          3D

 81 87  0  0  1  0  0  0  0  0999 V2000
    4.8906   -7.5132    2.5418 C   0  0  0  0  0  0  0  0  0  0  0  0
    3.6671   -6.9993    1.7673 C   0  0  0  0  0  0  0  0  0  0  0  0
    2.5793   -8.0826    1.6483 C   0  0  0  0  0  0  0  0  0  0  0  0
    3.1156   -5.8941    2.4371 O   0  0  0  0  0  0  0  0  0  0  0  0
    3.4971   -4.7893    1.7066 C   0  0  2  0  0  0  0  0  0  0  0  0
    2.6244   -3.6837    1.7015 O   0  0  0  0  0  0  0  0  0  0  0  0
    3.0954   -2.5729    0.9167 C   0  0  1  0  0  0  0  0  0  0  0  0
    3.5519   -1.5421    1.7435 O   0  0  0  0  0  0  0  0  0  0  0  0
    2.5453   -0.9386    2.5651 C   0  0  0  0  0  0  0  0  0  0  0  0
    3.1078    0.2246    3.4505 C   0  0  2  0  0  0  0  0  0  0  0  0
    4.3205   -0.3223    4.2914 C   0  0  0  0  0  0  0  0  0  0  0  0
    4.0065   -1.1843    5.5331 C   0  0  0  0  0  0  0  0  0  0  0  0
    5.2667   -1.0920    6.4008 C   0  0  0  0  0  0  0  0  0  0  0  0
    5.8217    0.3073    6.1385 C   0  0  0  0  0  0  0  0  0  0  0  0
    5.3984    0.7105    4.7128 C   0  0  0  0  0  0  0  0  0  0  0  0
    1.9585    0.9446    4.2602 C   0  0  2  0  0  0  0  0  0  0  0  0
    0.8682    1.5303    3.3052 C   0  0  0  0  0  0  0  0  0  0  0  0
    0.2909    2.9486    3.5464 C   0  0  1  0  0  0  0  0  0  0  0  0
   -0.4708    3.1280    4.8787 C   0  0  0  0  0  0  0  0  0  0  0  0
    0.4410    3.4594    6.0706 C   0  0  2  0  0  0  0  0  0  0  0  0
    1.3003    4.6956    5.7511 C   0  0  0  0  0  0  0  0  0  0  0  0
    2.1807    4.3827    4.5257 C   0  0  2  0  0  0  0  0  0  0  0  0
    1.3119    4.0810    3.2981 C   0  0  0  0  0  0  0  0  0  0  0  0
    3.1184    3.2205    4.8354 C   0  0  0  0  0  0  0  0  0  0  0  0
    2.4265    1.9436    5.3671 C   0  0  1  0  0  0  0  0  0  0  0  0
    1.3446    2.2693    6.4325 C   0  0  0  0  0  0  0  0  0  0  0  0
    4.2852   -3.0091   -0.0016 C   0  0  2  0  0  0  0  0  0  0  0  0
    4.5419   -2.2562   -1.1667 O   0  0  0  0  0  0  0  0  0  0  0  0
    5.2533   -3.1694   -1.9638 C   0  0  0  0  0  0  0  0  0  0  0  0
    4.7765   -3.0632   -3.4250 C   0  0  0  0  0  0  0  0  0  0  0  0
    6.7550   -2.8777   -1.8357 C   0  0  0  0  0  0  0  0  0  0  0  0
    5.0250   -4.4702   -1.5098 O   0  0  0  0  0  0  0  0  0  0  0  0
    3.8952   -4.3009   -0.6862 C   0  0  1  0  0  0  0  0  0  0  0  0
    3.4587   -5.3766    0.3200 C   0  0  1  0  0  0  0  0  0  0  0  0
    4.1010   -6.6172    0.4902 O   0  0  0  0  0  0  0  0  0  0  0  0
    5.6726   -6.7539    2.5836 H   0  0  0  0  0  0  0  0  0  0  0  0
    5.3007   -8.4011    2.0540 H   0  0  0  0  0  0  0  0  0  0  0  0
    4.6104   -7.7801    3.5636 H   0  0  0  0  0  0  0  0  0  0  0  0
    1.7162   -7.7160    1.0927 H   0  0  0  0  0  0  0  0  0  0  0  0
    2.2384   -8.3920    2.6400 H   0  0  0  0  0  0  0  0  0  0  0  0
    2.9706   -8.9609    1.1331 H   0  0  0  0  0  0  0  0  0  0  0  0
    4.4960   -4.5198    2.0438 H   0  0  0  0  0  0  0  0  0  0  0  0
    2.2598   -2.2363    0.2916 H   0  0  0  0  0  0  0  0  0  0  0  0
    1.7640   -0.5793    1.8930 H   0  0  0  0  0  0  0  0  0  0  0  0
    2.1011   -1.6879    3.2151 H   0  0  0  0  0  0  0  0  0  0  0  0
    3.5195    0.9536    2.7648 H   0  0  0  0  0  0  0  0  0  0  0  0
    4.8669   -0.9905    3.6361 H   0  0  0  0  0  0  0  0  0  0  0  0
    3.1505   -0.8062    6.0897 H   0  0  0  0  0  0  0  0  0  0  0  0
    3.7400   -2.2197    5.2854 H   0  0  0  0  0  0  0  0  0  0  0  0
    5.0517   -1.2748    7.4524 H   0  0  0  0  0  0  0  0  0  0  0  0
    5.9996   -1.8372    6.0850 H   0  0  0  0  0  0  0  0  0  0  0  0
    5.3351    1.0076    6.8212 H   0  0  0  0  0  0  0  0  0  0  0  0
    6.8913    0.3850    6.3405 H   0  0  0  0  0  0  0  0  0  0  0  0
    6.2529    0.6068    4.0411 H   0  0  0  0  0  0  0  0  0  0  0  0
    5.0968    1.7359    4.7151 H   0  0  0  0  0  0  0  0  0  0  0  0
    1.4413    0.1481    4.7976 H   0  0  0  0  0  0  0  0  0  0  0  0
    1.2503    1.5454    2.2820 H   0  0  0  0  0  0  0  0  0  0  0  0
    0.0232    0.8349    3.2813 H   0  0  0  0  0  0  0  0  0  0  0  0
   -0.4589    3.0608    2.7596 H   0  0  0  0  0  0  0  0  0  0  0  0
   -1.1719    3.9532    4.7554 H   0  0  0  0  0  0  0  0  0  0  0  0
   -1.0645    2.2387    5.0891 H   0  0  0  0  0  0  0  0  0  0  0  0
   -0.1895    3.6845    6.9390 H   0  0  0  0  0  0  0  0  0  0  0  0
    0.6720    5.5651    5.5579 H   0  0  0  0  0  0  0  0  0  0  0  0
    1.9309    4.9463    6.6046 H   0  0  0  0  0  0  0  0  0  0  0  0
    2.7868    5.2699    4.3105 H   0  0  0  0  0  0  0  0  0  0  0  0
    1.9594    3.8221    2.4595 H   0  0  0  0  0  0  0  0  0  0  0  0
    0.7890    4.9893    3.0022 H   0  0  0  0  0  0  0  0  0  0  0  0
    3.7174    2.9643    3.9565 H   0  0  0  0  0  0  0  0  0  0  0  0
    3.8159    3.5772    5.5914 H   0  0  0  0  0  0  0  0  0  0  0  0
    3.1794    1.4229    5.9450 H   0  0  0  0  0  0  0  0  0  0  0  0
    1.8584    2.5125    7.3607 H   0  0  0  0  0  0  0  0  0  0  0  0
    0.7408    1.3878    6.6614 H   0  0  0  0  0  0  0  0  0  0  0  0
    5.1895   -3.0925    0.5950 H   0  0  0  0  0  0  0  0  0  0  0  0
    3.7169   -3.3014   -3.5212 H   0  0  0  0  0  0  0  0  0  0  0  0
    5.3385   -3.7702   -4.0402 H   0  0  0  0  0  0  0  0  0  0  0  0
    4.9432   -2.0538   -3.8085 H   0  0  0  0  0  0  0  0  0  0  0  0
    7.0917   -3.0254   -0.8107 H   0  0  0  0  0  0  0  0  0  0  0  0
    6.9639   -1.8544   -2.1357 H   0  0  0  0  0  0  0  0  0  0  0  0
    7.3174   -3.5511   -2.4822 H   0  0  0  0  0  0  0  0  0  0  0  0
    3.0320   -4.1090   -1.3250 H   0  0  0  0  0  0  0  0  0  0  0  0
    2.4097   -5.5936    0.1020 H   0  0  0  0  0  0  0  0  0  0  0  0
  1  2  1  0
  1 36  1  0
  1 37  1  0
  1 38  1  0
  2 35  1  0
  2  3  1  0
  2  4  1  0
  3 39  1  0
  3 40  1  0
  3 41  1  0
  4  5  1  0
  5 34  1  0
  5  6  1  0
  5 42  1  1
  6  7  1  0
  7  8  1  0
  7 27  1  0
  7 43  1  6
  8  9  1  0
  9 10  1  0
  9 44  1  0
  9 45  1  0
 10 11  1  0
 10 16  1  0
 10 46  1  6
 11 15  1  0
 11 12  1  0
 11 47  1  0
 12 13  1  0
 12 48  1  0
 12 49  1  0
 13 14  1  0
 13 50  1  0
 13 51  1  0
 14 15  1  0
 14 52  1  0
 14 53  1  0
 15 54  1  0
 15 55  1  0
 16 25  1  0
 16 17  1  0
 16 56  1  1
 17 18  1  0
 17 57  1  0
 17 58  1  0
 18 23  1  0
 18 19  1  0
 18 59  1  6
 19 20  1  0
 19 60  1  0
 19 61  1  0
 20 26  1  0
 20 21  1  0
 20 62  1  1
 21 22  1  0
 21 63  1  0
 21 64  1  0
 22 23  1  0
 22 24  1  0
 22 65  1  6
 23 66  1  0
 23 67  1  0
 24 25  1  0
 24 68  1  0
 24 69  1  0
 25 26  1  0
 25 70  1  1
 26 71  1  0
 26 72  1  0
 27 33  1  0
 27 28  1  0
 27 73  1  1
 28 29  1  0
 29 30  1  0
 29 31  1  0
 29 32  1  0
 30 74  1  0
 30 75  1  0
 30 76  1  0
 31 77  1  0
 31 78  1  0
 31 79  1  0
 32 33  1  0
 33 34  1  0
 33 80  1  6
 34 35  1  0
 34 81  1  6
M  END
>  <i_m_ct_stereo_status>  (231) 
1

>  <s_m_source_file>  (231) 
/var/tmp/pbs.5076255.sched01/tmpegbcst3k/90u3quomt0.sdf

>  <i_m_source_file_index>  (231) 
1

>  <i_lp_mmshare_version>  (231) 
48012

>  <i_f3d_flags>  (231) 
2

>  <s_epik_input>  (231) 
W0NIM11DKE8xKShbQ0gzXSlPW0NAQEhdKFtDQEhdMTIpW0NASF0zW0NAQEhdKE9DKE8zKShbQ0gzXSlbQ0gzXSlbQ0BASF0oTzIpT1tDSDJdW0NASF0oW0NIXTRbQ0gyXVtDSDJdW0NIMl1bQ0gyXTQpW0NASF0oW0NIMl1bQ0BASF01NilbQ0BIXTdbQ0gyXVtDQEBIXShbQ0gyXTYpW0NIMl1bQ0BASF0oW0NIMl01KVtDSDJdNw==

>  <s_epik_cmdline>  (231) 
J2VwaWtfcHl0aG9uJywgJy1waHQnLCAnMi4wJywgJy1waCcsICc3LjAnLCAnLXRuJywgJzgnLCAnLW1hJywgJzIwMCcsICctaW1hZScsICc8aW5maWxlLm1hZT4nLCAnLW9tYWUnLCAnPG91dGZpbGUubWFlPic=

>  <r_lp_tautomer_probability>  (231) 
1

>  <r_epik_Ionization_Penalty>  (231) 
3.07846e-14

>  <r_epik_Ionization_Penalty_Charging>  (231) 
0

>  <r_epik_Ionization_Penalty_Neutral>  (231) 
3.07846e-14

>  <r_epik_State_Penalty>  (231) 
-0

>  <r_epik_Charging_Adjusted_Penalty>  (231) 
0

>  <i_epik_Tot_Q>  (231) 
0

>  <i_epik_Tot_abs_Q>  (231) 
0

>  <s_epik_Chemistry_Notes>  (231) 
This compound contains an acetal/aminal-like group ( X-CH(R)-Y where X, Y are N, S, or O) that may be acid/base labile, releasing an aldehyde.

>  <s_lp_Force_Field>  (231) 
OPLS3e

>  <r_lp_Energy>  (231) 
64.66

>  <b_lp_Chiralities_Consistent>  (231) 
0

>  <s_lp_Variant>  (231) 
60:0-1

>  <s_i_glide_gridfile>  (231) 
pfpi4k_grid

>  <i_i_glide_lignum>  (231) 
1

>  <i_i_glide_rotatable_bonds>  (231) 
5

>  <r_i_docking_score>  (231) 
-1.57759

>  <r_i_glide_ligand_efficiency>  (231) 
-0.045074

>  <r_i_glide_ligand_efficiency_sa>  (231) 
-0.14744

>  <r_i_glide_ligand_efficiency_ln>  (231) 
-0.346316

>  <r_i_glide_gscore>  (231) 
-1.57759

>  <r_i_glide_lipo>  (231) 
-0.384172

>  <r_i_glide_hbond>  (231) 
0

>  <r_i_glide_metal>  (231) 
-0

>  <r_i_glide_rewards>  (231) 
-0.296725

>  <r_i_glide_evdw>  (231) 
-24.8852

>  <r_i_glide_ecoul>  (231) 
-0.324566

>  <r_i_glide_erotb>  (231) 
0.422667

>  <r_i_glide_esite>  (231) 
-0.026413

>  <r_i_glide_emodel>  (231) 
-26.9526

>  <r_i_glide_energy>  (231) 
-25.2098

>  <r_i_glide_einternal>  (231) 
0.205634

>  <r_i_glide_intrahb_reward>  (231) 
-0

>  <i_i_glide_confnum>  (231) 
2

>  <i_i_glide_posenum>  (231) 
35

>  <r_i_glide_eff_state_penalty>  (231) 
0

>  <ligand_id>  (231) 
60

>  <original_smiles>  (231) 
CC1(C)OC2OC(OCC(C3CCCC3)C3CC4CC5CC(C4)CC3C5)C3OC(C)(C)OC3C2O1

>  <smiles>  (231) 
[H]C([H])([H])C1(C([H])([H])[H])OC2([H])OC([H])(OC([H])([H])C([H])(C3([H])C([H])([H])C([H])([H])C([H])([H])C3([H])[H])C3([H])C([H])([H])C4([H])C([H])([H])C5([H])C([H])([H])C([H])(C4([H])[H])C([H])([H])C3([H])C5([H])[H])C3([H])OC(C([H])([H])[H])(C([H])([H])[H])OC3([H])C2([H])O1

$$$$
60:0:2
     RDKit          3D

 81 87  0  0  1  0  0  0  0  0999 V2000
    4.9757   -7.5295    2.5183 C   0  0  0  0  0  0  0  0  0  0  0  0
    3.7546   -7.1329    1.6875 C   0  0  0  0  0  0  0  0  0  0  0  0
    2.7913   -8.3215    1.4643 C   0  0  0  0  0  0  0  0  0  0  0  0
    3.0466   -6.1150    2.3587 O   0  0  0  0  0  0  0  0  0  0  0  0
    3.3374   -4.9506    1.6877 C   0  0  2  0  0  0  0  0  0  0  0  0
    2.3628   -3.9465    1.6901 O   0  0  0  0  0  0  0  0  0  0  0  0
    2.7164   -2.7816    0.9241 C   0  0  1  0  0  0  0  0  0  0  0  0
    2.9708   -1.6827    1.7758 O   0  0  0  0  0  0  0  0  0  0  0  0
    1.8702   -1.2134    2.5417 C   0  0  0  0  0  0  0  0  0  0  0  0
    2.2402   -0.0378    3.5067 C   0  0  2  0  0  0  0  0  0  0  0  0
    3.5563   -0.3743    4.2788 C   0  0  0  0  0  0  0  0  0  0  0  0
    3.4742   -1.3737    5.4665 C   0  0  0  0  0  0  0  0  0  0  0  0
    4.7185   -1.0633    6.2888 C   0  0  0  0  0  0  0  0  0  0  0  0
    4.9724    0.4348    6.1148 C   0  0  0  0  0  0  0  0  0  0  0  0
    4.4413    0.8150    4.7264 C   0  0  0  0  0  0  0  0  0  0  0  0
    0.9999    0.3985    4.3829 C   0  0  2  0  0  0  0  0  0  0  0  0
   -0.1955    0.8825    3.4952 C   0  0  0  0  0  0  0  0  0  0  0  0
   -1.0044    2.1496    3.8898 C   0  0  1  0  0  0  0  0  0  0  0  0
   -1.7609    2.0517    5.2345 C   0  0  0  0  0  0  0  0  0  0  0  0
   -0.8978    2.4002    6.4654 C   0  0  2  0  0  0  0  0  0  0  0  0
   -0.2690    3.7913    6.2808 C   0  0  0  0  0  0  0  0  0  0  0  0
    0.6283    3.7802    5.0299 C   0  0  2  0  0  0  0  0  0  0  0  0
   -0.1982    3.4621    3.7729 C   0  0  0  0  0  0  0  0  0  0  0  0
    1.7611    2.7524    5.2116 C   0  0  0  0  0  0  0  0  0  0  0  0
    1.3027    1.3344    5.5957 C   0  0  1  0  0  0  0  0  0  0  0  0
    0.2015    1.3520    6.6898 C   0  0  0  0  0  0  0  0  0  0  0  0
    4.0033   -3.0267    0.0840 C   0  0  2  0  0  0  0  0  0  0  0  0
    4.2424   -2.2194   -1.0414 O   0  0  0  0  0  0  0  0  0  0  0  0
    5.0972   -3.0179   -1.8269 C   0  0  0  0  0  0  0  0  0  0  0  0
    4.6963   -2.8905   -3.3086 C   0  0  0  0  0  0  0  0  0  0  0  0
    6.5343   -2.5431   -1.6002 C   0  0  0  0  0  0  0  0  0  0  0  0
    4.9969   -4.3507   -1.4259 O   0  0  0  0  0  0  0  0  0  0  0  0
    3.8192   -4.3397   -0.6588 C   0  0  1  0  0  0  0  0  0  0  0  0
    3.4510   -5.4820    0.2819 C   0  0  1  0  0  0  0  0  0  0  0  0
    4.2085   -6.6541    0.4455 O   0  0  0  0  0  0  0  0  0  0  0  0
    5.6695   -6.6878    2.6323 H   0  0  0  0  0  0  0  0  0  0  0  0
    5.5191   -8.3475    2.0263 H   0  0  0  0  0  0  0  0  0  0  0  0
    4.6780   -7.8666    3.5106 H   0  0  0  0  0  0  0  0  0  0  0  0
    1.9335   -8.0383    0.8785 H   0  0  0  0  0  0  0  0  0  0  0  0
    2.4641   -8.7177    2.4369 H   0  0  0  0  0  0  0  0  0  0  0  0
    3.3101   -9.1237    0.9446 H   0  0  0  0  0  0  0  0  0  0  0  0
    4.2915   -4.5882    2.0930 H   0  0  0  0  0  0  0  0  0  0  0  0
    1.8783   -2.5780    0.2634 H   0  0  0  0  0  0  0  0  0  0  0  0
    1.1029   -0.8957    1.8359 H   0  0  0  0  0  0  0  0  0  0  0  0
    1.4519   -2.0321    3.1276 H   0  0  0  0  0  0  0  0  0  0  0  0
    2.4916    0.8029    2.8605 H   0  0  0  0  0  0  0  0  0  0  0  0
    4.2255   -0.8661    3.5719 H   0  0  0  0  0  0  0  0  0  0  0  0
    2.5799   -1.2256    6.0562 H   0  0  0  0  0  0  0  0  0  0  0  0
    3.4290   -2.4164    5.1339 H   0  0  0  0  0  0  0  0  0  0  0  0
    4.5911   -1.3439    7.3367 H   0  0  0  0  0  0  0  0  0  0  0  0
    5.5728   -1.6226    5.9146 H   0  0  0  0  0  0  0  0  0  0  0  0
    4.3966    0.9899    6.8451 H   0  0  0  0  0  0  0  0  0  0  0  0
    6.0186    0.7108    6.2767 H   0  0  0  0  0  0  0  0  0  0  0  0
    5.2683    0.9108    4.0168 H   0  0  0  0  0  0  0  0  0  0  0  0
    3.9310    1.8235    4.7571 H   0  0  0  0  0  0  0  0  0  0  0  0
    0.6392   -0.5228    4.8398 H   0  0  0  0  0  0  0  0  0  0  0  0
    0.1568    1.0566    2.4791 H   0  0  0  0  0  0  0  0  0  0  0  0
   -0.9109    0.0565    3.4045 H   0  0  0  0  0  0  0  0  0  0  0  0
   -1.7750    2.2200    3.1166 H   0  0  0  0  0  0  0  0  0  0  0  0
   -2.5918    2.7502    5.2082 H   0  0  0  0  0  0  0  0  0  0  0  0
   -2.1906    1.0525    5.3453 H   0  0  0  0  0  0  0  0  0  0  0  0
   -1.5420    2.4129    7.3520 H   0  0  0  0  0  0  0  0  0  0  0  0
   -1.0390    4.5557    6.2024 H   0  0  0  0  0  0  0  0  0  0  0  0
    0.3294    4.0452    7.1611 H   0  0  0  0  0  0  0  0  0  0  0  0
    1.0696    4.7689    4.9192 H   0  0  0  0  0  0  0  0  0  0  0  0
    0.4759    3.4081    2.9159 H   0  0  0  0  0  0  0  0  0  0  0  0
   -0.8738    4.2950    3.5744 H   0  0  0  0  0  0  0  0  0  0  0  0
    2.3623    2.6738    4.3093 H   0  0  0  0  0  0  0  0  0  0  0  0
    2.3872    3.1574    6.0014 H   0  0  0  0  0  0  0  0  0  0  0  0
    2.1580    0.9241    6.1163 H   0  0  0  0  0  0  0  0  0  0  0  0
    0.6863    1.5710    7.6391 H   0  0  0  0  0  0  0  0  0  0  0  0
   -0.2307    0.3553    6.8130 H   0  0  0  0  0  0  0  0  0  0  0  0
    4.8777   -3.0290    0.7349 H   0  0  0  0  0  0  0  0  0  0  0  0
    3.6759   -3.2492   -3.4796 H   0  0  0  0  0  0  0  0  0  0  0  0
    5.3711   -3.4969   -3.9192 H   0  0  0  0  0  0  0  0  0  0  0  0
    4.7629   -1.8579   -3.6404 H   0  0  0  0  0  0  0  0  0  0  0  0
    6.8324   -2.6840   -0.5607 H   0  0  0  0  0  0  0  0  0  0  0  0
    6.5993   -1.4889   -1.8523 H   0  0  0  0  0  0  0  0  0  0  0  0
    7.2159   -3.1109   -2.2322 H   0  0  0  0  0  0  0  0  0  0  0  0
    2.9762   -4.2144   -1.3423 H   0  0  0  0  0  0  0  0  0  0  0  0
    2.4384   -5.8078   -0.0020 H   0  0  0  0  0  0  0  0  0  0  0  0
  1  2  1  0
  1 36  1  0
  1 37  1  0
  1 38  1  0
  2 35  1  0
  2  3  1  0
  2  4  1  0
  3 39  1  0
  3 40  1  0
  3 41  1  0
  4  5  1  0
  5 34  1  0
  5  6  1  0
  5 42  1  1
  6  7  1  0
  7  8  1  0
  7 27  1  0
  7 43  1  6
  8  9  1  0
  9 10  1  0
  9 44  1  0
  9 45  1  0
 10 11  1  0
 10 16  1  0
 10 46  1  6
 11 15  1  0
 11 12  1  0
 11 47  1  0
 12 13  1  0
 12 48  1  0
 12 49  1  0
 13 14  1  0
 13 50  1  0
 13 51  1  0
 14 15  1  0
 14 52  1  0
 14 53  1  0
 15 54  1  0
 15 55  1  0
 16 25  1  0
 16 17  1  0
 16 56  1  1
 17 18  1  0
 17 57  1  0
 17 58  1  0
 18 23  1  0
 18 19  1  0
 18 59  1  6
 19 20  1  0
 19 60  1  0
 19 61  1  0
 20 26  1  0
 20 21  1  0
 20 62  1  1
 21 22  1  0
 21 63  1  0
 21 64  1  0
 22 23  1  0
 22 24  1  0
 22 65  1  6
 23 66  1  0
 23 67  1  0
 24 25  1  0
 24 68  1  0
 24 69  1  0
 25 26  1  0
 25 70  1  1
 26 71  1  0
 26 72  1  0
 27 33  1  0
 27 28  1  0
 27 73  1  1
 28 29  1  0
 29 30  1  0
 29 31  1  0
 29 32  1  0
 30 74  1  0
 30 75  1  0
 30 76  1  0
 31 77  1  0
 31 78  1  0
 31 79  1  0
 32 33  1  0
 33 34  1  0
 33 80  1  6
 34 35  1  0
 34 81  1  6
M  END
>  <i_m_ct_stereo_status>  (232) 
1

>  <s_m_source_file>  (232) 
/var/tmp/pbs.5076255.sched01/tmpegbcst3k/90u3quomt0.sdf

>  <i_m_source_file_index>  (232) 
1

>  <i_lp_mmshare_version>  (232) 
48012

>  <i_f3d_flags>  (232) 
2

>  <s_epik_input>  (232) 
W0NIM11DKE8xKShbQ0gzXSlPW0NAQEhdKFtDQEhdMTIpW0NASF0zW0NAQEhdKE9DKE8zKShbQ0gzXSlbQ0gzXSlbQ0BASF0oTzIpT1tDSDJdW0NASF0oW0NIXTRbQ0gyXVtDSDJdW0NIMl1bQ0gyXTQpW0NASF0oW0NIMl1bQ0BASF01NilbQ0BIXTdbQ0gyXVtDQEBIXShbQ0gyXTYpW0NIMl1bQ0BASF0oW0NIMl01KVtDSDJdNw==

>  <s_epik_cmdline>  (232) 
J2VwaWtfcHl0aG9uJywgJy1waHQnLCAnMi4wJywgJy1waCcsICc3LjAnLCAnLXRuJywgJzgnLCAnLW1hJywgJzIwMCcsICctaW1hZScsICc8aW5maWxlLm1hZT4nLCAnLW9tYWUnLCAnPG91dGZpbGUubWFlPic=

>  <r_lp_tautomer_probability>  (232) 
1

>  <r_epik_Ionization_Penalty>  (232) 
3.07846e-14

>  <r_epik_Ionization_Penalty_Charging>  (232) 
0

>  <r_epik_Ionization_Penalty_Neutral>  (232) 
3.07846e-14

>  <r_epik_State_Penalty>  (232) 
-0

>  <r_epik_Charging_Adjusted_Penalty>  (232) 
0

>  <i_epik_Tot_Q>  (232) 
0

>  <i_epik_Tot_abs_Q>  (232) 
0

>  <s_epik_Chemistry_Notes>  (232) 
This compound contains an acetal/aminal-like group ( X-CH(R)-Y where X, Y are N, S, or O) that may be acid/base labile, releasing an aldehyde.

>  <s_lp_Force_Field>  (232) 
OPLS3e

>  <r_lp_Energy>  (232) 
64.66

>  <b_lp_Chiralities_Consistent>  (232) 
0

>  <s_lp_Variant>  (232) 
60:0-1

>  <s_i_glide_gridfile>  (232) 
pfpi4k_grid

>  <i_i_glide_lignum>  (232) 
1

>  <i_i_glide_rotatable_bonds>  (232) 
5

>  <r_i_docking_score>  (232) 
-1.29877

>  <r_i_glide_ligand_efficiency>  (232) 
-0.0371078

>  <r_i_glide_ligand_efficiency_sa>  (232) 
-0.121382

>  <r_i_glide_ligand_efficiency_ln>  (232) 
-0.28511

>  <r_i_glide_gscore>  (232) 
-1.29877

>  <r_i_glide_lipo>  (232) 
-0.180064

>  <r_i_glide_hbond>  (232) 
0

>  <r_i_glide_metal>  (232) 
-0

>  <r_i_glide_rewards>  (232) 
-0.236945

>  <r_i_glide_evdw>  (232) 
-24.8298

>  <r_i_glide_ecoul>  (232) 
-0.18

>  <r_i_glide_erotb>  (232) 
0.422667

>  <r_i_glide_esite>  (232) 
-0.035941

>  <r_i_glide_emodel>  (232) 
-25.0891

>  <r_i_glide_energy>  (232) 
-25.0098

>  <r_i_glide_einternal>  (232) 
0.71114

>  <r_i_glide_intrahb_reward>  (232) 
-0

>  <i_i_glide_confnum>  (232) 
2

>  <i_i_glide_posenum>  (232) 
36

>  <r_i_glide_eff_state_penalty>  (232) 
0

>  <ligand_id>  (232) 
60

>  <original_smiles>  (232) 
CC1(C)OC2OC(OCC(C3CCCC3)C3CC4CC5CC(C4)CC3C5)C3OC(C)(C)OC3C2O1

>  <smiles>  (232) 
[H]C([H])([H])C1(C([H])([H])[H])OC2([H])OC([H])(OC([H])([H])C([H])(C3([H])C([H])([H])C([H])([H])C([H])([H])C3([H])[H])C3([H])C([H])([H])C4([H])C([H])([H])C5([H])C([H])([H])C([H])(C4([H])[H])C([H])([H])C3([H])C5([H])[H])C3([H])OC(C([H])([H])[H])(C([H])([H])[H])OC3([H])C2([H])O1

$$$$
60:1:0
     RDKit          3D

 81 87  0  0  1  0  0  0  0  0999 V2000
    4.0915   -0.4993    6.9165 C   0  0  0  0  0  0  0  0  0  0  0  0
    2.8938   -0.4551    5.9625 C   0  0  0  0  0  0  0  0  0  0  0  0
    2.6343    0.9744    5.4563 C   0  0  0  0  0  0  0  0  0  0  0  0
    3.1488   -1.2858    4.8607 O   0  0  0  0  0  0  0  0  0  0  0  0
    2.3889   -2.4120    5.0655 C   0  0  2  0  0  0  0  0  0  0  0  0
    1.9558   -3.1291    3.9279 O   0  0  0  0  0  0  0  0  0  0  0  0
    1.0583   -4.1994    4.1995 C   0  0  1  0  0  0  0  0  0  0  0  0
    1.5941   -5.4380    3.8568 O   0  0  0  0  0  0  0  0  0  0  0  0
    1.6111   -5.6967    2.4536 C   0  0  0  0  0  0  0  0  0  0  0  0
    2.0849   -7.1394    2.1441 C   0  0  2  0  0  0  0  0  0  0  0  0
    1.1723   -8.1967    2.8379 C   0  0  0  0  0  0  0  0  0  0  0  0
    1.4933   -9.6567    2.4713 C   0  0  0  0  0  0  0  0  0  0  0  0
    0.1956  -10.4491    2.5897 C   0  0  0  0  0  0  0  0  0  0  0  0
   -0.9288   -9.4311    2.7627 C   0  0  0  0  0  0  0  0  0  0  0  0
   -0.3228   -8.0636    2.4901 C   0  0  0  0  0  0  0  0  0  0  0  0
    3.6147   -7.3998    2.3616 C   0  0  2  0  0  0  0  0  0  0  0  0
    4.0032   -7.4672    4.0749 C   0  0  0  0  0  0  0  0  0  0  0  0
    5.6129   -7.2040    4.5562 C   0  0  1  0  0  0  0  0  0  0  0  0
    6.1192   -8.4036    3.9049 C   0  0  0  0  0  0  0  0  0  0  0  0
    6.0297   -7.7300    2.5249 C   0  0  2  0  0  0  0  0  0  0  0  0
    7.4994   -7.4774    2.1555 C   0  0  0  0  0  0  0  0  0  0  0  0
    7.2876   -6.0513    2.3794 C   0  0  2  0  0  0  0  0  0  0  0  0
    6.8259   -6.0490    4.0743 C   0  0  0  0  0  0  0  0  0  0  0  0
    6.1682   -5.8742    1.0542 C   0  0  0  0  0  0  0  0  0  0  0  0
    4.5365   -6.4428    1.2124 C   0  0  1  0  0  0  0  0  0  0  0  0
    4.9886   -6.1932    2.3989 C   0  0  0  0  0  0  0  0  0  0  0  0
    0.6852   -4.2600    5.7311 C   0  0  2  0  0  0  0  0  0  0  0  0
   -0.4650   -4.9774    6.0955 O   0  0  0  0  0  0  0  0  0  0  0  0
   -0.8058   -4.4072    7.3387 C   0  0  0  0  0  0  0  0  0  0  0  0
   -2.3300   -4.2652    7.4327 C   0  0  0  0  0  0  0  0  0  0  0  0
   -0.2614   -5.2765    8.4846 C   0  0  0  0  0  0  0  0  0  0  0  0
   -0.2328   -3.1212    7.4345 O   0  0  0  0  0  0  0  0  0  0  0  0
    0.1678   -2.8771    6.1005 C   0  0  1  0  0  0  0  0  0  0  0  0
    1.1768   -1.7904    5.7209 C   0  0  1  0  0  0  0  0  0  0  0  0
    1.7517   -0.9113    6.6560 O   0  0  0  0  0  0  0  0  0  0  0  0
    4.2355   -1.5042    7.3101 H   0  0  0  0  0  0  0  0  0  0  0  0
    3.9286    0.1849    7.7503 H   0  0  0  0  0  0  0  0  0  0  0  0
    4.9927   -0.1913    6.3887 H   0  0  0  0  0  0  0  0  0  0  0  0
    1.7667    1.0059    4.8010 H   0  0  0  0  0  0  0  0  0  0  0  0
    3.5059    1.3350    4.9123 H   0  0  0  0  0  0  0  0  0  0  0  0
    2.4576    1.6369    6.3041 H   0  0  0  0  0  0  0  0  0  0  0  0
    2.9666   -3.0608    5.7288 H   0  0  0  0  0  0  0  0  0  0  0  0
    0.1945   -3.9994    3.6101 H   0  0  0  0  0  0  0  0  0  0  0  0
    0.6031   -5.6009    2.0566 H   0  0  0  0  0  0  0  0  0  0  0  0
    2.1916   -4.9287    1.9456 H   0  0  0  0  0  0  0  0  0  0  0  0
    1.9311   -7.2684    1.0729 H   0  0  0  0  0  0  0  0  0  0  0  0
    1.2441   -8.1025    3.9247 H   0  0  0  0  0  0  0  0  0  0  0  0
    1.8473   -9.7213    1.4356 H   0  0  0  0  0  0  0  0  0  0  0  0
    2.2829  -10.0653    3.1081 H   0  0  0  0  0  0  0  0  0  0  0  0
    0.0443  -11.0538    1.6985 H   0  0  0  0  0  0  0  0  0  0  0  0
    0.2287  -11.1337    3.4449 H   0  0  0  0  0  0  0  0  0  0  0  0
   -1.7733   -9.6384    2.1025 H   0  0  0  0  0  0  0  0  0  0  0  0
   -1.2980   -9.4518    3.7916 H   0  0  0  0  0  0  0  0  0  0  0  0
   -0.8146   -7.2731    3.0541 H   0  0  0  0  0  0  0  0  0  0  0  0
   -0.4322   -7.8325    1.4179 H   0  0  0  0  0  0  0  0  0  0  0  0
    3.7094   -8.4286    1.9977 H   0  0  0  0  0  0  0  0  0  0  0  0
    3.4143   -6.7305    4.6285 H   0  0  0  0  0  0  0  0  0  0  0  0
    3.6189   -8.4120    4.4889 H   0  0  0  0  0  0  0  0  0  0  0  0
    5.6598   -7.3124    5.6536 H   0  0  0  0  0  0  0  0  0  0  0  0
    7.1062   -8.6829    4.2683 H   0  0  0  0  0  0  0  0  0  0  0  0
    5.4945   -9.2968    3.9972 H   0  0  0  0  0  0  0  0  0  0  0  0
    5.7639   -8.5436    1.8289 H   0  0  0  0  0  0  0  0  0  0  0  0
    8.2802   -7.9044    2.7815 H   0  0  0  0  0  0  0  0  0  0  0  0
    7.7459   -7.7293    1.1206 H   0  0  0  0  0  0  0  0  0  0  0  0
    8.2228   -5.4774    2.2176 H   0  0  0  0  0  0  0  0  0  0  0  0
    6.5076   -5.0473    4.3839 H   0  0  0  0  0  0  0  0  0  0  0  0
    7.7187   -6.2395    4.6629 H   0  0  0  0  0  0  0  0  0  0  0  0
    6.1292   -4.8021    0.7926 H   0  0  0  0  0  0  0  0  0  0  0  0
    6.5858   -6.2524    0.1073 H   0  0  0  0  0  0  0  0  0  0  0  0
    3.9055   -5.6667    0.7787 H   0  0  0  0  0  0  0  0  0  0  0  0
    4.2956   -5.6010    3.0466 H   0  0  0  0  0  0  0  0  0  0  0  0
    5.2274   -5.1199    2.6396 H   0  0  0  0  0  0  0  0  0  0  0  0
    1.5422   -4.5887    6.3103 H   0  0  0  0  0  0  0  0  0  0  0  0
   -2.7181   -3.6188    6.6461 H   0  0  0  0  0  0  0  0  0  0  0  0
   -2.5943   -3.8549    8.4049 H   0  0  0  0  0  0  0  0  0  0  0  0
   -2.7988   -5.2394    7.3505 H   0  0  0  0  0  0  0  0  0  0  0  0
    0.8251   -5.3400    8.4591 H   0  0  0  0  0  0  0  0  0  0  0  0
   -0.6725   -6.2860    8.4098 H   0  0  0  0  0  0  0  0  0  0  0  0
   -0.5640   -4.8564    9.4452 H   0  0  0  0  0  0  0  0  0  0  0  0
   -0.7400   -2.6752    5.5262 H   0  0  0  0  0  0  0  0  0  0  0  0
    0.6890   -1.1677    4.9591 H   0  0  0  0  0  0  0  0  0  0  0  0
  1  2  1  0
  1 36  1  0
  1 37  1  0
  1 38  1  0
  2 35  1  0
  2  3  1  0
  2  4  1  0
  3 39  1  0
  3 40  1  0
  3 41  1  0
  4  5  1  0
  5 34  1  0
  5  6  1  0
  5 42  1  1
  6  7  1  0
  7  8  1  0
  7 27  1  0
  7 43  1  6
  8  9  1  0
  9 10  1  0
  9 44  1  0
  9 45  1  0
 10 11  1  0
 10 16  1  0
 10 46  1  6
 11 15  1  0
 11 12  1  0
 11 47  1  0
 12 13  1  0
 12 48  1  0
 12 49  1  0
 13 14  1  0
 13 50  1  0
 13 51  1  0
 14 15  1  0
 14 52  1  0
 14 53  1  0
 15 54  1  0
 15 55  1  0
 16 25  1  0
 16 17  1  0
 16 56  1  6
 17 18  1  0
 17 57  1  0
 17 58  1  0
 18 23  1  0
 18 19  1  0
 18 59  1  1
 19 20  1  0
 19 60  1  0
 19 61  1  0
 20 26  1  0
 20 21  1  0
 20 62  1  6
 21 22  1  0
 21 63  1  0
 21 64  1  0
 22 23  1  0
 22 24  1  0
 22 65  1  1
 23 66  1  0
 23 67  1  0
 24 25  1  0
 24 68  1  0
 24 69  1  0
 25 26  1  0
 25 70  1  6
 26 71  1  0
 26 72  1  0
 27 33  1  0
 27 28  1  0
 27 73  1  1
 28 29  1  0
 29 30  1  0
 29 31  1  0
 29 32  1  0
 30 74  1  0
 30 75  1  0
 30 76  1  0
 31 77  1  0
 31 78  1  0
 31 79  1  0
 32 33  1  0
 33 34  1  0
 33 80  1  6
 34 35  1  0
 34 81  1  6
M  END
>  <i_m_ct_stereo_status>  (233) 
1

>  <s_m_source_file>  (233) 
/var/tmp/pbs.5076255.sched01/tmpegbcst3k/90u3quomt0.sdf

>  <i_m_source_file_index>  (233) 
2

>  <i_lp_mmshare_version>  (233) 
48012

>  <i_f3d_flags>  (233) 
0

>  <s_epik_input>  (233) 
W0NIM11DKE8xKShbQ0gzXSlPW0NAQEhdKFtDQEhdMTIpW0NASF0zW0NAQEhdKE9DKE8zKShbQ0gzXSlbQ0gzXSlbQ0BASF0oTzIpT1tDSDJdW0NASF0oW0NIXTRbQ0gyXVtDSDJdW0NIMl1bQ0gyXTQpW0NASF0oW0NIMl1bQ0BASF01NilbQ0BIXTdbQ0gyXVtDQEBIXShbQ0gyXTYpW0NIMl1bQ0BASF0oW0NIMl01KVtDSDJdNw==

>  <s_epik_cmdline>  (233) 
J2VwaWtfcHl0aG9uJywgJy1waHQnLCAnMi4wJywgJy1waCcsICc3LjAnLCAnLXRuJywgJzgnLCAnLW1hJywgJzIwMCcsICctaW1hZScsICc8aW5maWxlLm1hZT4nLCAnLW9tYWUnLCAnPG91dGZpbGUubWFlPic=

>  <r_lp_tautomer_probability>  (233) 
1

>  <r_epik_Ionization_Penalty>  (233) 
3.07846e-14

>  <r_epik_Ionization_Penalty_Charging>  (233) 
0

>  <r_epik_Ionization_Penalty_Neutral>  (233) 
3.07846e-14

>  <r_epik_State_Penalty>  (233) 
-0

>  <r_epik_Charging_Adjusted_Penalty>  (233) 
0

>  <i_epik_Tot_Q>  (233) 
0

>  <i_epik_Tot_abs_Q>  (233) 
0

>  <s_epik_Chemistry_Notes>  (233) 
This compound contains an acetal/aminal-like group ( X-CH(R)-Y where X, Y are N, S, or O) that may be acid/base labile, releasing an aldehyde.

>  <s_lp_Force_Field>  (233) 
OPLS3e

>  <r_lp_Energy>  (233) 
549.645

>  <b_lp_Chiralities_Consistent>  (233) 
1

>  <s_lp_Variant>  (233) 
60:0-2

>  <s_i_glide_gridfile>  (233) 
pfpi4k_grid

>  <i_i_glide_lignum>  (233) 
2

>  <i_i_glide_rotatable_bonds>  (233) 
5

>  <r_i_docking_score>  (233) 
-1.56999

>  <r_i_glide_ligand_efficiency>  (233) 
-0.0448569

>  <r_i_glide_ligand_efficiency_sa>  (233) 
-0.14673

>  <r_i_glide_ligand_efficiency_ln>  (233) 
-0.344648

>  <r_i_glide_gscore>  (233) 
-1.56999

>  <r_i_glide_lipo>  (233) 
-0.542105

>  <r_i_glide_hbond>  (233) 
0

>  <r_i_glide_metal>  (233) 
-0

>  <r_i_glide_rewards>  (233) 
-0.0651716

>  <r_i_glide_evdw>  (233) 
-23.4772

>  <r_i_glide_ecoul>  (233) 
-1.30487

>  <r_i_glide_erotb>  (233) 
0.422667

>  <r_i_glide_esite>  (233) 
-0.0157924

>  <r_i_glide_emodel>  (233) 
-26.5618

>  <r_i_glide_energy>  (233) 
-24.7821

>  <r_i_glide_einternal>  (233) 
1.18555

>  <r_i_glide_intrahb_reward>  (233) 
-0

>  <i_i_glide_confnum>  (233) 
1

>  <i_i_glide_posenum>  (233) 
25

>  <r_i_glide_eff_state_penalty>  (233) 
0

>  <ligand_id>  (233) 
60

>  <original_smiles>  (233) 
CC1(C)OC2OC(OCC(C3CCCC3)C3CC4CC5CC(C4)CC3C5)C3OC(C)(C)OC3C2O1

>  <smiles>  (233) 
[H]C([H])([H])C1(C([H])([H])[H])OC2([H])OC([H])(OC([H])([H])C([H])(C3([H])C([H])([H])C([H])([H])C([H])([H])C3([H])[H])C3([H])C([H])([H])C4([H])C([H])([H])C5([H])C([H])([H])C([H])(C4([H])[H])C([H])([H])C3([H])C5([H])[H])C3([H])OC(C([H])([H])[H])(C([H])([H])[H])OC3([H])C2([H])O1

$$$$
60:1:1
     RDKit          3D

 81 87  0  0  1  0  0  0  0  0999 V2000
    4.0971   -0.4421    6.9033 C   0  0  0  0  0  0  0  0  0  0  0  0
    2.9110   -0.5009    5.9302 C   0  0  0  0  0  0  0  0  0  0  0  0
    2.6238    0.8755    5.3101 C   0  0  0  0  0  0  0  0  0  0  0  0
    3.2089   -1.4099    4.8968 O   0  0  0  0  0  0  0  0  0  0  0  0
    2.4703   -2.5405    5.1751 C   0  0  2  0  0  0  0  0  0  0  0  0
    2.0607   -3.3389    4.0845 O   0  0  0  0  0  0  0  0  0  0  0  0
    1.1956   -4.4264    4.4385 C   0  0  1  0  0  0  0  0  0  0  0  0
    1.7974   -5.6600    4.1900 O   0  0  0  0  0  0  0  0  0  0  0  0
    1.8831   -6.0384    2.8127 C   0  0  0  0  0  0  0  0  0  0  0  0
    1.5917   -7.5578    2.6377 C   0  0  2  0  0  0  0  0  0  0  0  0
    0.3072   -7.9895    3.4295 C   0  0  0  0  0  0  0  0  0  0  0  0
   -0.2281   -9.4022    3.0938 C   0  0  0  0  0  0  0  0  0  0  0  0
   -1.5597   -9.1995    2.3977 C   0  0  0  0  0  0  0  0  0  0  0  0
   -2.1309   -7.9412    3.0055 C   0  0  0  0  0  0  0  0  0  0  0  0
   -0.9143   -7.0587    3.2266 C   0  0  0  0  0  0  0  0  0  0  0  0
    2.8198   -8.4942    2.8810 C   0  0  2  0  0  0  0  0  0  0  0  0
    3.2294   -8.5407    4.6049 C   0  0  0  0  0  0  0  0  0  0  0  0
    4.8019   -9.0513    5.0462 C   0  0  1  0  0  0  0  0  0  0  0  0
    4.6103  -10.4088    4.5490 C   0  0  0  0  0  0  0  0  0  0  0  0
    4.7771   -9.9673    3.1048 C   0  0  2  0  0  0  0  0  0  0  0  0
    6.1554  -10.4905    2.6941 C   0  0  0  0  0  0  0  0  0  0  0  0
    6.6932   -9.1372    2.7297 C   0  0  2  0  0  0  0  0  0  0  0  0
    6.3863   -8.7024    4.4083 C   0  0  0  0  0  0  0  0  0  0  0  0
    5.6880   -8.5908    1.3720 C   0  0  0  0  0  0  0  0  0  0  0  0
    4.0125   -8.2573    1.6352 C   0  0  1  0  0  0  0  0  0  0  0  0
    4.5896   -8.1223    2.7411 C   0  0  0  0  0  0  0  0  0  0  0  0
    0.8198   -4.3769    5.9569 C   0  0  2  0  0  0  0  0  0  0  0  0
   -0.3222   -5.0943    6.3677 O   0  0  0  0  0  0  0  0  0  0  0  0
   -0.6946   -4.4359    7.5553 C   0  0  0  0  0  0  0  0  0  0  0  0
   -2.2258   -4.3347    7.6170 C   0  0  0  0  0  0  0  0  0  0  0  0
   -0.1485   -5.2068    8.7746 C   0  0  0  0  0  0  0  0  0  0  0  0
   -0.1643   -3.1359    7.5580 O   0  0  0  0  0  0  0  0  0  0  0  0
    0.2575   -2.9892    6.2225 C   0  0  1  0  0  0  0  0  0  0  0  0
    1.2385   -1.8983    5.7689 C   0  0  1  0  0  0  0  0  0  0  0  0
    1.7748   -0.9363    6.6385 O   0  0  0  0  0  0  0  0  0  0  0  0
    4.2612   -1.4093    7.3736 H   0  0  0  0  0  0  0  0  0  0  0  0
    3.8987    0.2994    7.6780 H   0  0  0  0  0  0  0  0  0  0  0  0
    4.9982   -0.1476    6.3654 H   0  0  0  0  0  0  0  0  0  0  0  0
    1.7671    0.8325    4.6402 H   0  0  0  0  0  0  0  0  0  0  0  0
    3.4951    1.2167    4.7489 H   0  0  0  0  0  0  0  0  0  0  0  0
    2.4174    1.5970    6.1003 H   0  0  0  0  0  0  0  0  0  0  0  0
    3.0588   -3.1154    5.8964 H   0  0  0  0  0  0  0  0  0  0  0  0
    0.2891   -4.3222    3.8447 H   0  0  0  0  0  0  0  0  0  0  0  0
    1.1779   -5.4901    2.1851 H   0  0  0  0  0  0  0  0  0  0  0  0
    2.8554   -5.7334    2.4183 H   0  0  0  0  0  0  0  0  0  0  0  0
    1.3386   -7.6912    1.5831 H   0  0  0  0  0  0  0  0  0  0  0  0
    0.5300   -7.9746    4.4975 H   0  0  0  0  0  0  0  0  0  0  0  0
    0.3837  -10.0234    2.4419 H   0  0  0  0  0  0  0  0  0  0  0  0
   -0.3699   -9.9542    4.0266 H   0  0  0  0  0  0  0  0  0  0  0  0
   -1.3863   -9.0444    1.3367 H   0  0  0  0  0  0  0  0  0  0  0  0
   -2.1895  -10.0689    2.5115 H   0  0  0  0  0  0  0  0  0  0  0  0
   -2.8615   -7.4639    2.3550 H   0  0  0  0  0  0  0  0  0  0  0  0
   -2.5853   -8.1715    3.9643 H   0  0  0  0  0  0  0  0  0  0  0  0
   -1.0587   -6.3773    4.0715 H   0  0  0  0  0  0  0  0  0  0  0  0
   -0.7879   -6.4660    2.3223 H   0  0  0  0  0  0  0  0  0  0  0  0
    2.4088   -9.4772    2.6774 H   0  0  0  0  0  0  0  0  0  0  0  0
    3.1114   -7.5454    5.0308 H   0  0  0  0  0  0  0  0  0  0  0  0
    2.4792   -9.1195    5.1195 H   0  0  0  0  0  0  0  0  0  0  0  0
    4.8532   -9.0394    6.1325 H   0  0  0  0  0  0  0  0  0  0  0  0
    5.3588  -11.0958    4.9540 H   0  0  0  0  0  0  0  0  0  0  0  0
    3.6396  -10.8668    4.7619 H   0  0  0  0  0  0  0  0  0  0  0  0
    4.1183  -10.6071    2.5092 H   0  0  0  0  0  0  0  0  0  0  0  0
    6.6641  -11.1768    3.3781 H   0  0  0  0  0  0  0  0  0  0  0  0
    6.1688  -10.9586    1.7085 H   0  0  0  0  0  0  0  0  0  0  0  0
    7.7421   -9.0926    2.4887 H   0  0  0  0  0  0  0  0  0  0  0  0
    6.6187   -7.6509    4.5736 H   0  0  0  0  0  0  0  0  0  0  0  0
    7.1038   -9.2421    5.0154 H   0  0  0  0  0  0  0  0  0  0  0  0
    6.1631   -7.6871    0.9815 H   0  0  0  0  0  0  0  0  0  0  0  0
    5.7871   -9.2568    0.5226 H   0  0  0  0  0  0  0  0  0  0  0  0
    3.8071   -7.3116    1.1049 H   0  0  0  0  0  0  0  0  0  0  0  0
    4.3480   -7.2097    3.3340 H   0  0  0  0  0  0  0  0  0  0  0  0
    5.3534   -7.2984    2.8535 H   0  0  0  0  0  0  0  0  0  0  0  0
    1.6803   -4.6356    6.5810 H   0  0  0  0  0  0  0  0  0  0  0  0
   -2.6201   -3.7706    6.7745 H   0  0  0  0  0  0  0  0  0  0  0  0
   -2.5217   -3.8578    8.5485 H   0  0  0  0  0  0  0  0  0  0  0  0
   -2.6570   -5.3320    7.6077 H   0  0  0  0  0  0  0  0  0  0  0  0
    0.9398   -5.2389    8.7659 H   0  0  0  0  0  0  0  0  0  0  0  0
   -0.5329   -6.2258    8.7685 H   0  0  0  0  0  0  0  0  0  0  0  0
   -0.4769   -4.7185    9.6936 H   0  0  0  0  0  0  0  0  0  0  0  0
   -0.6466   -2.8559    5.6148 H   0  0  0  0  0  0  0  0  0  0  0  0
    0.7478   -1.3553    4.9528 H   0  0  0  0  0  0  0  0  0  0  0  0
  1  2  1  0
  1 36  1  0
  1 37  1  0
  1 38  1  0
  2 35  1  0
  2  3  1  0
  2  4  1  0
  3 39  1  0
  3 40  1  0
  3 41  1  0
  4  5  1  0
  5 34  1  0
  5  6  1  0
  5 42  1  1
  6  7  1  0
  7  8  1  0
  7 27  1  0
  7 43  1  6
  8  9  1  0
  9 10  1  0
  9 44  1  0
  9 45  1  0
 10 11  1  0
 10 16  1  0
 10 46  1  6
 11 15  1  0
 11 12  1  0
 11 47  1  0
 12 13  1  0
 12 48  1  0
 12 49  1  0
 13 14  1  0
 13 50  1  0
 13 51  1  0
 14 15  1  0
 14 52  1  0
 14 53  1  0
 15 54  1  0
 15 55  1  0
 16 25  1  0
 16 17  1  0
 16 56  1  6
 17 18  1  0
 17 57  1  0
 17 58  1  0
 18 23  1  0
 18 19  1  0
 18 59  1  1
 19 20  1  0
 19 60  1  0
 19 61  1  0
 20 26  1  0
 20 21  1  0
 20 62  1  6
 21 22  1  0
 21 63  1  0
 21 64  1  0
 22 23  1  0
 22 24  1  0
 22 65  1  6
 23 66  1  0
 23 67  1  0
 24 25  1  0
 24 68  1  0
 24 69  1  0
 25 26  1  0
 25 70  1  6
 26 71  1  0
 26 72  1  0
 27 33  1  0
 27 28  1  0
 27 73  1  1
 28 29  1  0
 29 30  1  0
 29 31  1  0
 29 32  1  0
 30 74  1  0
 30 75  1  0
 30 76  1  0
 31 77  1  0
 31 78  1  0
 31 79  1  0
 32 33  1  0
 33 34  1  0
 33 80  1  6
 34 35  1  0
 34 81  1  6
M  END
>  <i_m_ct_stereo_status>  (234) 
1

>  <s_m_source_file>  (234) 
/var/tmp/pbs.5076255.sched01/tmpegbcst3k/90u3quomt0.sdf

>  <i_m_source_file_index>  (234) 
2

>  <i_lp_mmshare_version>  (234) 
48012

>  <i_f3d_flags>  (234) 
0

>  <s_epik_input>  (234) 
W0NIM11DKE8xKShbQ0gzXSlPW0NAQEhdKFtDQEhdMTIpW0NASF0zW0NAQEhdKE9DKE8zKShbQ0gzXSlbQ0gzXSlbQ0BASF0oTzIpT1tDSDJdW0NASF0oW0NIXTRbQ0gyXVtDSDJdW0NIMl1bQ0gyXTQpW0NASF0oW0NIMl1bQ0BASF01NilbQ0BIXTdbQ0gyXVtDQEBIXShbQ0gyXTYpW0NIMl1bQ0BASF0oW0NIMl01KVtDSDJdNw==

>  <s_epik_cmdline>  (234) 
J2VwaWtfcHl0aG9uJywgJy1waHQnLCAnMi4wJywgJy1waCcsICc3LjAnLCAnLXRuJywgJzgnLCAnLW1hJywgJzIwMCcsICctaW1hZScsICc8aW5maWxlLm1hZT4nLCAnLW9tYWUnLCAnPG91dGZpbGUubWFlPic=

>  <r_lp_tautomer_probability>  (234) 
1

>  <r_epik_Ionization_Penalty>  (234) 
3.07846e-14

>  <r_epik_Ionization_Penalty_Charging>  (234) 
0

>  <r_epik_Ionization_Penalty_Neutral>  (234) 
3.07846e-14

>  <r_epik_State_Penalty>  (234) 
-0

>  <r_epik_Charging_Adjusted_Penalty>  (234) 
0

>  <i_epik_Tot_Q>  (234) 
0

>  <i_epik_Tot_abs_Q>  (234) 
0

>  <s_epik_Chemistry_Notes>  (234) 
This compound contains an acetal/aminal-like group ( X-CH(R)-Y where X, Y are N, S, or O) that may be acid/base labile, releasing an aldehyde.

>  <s_lp_Force_Field>  (234) 
OPLS3e

>  <r_lp_Energy>  (234) 
549.645

>  <b_lp_Chiralities_Consistent>  (234) 
1

>  <s_lp_Variant>  (234) 
60:0-2

>  <s_i_glide_gridfile>  (234) 
pfpi4k_grid

>  <i_i_glide_lignum>  (234) 
2

>  <i_i_glide_rotatable_bonds>  (234) 
5

>  <r_i_docking_score>  (234) 
-1.29878

>  <r_i_glide_ligand_efficiency>  (234) 
-0.0371079

>  <r_i_glide_ligand_efficiency_sa>  (234) 
-0.121382

>  <r_i_glide_ligand_efficiency_ln>  (234) 
-0.28511

>  <r_i_glide_gscore>  (234) 
-1.29878

>  <r_i_glide_lipo>  (234) 
-0.403528

>  <r_i_glide_hbond>  (234) 
0

>  <r_i_glide_metal>  (234) 
-0

>  <r_i_glide_rewards>  (234) 
-0.0687029

>  <r_i_glide_evdw>  (234) 
-22.553

>  <r_i_glide_ecoul>  (234) 
-0.716656

>  <r_i_glide_erotb>  (234) 
0.422667

>  <r_i_glide_esite>  (234) 
-0.0140647

>  <r_i_glide_emodel>  (234) 
-23.2762

>  <r_i_glide_energy>  (234) 
-23.2697

>  <r_i_glide_einternal>  (234) 
3.60535

>  <r_i_glide_intrahb_reward>  (234) 
-0

>  <i_i_glide_confnum>  (234) 
2

>  <i_i_glide_posenum>  (234) 
12

>  <r_i_glide_eff_state_penalty>  (234) 
0

>  <ligand_id>  (234) 
60

>  <original_smiles>  (234) 
CC1(C)OC2OC(OCC(C3CCCC3)C3CC4CC5CC(C4)CC3C5)C3OC(C)(C)OC3C2O1

>  <smiles>  (234) 
[H]C([H])([H])C1(C([H])([H])[H])OC2([H])OC([H])(OC([H])([H])C([H])(C3([H])C([H])([H])C([H])([H])C([H])([H])C3([H])[H])C3([H])C([H])([H])C4([H])C([H])([H])C5([H])C([H])([H])C([H])(C4([H])[H])C([H])([H])C3([H])C5([H])[H])C3([H])OC(C([H])([H])[H])(C([H])([H])[H])OC3([H])C2([H])O1

$$$$
60:1:2
     RDKit          3D

 81 87  0  0  1  0  0  0  0  0999 V2000
    5.8407   -1.1683    1.0532 C   0  0  0  0  0  0  0  0  0  0  0  0
    4.3360   -1.2868    0.7642 C   0  0  0  0  0  0  0  0  0  0  0  0
    4.0715   -1.2104   -0.7486 C   0  0  0  0  0  0  0  0  0  0  0  0
    3.8521   -2.5164    1.2677 O   0  0  0  0  0  0  0  0  0  0  0  0
    3.1691   -2.1995    2.4234 C   0  0  2  0  0  0  0  0  0  0  0  0
    2.1043   -3.0428    2.8113 O   0  0  0  0  0  0  0  0  0  0  0  0
    1.3343   -2.5716    3.9280 C   0  0  1  0  0  0  0  0  0  0  0  0
    1.4558   -3.4308    5.0189 O   0  0  0  0  0  0  0  0  0  0  0  0
    0.2302   -3.8786    5.5902 C   0  0  0  0  0  0  0  0  0  0  0  0
    0.4022   -5.2339    6.3454 C   0  0  2  0  0  0  0  0  0  0  0  0
    1.4540   -5.1483    7.4902 C   0  0  0  0  0  0  0  0  0  0  0  0
    1.5925   -6.4568    8.3083 C   0  0  0  0  0  0  0  0  0  0  0  0
    1.6328   -6.0712    9.7791 C   0  0  0  0  0  0  0  0  0  0  0  0
    0.7870   -4.8109    9.8367 C   0  0  0  0  0  0  0  0  0  0  0  0
    1.1407   -4.0653    8.5551 C   0  0  0  0  0  0  0  0  0  0  0  0
    0.5787   -6.4794    5.4029 C   0  0  2  0  0  0  0  0  0  0  0  0
    1.9490   -6.2785    4.3005 C   0  0  0  0  0  0  0  0  0  0  0  0
    2.0129   -7.2345    2.8900 C   0  0  1  0  0  0  0  0  0  0  0  0
    2.1731   -8.4881    3.6227 C   0  0  0  0  0  0  0  0  0  0  0  0
    0.6906   -8.5021    3.9972 C   0  0  2  0  0  0  0  0  0  0  0  0
    0.0958   -9.6123    3.1169 C   0  0  0  0  0  0  0  0  0  0  0  0
   -0.5749   -8.6093    2.2992 C   0  0  2  0  0  0  0  0  0  0  0  0
    0.8069   -7.6924    1.7132 C   0  0  0  0  0  0  0  0  0  0  0  0
   -1.6310   -8.0749    3.6115 C   0  0  0  0  0  0  0  0  0  0  0  0
   -0.9962   -7.0387    4.8572 C   0  0  1  0  0  0  0  0  0  0  0  0
   -0.2646   -6.8878    3.8276 C   0  0  0  0  0  0  0  0  0  0  0  0
    1.8160   -1.1728    4.3813 C   0  0  2  0  0  0  0  0  0  0  0  0
    0.9554   -0.4343    5.2131 O   0  0  0  0  0  0  0  0  0  0  0  0
    1.3988    0.8789    4.9962 C   0  0  0  0  0  0  0  0  0  0  0  0
    0.1729    1.7970    4.9110 C   0  0  0  0  0  0  0  0  0  0  0  0
    2.3294    1.2948    6.1475 C   0  0  0  0  0  0  0  0  0  0  0  0
    2.1115    0.9479    3.7891 O   0  0  0  0  0  0  0  0  0  0  0  0
    1.7722   -0.2661    3.1651 C   0  0  1  0  0  0  0  0  0  0  0  0
    2.5829   -0.8682    2.0097 C   0  0  1  0  0  0  0  0  0  0  0  0
    3.6768   -0.2223    1.4086 O   0  0  0  0  0  0  0  0  0  0  0  0
    6.0325   -1.1647    2.1255 H   0  0  0  0  0  0  0  0  0  0  0  0
    6.2209   -0.2399    0.6273 H   0  0  0  0  0  0  0  0  0  0  0  0
    6.3728   -2.0020    0.5953 H   0  0  0  0  0  0  0  0  0  0  0  0
    3.0116   -1.2649   -0.9550 H   0  0  0  0  0  0  0  0  0  0  0  0
    4.5681   -2.0358   -1.2607 H   0  0  0  0  0  0  0  0  0  0  0  0
    4.4510   -0.2683   -1.1457 H   0  0  0  0  0  0  0  0  0  0  0  0
    3.9262   -2.1227    3.2090 H   0  0  0  0  0  0  0  0  0  0  0  0
    0.3096   -2.5156    3.5571 H   0  0  0  0  0  0  0  0  0  0  0  0
   -0.1418   -3.0857    6.2445 H   0  0  0  0  0  0  0  0  0  0  0  0
   -0.5398   -3.9942    4.8332 H   0  0  0  0  0  0  0  0  0  0  0  0
   -0.5477   -5.3890    6.8550 H   0  0  0  0  0  0  0  0  0  0  0  0
    2.4211   -4.9159    7.0404 H   0  0  0  0  0  0  0  0  0  0  0  0
    0.7149   -7.0965    8.1922 H   0  0  0  0  0  0  0  0  0  0  0  0
    2.4659   -7.0361    8.0042 H   0  0  0  0  0  0  0  0  0  0  0  0
    1.2353   -6.8681   10.4070 H   0  0  0  0  0  0  0  0  0  0  0  0
    2.6571   -5.8621   10.0877 H   0  0  0  0  0  0  0  0  0  0  0  0
   -0.2717   -5.0679    9.8132 H   0  0  0  0  0  0  0  0  0  0  0  0
    0.9714   -4.2166   10.7298 H   0  0  0  0  0  0  0  0  0  0  0  0
    2.0356   -3.4592    8.7134 H   0  0  0  0  0  0  0  0  0  0  0  0
    0.3294   -3.3796    8.3090 H   0  0  0  0  0  0  0  0  0  0  0  0
    0.8967   -7.2615    6.0884 H   0  0  0  0  0  0  0  0  0  0  0  0
    1.9810   -5.2893    3.8734 H   0  0  0  0  0  0  0  0  0  0  0  0
    2.8588   -6.3471    4.8823 H   0  0  0  0  0  0  0  0  0  0  0  0
    2.9261   -6.9670    2.3634 H   0  0  0  0  0  0  0  0  0  0  0  0
    2.5453   -9.2838    2.9754 H   0  0  0  0  0  0  0  0  0  0  0  0
    2.8409   -8.4535    4.4843 H   0  0  0  0  0  0  0  0  0  0  0  0
    0.6300   -8.9698    4.9872 H   0  0  0  0  0  0  0  0  0  0  0  0
    0.7876  -10.2394    2.5530 H   0  0  0  0  0  0  0  0  0  0  0  0
   -0.5792  -10.2782    3.6550 H   0  0  0  0  0  0  0  0  0  0  0  0
   -1.1591   -9.0549    1.4952 H   0  0  0  0  0  0  0  0  0  0  0  0
    0.4758   -6.8077    1.1734 H   0  0  0  0  0  0  0  0  0  0  0  0
    1.3156   -8.2898    0.9605 H   0  0  0  0  0  0  0  0  0  0  0  0
   -2.4826   -7.5669    3.1413 H   0  0  0  0  0  0  0  0  0  0  0  0
   -2.1381   -8.9193    4.0760 H   0  0  0  0  0  0  0  0  0  0  0  0
   -1.7334   -6.2512    5.0082 H   0  0  0  0  0  0  0  0  0  0  0  0
   -0.0281   -5.8260    3.5488 H   0  0  0  0  0  0  0  0  0  0  0  0
   -0.7334   -6.4200    2.9152 H   0  0  0  0  0  0  0  0  0  0  0  0
    2.8047   -1.2467    4.8372 H   0  0  0  0  0  0  0  0  0  0  0  0
   -0.4737    1.5092    4.0804 H   0  0  0  0  0  0  0  0  0  0  0  0
    0.5063    2.8240    4.7579 H   0  0  0  0  0  0  0  0  0  0  0  0
   -0.3939    1.7448    5.8406 H   0  0  0  0  0  0  0  0  0  0  0  0
    3.2210    0.6669    6.1781 H   0  0  0  0  0  0  0  0  0  0  0  0
    1.8044    1.2124    7.0996 H   0  0  0  0  0  0  0  0  0  0  0  0
    2.6358    2.3314    6.0045 H   0  0  0  0  0  0  0  0  0  0  0  0
    0.7376   -0.1934    2.8153 H   0  0  0  0  0  0  0  0  0  0  0  0
    1.8618   -1.0914    1.2189 H   0  0  0  0  0  0  0  0  0  0  0  0
  1  2  1  0
  1 36  1  0
  1 37  1  0
  1 38  1  0
  2 35  1  0
  2  3  1  0
  2  4  1  0
  3 39  1  0
  3 40  1  0
  3 41  1  0
  4  5  1  0
  5 34  1  0
  5  6  1  0
  5 42  1  1
  6  7  1  0
  7  8  1  0
  7 27  1  0
  7 43  1  6
  8  9  1  0
  9 10  1  0
  9 44  1  0
  9 45  1  0
 10 11  1  0
 10 16  1  0
 10 46  1  1
 11 15  1  0
 11 12  1  0
 11 47  1  0
 12 13  1  0
 12 48  1  0
 12 49  1  0
 13 14  1  0
 13 50  1  0
 13 51  1  0
 14 15  1  0
 14 52  1  0
 14 53  1  0
 15 54  1  0
 15 55  1  0
 16 25  1  0
 16 17  1  0
 16 56  1  1
 17 18  1  0
 17 57  1  0
 17 58  1  0
 18 23  1  0
 18 19  1  0
 18 59  1  6
 19 20  1  0
 19 60  1  0
 19 61  1  0
 20 26  1  0
 20 21  1  0
 20 62  1  1
 21 22  1  0
 21 63  1  0
 21 64  1  0
 22 23  1  0
 22 24  1  0
 22 65  1  6
 23 66  1  0
 23 67  1  0
 24 25  1  0
 24 68  1  0
 24 69  1  0
 25 26  1  0
 25 70  1  6
 26 71  1  0
 26 72  1  0
 27 33  1  0
 27 28  1  0
 27 73  1  1
 28 29  1  0
 29 30  1  0
 29 31  1  0
 29 32  1  0
 30 74  1  0
 30 75  1  0
 30 76  1  0
 31 77  1  0
 31 78  1  0
 31 79  1  0
 32 33  1  0
 33 34  1  0
 33 80  1  6
 34 35  1  0
 34 81  1  6
M  END
>  <i_m_ct_stereo_status>  (235) 
1

>  <s_m_source_file>  (235) 
/var/tmp/pbs.5076255.sched01/tmpegbcst3k/90u3quomt0.sdf

>  <i_m_source_file_index>  (235) 
2

>  <i_lp_mmshare_version>  (235) 
48012

>  <i_f3d_flags>  (235) 
0

>  <s_epik_input>  (235) 
W0NIM11DKE8xKShbQ0gzXSlPW0NAQEhdKFtDQEhdMTIpW0NASF0zW0NAQEhdKE9DKE8zKShbQ0gzXSlbQ0gzXSlbQ0BASF0oTzIpT1tDSDJdW0NASF0oW0NIXTRbQ0gyXVtDSDJdW0NIMl1bQ0gyXTQpW0NASF0oW0NIMl1bQ0BASF01NilbQ0BIXTdbQ0gyXVtDQEBIXShbQ0gyXTYpW0NIMl1bQ0BASF0oW0NIMl01KVtDSDJdNw==

>  <s_epik_cmdline>  (235) 
J2VwaWtfcHl0aG9uJywgJy1waHQnLCAnMi4wJywgJy1waCcsICc3LjAnLCAnLXRuJywgJzgnLCAnLW1hJywgJzIwMCcsICctaW1hZScsICc8aW5maWxlLm1hZT4nLCAnLW9tYWUnLCAnPG91dGZpbGUubWFlPic=

>  <r_lp_tautomer_probability>  (235) 
1

>  <r_epik_Ionization_Penalty>  (235) 
3.07846e-14

>  <r_epik_Ionization_Penalty_Charging>  (235) 
0

>  <r_epik_Ionization_Penalty_Neutral>  (235) 
3.07846e-14

>  <r_epik_State_Penalty>  (235) 
-0

>  <r_epik_Charging_Adjusted_Penalty>  (235) 
0

>  <i_epik_Tot_Q>  (235) 
0

>  <i_epik_Tot_abs_Q>  (235) 
0

>  <s_epik_Chemistry_Notes>  (235) 
This compound contains an acetal/aminal-like group ( X-CH(R)-Y where X, Y are N, S, or O) that may be acid/base labile, releasing an aldehyde.

>  <s_lp_Force_Field>  (235) 
OPLS3e

>  <r_lp_Energy>  (235) 
549.645

>  <b_lp_Chiralities_Consistent>  (235) 
1

>  <s_lp_Variant>  (235) 
60:0-2

>  <s_i_glide_gridfile>  (235) 
pfpi4k_grid

>  <i_i_glide_lignum>  (235) 
2

>  <i_i_glide_rotatable_bonds>  (235) 
5

>  <r_i_docking_score>  (235) 
-1.09917

>  <r_i_glide_ligand_efficiency>  (235) 
-0.0314049

>  <r_i_glide_ligand_efficiency_sa>  (235) 
-0.102728

>  <r_i_glide_ligand_efficiency_ln>  (235) 
-0.241293

>  <r_i_glide_gscore>  (235) 
-1.09917

>  <r_i_glide_lipo>  (235) 
-0.138939

>  <r_i_glide_hbond>  (235) 
0

>  <r_i_glide_metal>  (235) 
-0

>  <r_i_glide_rewards>  (235) 
-0.100864

>  <r_i_glide_evdw>  (235) 
-23.5692

>  <r_i_glide_ecoul>  (235) 
-0.640725

>  <r_i_glide_erotb>  (235) 
0.422667

>  <r_i_glide_esite>  (235) 
-0.00746547

>  <r_i_glide_emodel>  (235) 
-22.9493

>  <r_i_glide_energy>  (235) 
-24.21

>  <r_i_glide_einternal>  (235) 
4.94421

>  <r_i_glide_intrahb_reward>  (235) 
-0

>  <i_i_glide_confnum>  (235) 
3

>  <i_i_glide_posenum>  (235) 
1

>  <r_i_glide_eff_state_penalty>  (235) 
0

>  <ligand_id>  (235) 
60

>  <original_smiles>  (235) 
CC1(C)OC2OC(OCC(C3CCCC3)C3CC4CC5CC(C4)CC3C5)C3OC(C)(C)OC3C2O1

>  <smiles>  (235) 
[H]C([H])([H])C1(C([H])([H])[H])OC2([H])OC([H])(OC([H])([H])C([H])(C3([H])C([H])([H])C([H])([H])C([H])([H])C3([H])[H])C3([H])C([H])([H])C4([H])C([H])([H])C5([H])C([H])([H])C([H])(C4([H])[H])C([H])([H])C3([H])C5([H])[H])C3([H])OC(C([H])([H])[H])(C([H])([H])[H])OC3([H])C2([H])O1

$$$$
62:0:0
     RDKit          3D

 72 77  0  0  1  0  0  0  0  0999 V2000
    3.8885   -4.5913    5.3873 C   0  0  0  0  0  0  0  0  0  0  0  0
    3.6077   -3.6948    4.1473 C   0  0  0  0  0  0  0  0  0  0  0  0
    4.2704   -4.4485    2.9279 C   0  0  0  0  0  0  0  0  0  0  0  0
    2.2133   -3.6268    3.9766 O   0  0  0  0  0  0  0  0  0  0  0  0
    1.8135   -2.7712    2.9119 C   0  0  0  0  0  0  0  0  0  0  0  0
    2.4263   -1.3194    2.9565 C   0  0  2  0  0  0  0  0  0  0  0  0
    2.2837   -0.7217    1.5270 C   0  0  0  0  0  0  0  0  0  0  0  0
    3.9521   -1.4915    3.2695 C   0  0  1  0  0  0  0  0  0  0  0  0
    4.6360   -0.1277    3.5143 C   0  0  0  0  0  0  0  0  0  0  0  0
    3.9084    0.7378    4.5673 C   0  0  0  0  0  0  0  0  0  0  0  0
    2.3954    1.0016    4.2646 C   0  0  1  0  0  0  0  0  0  0  0  0
    2.2143    1.9186    2.9947 C   0  0  0  0  0  0  0  0  0  0  0  0
    1.7170   -0.4035    4.0402 C   0  0  1  0  0  0  0  0  0  0  0  0
    0.1729   -0.2856    3.8437 C   0  0  0  0  0  0  0  0  0  0  0  0
   -0.4378    1.0320    4.3636 C   0  0  1  0  0  0  0  0  0  0  0  0
   -1.8186    0.7877    4.3191 O   0  0  0  0  0  0  0  0  0  0  0  0
    0.2092    1.4977    5.7247 C   0  0  1  0  0  0  0  0  0  0  0  0
   -0.1386    0.3907    6.7677 C   0  0  0  0  0  0  0  0  0  0  0  0
   -1.3745    0.1007    6.8866 O   0  0  0  0  0  0  0  0  0  0  0  0
    0.7621   -0.2117    7.3483 O   0  0  0  0  0  0  0  0  0  0  0  0
    1.7752    1.7065    5.5366 C   0  0  2  0  0  0  0  0  0  0  0  0
    2.0898    3.2300    5.6351 C   0  0  0  0  0  0  0  0  0  0  0  0
    0.7393    3.9217    5.5326 C   0  0  0  0  0  0  0  0  0  0  0  0
   -0.2646    2.9383    6.1790 C   0  0  1  0  0  0  0  0  0  0  0  0
   -1.7376    3.2490    5.8479 C   0  0  0  0  0  0  0  0  0  0  0  0
   -2.0936    3.8153    4.8077 O   0  0  0  0  0  0  0  0  0  0  0  0
   -2.5986    2.9937    6.9760 C   0  0  0  0  0  0  0  0  0  0  0  0
   -1.7921    2.8220    8.0393 C   0  0  0  0  0  0  0  0  0  0  0  0
   -2.1610    2.6110    9.4730 C   0  0  0  0  0  0  0  0  0  0  0  0
   -1.7796    3.9141   10.1777 C   0  0  0  0  0  0  0  0  0  0  0  0
   -2.5880    4.5355   10.8843 O   0  0  0  0  0  0  0  0  0  0  0  0
   -0.3733    4.4717    9.8887 C   0  0  0  0  0  0  0  0  0  0  0  0
    0.0045    4.4353    8.3755 C   0  0  0  0  0  0  0  0  0  0  0  0
   -0.3306    3.0716    7.7439 C   0  0  2  0  0  0  0  0  0  0  0  0
    4.2139   -2.4238    4.3324 O   0  0  0  0  0  0  0  0  0  0  0  0
    3.4676   -4.1393    6.2880 H   0  0  0  0  0  0  0  0  0  0  0  0
    4.9698   -4.7236    5.4964 H   0  0  0  0  0  0  0  0  0  0  0  0
    3.4287   -5.5733    5.2236 H   0  0  0  0  0  0  0  0  0  0  0  0
    4.1138   -3.9684    1.9489 H   0  0  0  0  0  0  0  0  0  0  0  0
    3.8593   -5.4616    2.8600 H   0  0  0  0  0  0  0  0  0  0  0  0
    5.3493   -4.5203    3.0934 H   0  0  0  0  0  0  0  0  0  0  0  0
    2.1056   -3.2443    1.9598 H   0  0  0  0  0  0  0  0  0  0  0  0
    0.7159   -2.7360    2.9169 H   0  0  0  0  0  0  0  0  0  0  0  0
    2.9097    0.1717    1.3874 H   0  0  0  0  0  0  0  0  0  0  0  0
    1.2310   -0.4561    1.3188 H   0  0  0  0  0  0  0  0  0  0  0  0
    2.5574   -1.4866    0.7918 H   0  0  0  0  0  0  0  0  0  0  0  0
    4.4143   -1.8982    2.3661 H   0  0  0  0  0  0  0  0  0  0  0  0
    5.6920   -0.2955    3.7621 H   0  0  0  0  0  0  0  0  0  0  0  0
    4.6240    0.4023    2.5700 H   0  0  0  0  0  0  0  0  0  0  0  0
    4.0704    0.2634    5.5418 H   0  0  0  0  0  0  0  0  0  0  0  0
    4.4408    1.6838    4.6283 H   0  0  0  0  0  0  0  0  0  0  0  0
    1.4684    1.4891    2.3100 H   0  0  0  0  0  0  0  0  0  0  0  0
    3.1359    1.9665    2.3991 H   0  0  0  0  0  0  0  0  0  0  0  0
    1.8774    2.9150    3.2238 H   0  0  0  0  0  0  0  0  0  0  0  0
    1.8488   -0.9502    4.9743 H   0  0  0  0  0  0  0  0  0  0  0  0
   -0.0840   -0.3996    2.7947 H   0  0  0  0  0  0  0  0  0  0  0  0
   -0.3041   -1.1233    4.3814 H   0  0  0  0  0  0  0  0  0  0  0  0
   -0.3086    1.8283    3.6498 H   0  0  0  0  0  0  0  0  0  0  0  0
   -2.1308    0.9543    3.4297 H   0  0  0  0  0  0  0  0  0  0  0  0
    2.2727    1.2918    6.4234 H   0  0  0  0  0  0  0  0  0  0  0  0
    2.5389    3.4542    6.6002 H   0  0  0  0  0  0  0  0  0  0  0  0
    2.7893    3.5872    4.8692 H   0  0  0  0  0  0  0  0  0  0  0  0
    0.7737    4.9388    5.9403 H   0  0  0  0  0  0  0  0  0  0  0  0
    0.4841    4.0730    4.4845 H   0  0  0  0  0  0  0  0  0  0  0  0
   -3.6679    2.9339    6.9697 H   0  0  0  0  0  0  0  0  0  0  0  0
   -3.2122    2.3552    9.5881 H   0  0  0  0  0  0  0  0  0  0  0  0
   -1.5627    1.7876    9.8765 H   0  0  0  0  0  0  0  0  0  0  0  0
   -0.3006    5.4965   10.2543 H   0  0  0  0  0  0  0  0  0  0  0  0
    0.3431    3.8595   10.4443 H   0  0  0  0  0  0  0  0  0  0  0  0
   -0.5373    5.2321    7.8605 H   0  0  0  0  0  0  0  0  0  0  0  0
    1.0752    4.6528    8.2655 H   0  0  0  0  0  0  0  0  0  0  0  0
    0.3153    2.3606    8.2538 H   0  0  0  0  0  0  0  0  0  0  0  0
  1  2  1  0
  1 36  1  0
  1 37  1  0
  1 38  1  0
  2 35  1  0
  2  3  1  0
  2  4  1  0
  3 39  1  0
  3 40  1  0
  3 41  1  0
  4  5  1  0
  5  6  1  0
  5 42  1  0
  5 43  1  0
  6 13  1  0
  6  7  1  6
  6  8  1  0
  7 44  1  0
  7 45  1  0
  7 46  1  0
  8  9  1  0
  8 35  1  0
  8 47  1  6
  9 10  1  0
  9 48  1  0
  9 49  1  0
 10 11  1  0
 10 50  1  0
 10 51  1  0
 11 21  1  0
 11 12  1  6
 11 13  1  0
 12 52  1  0
 12 53  1  0
 12 54  1  0
 13 14  1  0
 13 55  1  1
 14 15  1  0
 14 56  1  0
 14 57  1  0
 15 16  1  0
 15 17  1  0
 15 58  1  6
 16 59  1  0
 17 24  1  0
 17 18  1  1
 17 21  1  0
 18 19  2  0
 18 20  1  0
 21 22  1  0
 21 60  1  1
 22 23  1  0
 22 61  1  0
 22 62  1  0
 24 23  1  6
 23 63  1  0
 23 64  1  0
 24 34  1  0
 24 25  1  0
 25 26  2  0
 25 27  1  0
 27 28  2  0
 27 65  1  0
 28 34  1  0
 28 29  1  0
 29 30  1  0
 29 66  1  0
 29 67  1  0
 30 31  2  0
 30 32  1  0
 32 33  1  0
 32 68  1  0
 32 69  1  0
 33 34  1  0
 33 70  1  0
 33 71  1  0
 34 72  1  1
M  CHG  1  20  -1
M  END
>  <i_m_ct_stereo_status>  (236) 
1

>  <s_m_source_file>  (236) 
/var/tmp/pbs.5076255.sched01/tmpegbcst3k/90u3quomt0.sdf

>  <i_m_source_file_index>  (236) 
4

>  <i_lp_mmshare_version>  (236) 
48012

>  <i_f3d_flags>  (236) 
0

>  <s_epik_input>  (236) 
W0NIMl0xT0MoW0NIM10pKFtDSDNdKU9bQ0BIXShbQ0gyXVtDSDJdMilbQ0BdMShbQ0gzXSlbQ0BIXShbQ0gyXVtDQEhdM1tPSF0pW0NAQF0yKFtDSDNdKVtDQEBIXShbQ0gyXVtDSDJdNClbQ0BAXTMoQyg9TylbT0hdKVtDQEBdNDVbQ0BASF02Qyg9W0NIXUM1PU8pW0NIMl1DKD1PKVtDSDJdW0NIMl02

>  <s_epik_cmdline>  (236) 
J2VwaWtfcHl0aG9uJywgJy1waHQnLCAnMi4wJywgJy1waCcsICc3LjAnLCAnLXRuJywgJzgnLCAnLW1hJywgJzIwMCcsICctaW1hZScsICc8aW5maWxlLm1hZT4nLCAnLW9tYWUnLCAnPG91dGZpbGUubWFlPic=

>  <r_lp_tautomer_probability>  (236) 
0.99986

>  <r_epik_Ionization_Penalty>  (236) 
0.00170448

>  <r_epik_Ionization_Penalty_Charging>  (236) 
0.00170408

>  <r_epik_Ionization_Penalty_Neutral>  (236) 
3.94104e-07

>  <r_epik_State_Penalty>  (236) 
0.00115152

>  <r_epik_Charging_Adjusted_Penalty>  (236) 
0.00285561

>  <i_epik_Tot_Q>  (236) 
-1

>  <i_epik_Tot_abs_Q>  (236) 
1

>  <s_lp_Force_Field>  (236) 
OPLS3e

>  <r_lp_Energy>  (236) 
76.8831

>  <b_lp_Chiralities_Consistent>  (236) 
1

>  <s_lp_Variant>  (236) 
62:0-1

>  <s_i_glide_gridfile>  (236) 
pfpi4k_grid

>  <i_i_glide_lignum>  (236) 
4

>  <i_i_glide_rotatable_bonds>  (236) 
2

>  <r_i_docking_score>  (236) 
-2.90623

>  <r_i_glide_ligand_efficiency>  (236) 
-0.0830351

>  <r_i_glide_ligand_efficiency_sa>  (236) 
-0.271613

>  <r_i_glide_ligand_efficiency_ln>  (236) 
-0.637982

>  <r_i_glide_gscore>  (236) 
-2.90623

>  <r_i_glide_lipo>  (236) 
-0.214441

>  <r_i_glide_hbond>  (236) 
-0.181412

>  <r_i_glide_metal>  (236) 
-0

>  <r_i_glide_rewards>  (236) 
-0.120199

>  <r_i_glide_evdw>  (236) 
-24.8994

>  <r_i_glide_ecoul>  (236) 
-7.22677

>  <r_i_glide_erotb>  (236) 
0

>  <r_i_glide_esite>  (236) 
-0.0611931

>  <r_i_glide_emodel>  (236) 
-37.5852

>  <r_i_glide_energy>  (236) 
-32.1261

>  <r_i_glide_einternal>  (236) 
0.479046

>  <r_i_glide_intrahb_reward>  (236) 
-0

>  <i_i_glide_confnum>  (236) 
3

>  <i_i_glide_posenum>  (236) 
2

>  <r_i_glide_eff_state_penalty>  (236) 
0

>  <ligand_id>  (236) 
62

>  <original_smiles>  (236) 
CC1(C)OCC2(C)C(CCC3(C)C2CC(O)C2(C(=O)O)C3CCC23C(=O)C=C2CC(=O)CCC23)O1

>  <smiles>  (236) 
[H]OC1([H])C([H])([H])C2([H])C3(C([H])([H])[H])C([H])([H])OC(C([H])([H])[H])(C([H])([H])[H])OC3([H])C([H])([H])C([H])([H])C2(C([H])([H])[H])C2([H])C([H])([H])C([H])([H])C3(C(=O)C([H])=C4C([H])([H])C(=O)C([H])([H])C([H])([H])C43[H])C12C(=O)[O-]

$$$$
62:0:1
     RDKit          3D

 72 77  0  0  1  0  0  0  0  0999 V2000
   -1.7297   -7.7314    4.1013 C   0  0  0  0  0  0  0  0  0  0  0  0
   -0.2225   -7.3401    3.9892 C   0  0  0  0  0  0  0  0  0  0  0  0
    0.5045   -8.6432    3.4538 C   0  0  0  0  0  0  0  0  0  0  0  0
   -0.1238   -6.3007    3.0432 O   0  0  0  0  0  0  0  0  0  0  0  0
    1.2026   -5.8038    2.8990 C   0  0  0  0  0  0  0  0  0  0  0  0
    1.9148   -5.3854    4.2440 C   0  0  2  0  0  0  0  0  0  0  0  0
    3.4568   -5.3277    3.9332 C   0  0  0  0  0  0  0  0  0  0  0  0
    1.6411   -6.5385    5.2653 C   0  0  1  0  0  0  0  0  0  0  0  0
    2.1377   -6.1761    6.6854 C   0  0  0  0  0  0  0  0  0  0  0  0
    1.6055   -4.8146    7.1860 C   0  0  0  0  0  0  0  0  0  0  0  0
    1.9031   -3.6078    6.2355 C   0  0  1  0  0  0  0  0  0  0  0  0
    3.4463   -3.2880    6.1916 C   0  0  0  0  0  0  0  0  0  0  0  0
    1.3792   -4.0077    4.8033 C   0  0  1  0  0  0  0  0  0  0  0  0
    1.4976   -2.8392    3.7863 C   0  0  0  0  0  0  0  0  0  0  0  0
    1.6538   -1.4495    4.4483 C   0  0  1  0  0  0  0  0  0  0  0  0
    1.4500   -0.5520    3.3825 O   0  0  0  0  0  0  0  0  0  0  0  0
    0.7328   -1.2629    5.7053 C   0  0  1  0  0  0  0  0  0  0  0  0
   -0.7421   -1.3628    5.2074 C   0  0  0  0  0  0  0  0  0  0  0  0
   -1.0991   -0.6860    4.1959 O   0  0  0  0  0  0  0  0  0  0  0  0
   -1.5113   -2.1575    5.7924 O   0  0  0  0  0  0  0  0  0  0  0  0
    1.1065   -2.3598    6.7925 C   0  0  2  0  0  0  0  0  0  0  0  0
    1.7813   -1.6616    8.0124 C   0  0  0  0  0  0  0  0  0  0  0  0
    2.1306   -0.2658    7.5233 C   0  0  0  0  0  0  0  0  0  0  0  0
    1.0226    0.0864    6.4955 C   0  0  1  0  0  0  0  0  0  0  0  0
    1.3884    1.2846    5.5927 C   0  0  0  0  0  0  0  0  0  0  0  0
    2.5393    1.5839    5.3077 O   0  0  0  0  0  0  0  0  0  0  0  0
    0.2221    2.0976    5.3235 C   0  0  0  0  0  0  0  0  0  0  0  0
   -0.7397    1.6960    6.1756 C   0  0  0  0  0  0  0  0  0  0  0  0
   -2.1011    2.2591    6.3979 C   0  0  0  0  0  0  0  0  0  0  0  0
   -2.0586    2.9629    7.7500 C   0  0  0  0  0  0  0  0  0  0  0  0
   -2.4557    4.1254    7.8993 O   0  0  0  0  0  0  0  0  0  0  0  0
   -1.4376    2.1498    8.9118 C   0  0  0  0  0  0  0  0  0  0  0  0
   -0.1278    1.4046    8.5209 C   0  0  0  0  0  0  0  0  0  0  0  0
   -0.2574    0.6603    7.1753 C   0  0  2  0  0  0  0  0  0  0  0  0
    0.2698   -6.9798    5.2646 O   0  0  0  0  0  0  0  0  0  0  0  0
   -2.2974   -6.8842    4.4775 H   0  0  0  0  0  0  0  0  0  0  0  0
   -1.8102   -8.5880    4.7800 H   0  0  0  0  0  0  0  0  0  0  0  0
   -2.0930   -8.0241    3.1100 H   0  0  0  0  0  0  0  0  0  0  0  0
    1.5786   -8.5219    3.2657 H   0  0  0  0  0  0  0  0  0  0  0  0
    0.0432   -8.9597    2.5190 H   0  0  0  0  0  0  0  0  0  0  0  0
    0.3859   -9.4444    4.1870 H   0  0  0  0  0  0  0  0  0  0  0  0
    1.8045   -6.5850    2.4072 H   0  0  0  0  0  0  0  0  0  0  0  0
    1.1605   -4.9643    2.1961 H   0  0  0  0  0  0  0  0  0  0  0  0
    4.0356   -5.3004    4.8728 H   0  0  0  0  0  0  0  0  0  0  0  0
    3.6892   -4.4373    3.3272 H   0  0  0  0  0  0  0  0  0  0  0  0
    3.7251   -6.2025    3.3286 H   0  0  0  0  0  0  0  0  0  0  0  0
    2.2494   -7.3951    4.9514 H   0  0  0  0  0  0  0  0  0  0  0  0
    1.8927   -7.0014    7.3708 H   0  0  0  0  0  0  0  0  0  0  0  0
    3.2197   -6.1246    6.6374 H   0  0  0  0  0  0  0  0  0  0  0  0
    0.5349   -4.9437    7.3862 H   0  0  0  0  0  0  0  0  0  0  0  0
    2.0450   -4.6386    8.1649 H   0  0  0  0  0  0  0  0  0  0  0  0
    3.7864   -3.1855    5.1483 H   0  0  0  0  0  0  0  0  0  0  0  0
    4.0434   -4.1224    6.5841 H   0  0  0  0  0  0  0  0  0  0  0  0
    3.7071   -2.3803    6.6949 H   0  0  0  0  0  0  0  0  0  0  0  0
    0.3081   -4.1580    4.9274 H   0  0  0  0  0  0  0  0  0  0  0  0
    2.3347   -3.0071    3.1161 H   0  0  0  0  0  0  0  0  0  0  0  0
    0.5851   -2.8197    3.1677 H   0  0  0  0  0  0  0  0  0  0  0  0
    2.6844   -1.2698    4.7316 H   0  0  0  0  0  0  0  0  0  0  0  0
    0.5107   -0.4663    3.2197 H   0  0  0  0  0  0  0  0  0  0  0  0
    0.1697   -2.7332    7.2147 H   0  0  0  0  0  0  0  0  0  0  0  0
    1.0796   -1.5869    8.8408 H   0  0  0  0  0  0  0  0  0  0  0  0
    2.6650   -2.1930    8.3876 H   0  0  0  0  0  0  0  0  0  0  0  0
    2.2813    0.4313    8.3564 H   0  0  0  0  0  0  0  0  0  0  0  0
    3.0980   -0.2848    7.0291 H   0  0  0  0  0  0  0  0  0  0  0  0
    0.1398    2.8789    4.5897 H   0  0  0  0  0  0  0  0  0  0  0  0
   -2.3967    2.9188    5.5767 H   0  0  0  0  0  0  0  0  0  0  0  0
   -2.8191    1.4337    6.4557 H   0  0  0  0  0  0  0  0  0  0  0  0
   -1.2537    2.8027    9.7667 H   0  0  0  0  0  0  0  0  0  0  0  0
   -2.1847    1.4101    9.2098 H   0  0  0  0  0  0  0  0  0  0  0  0
    0.6863    2.1380    8.4698 H   0  0  0  0  0  0  0  0  0  0  0  0
    0.1391    0.6967    9.3239 H   0  0  0  0  0  0  0  0  0  0  0  0
   -1.0011   -0.1067    7.3599 H   0  0  0  0  0  0  0  0  0  0  0  0
  1  2  1  0
  1 36  1  0
  1 37  1  0
  1 38  1  0
  2 35  1  0
  2  3  1  0
  2  4  1  0
  3 39  1  0
  3 40  1  0
  3 41  1  0
  4  5  1  0
  5  6  1  0
  5 42  1  0
  5 43  1  0
  6 13  1  0
  6  7  1  6
  6  8  1  0
  7 44  1  0
  7 45  1  0
  7 46  1  0
  8  9  1  0
  8 35  1  0
  8 47  1  6
  9 10  1  0
  9 48  1  0
  9 49  1  0
 10 11  1  0
 10 50  1  0
 10 51  1  0
 11 21  1  0
 11 12  1  6
 11 13  1  0
 12 52  1  0
 12 53  1  0
 12 54  1  0
 13 14  1  0
 13 55  1  1
 14 15  1  0
 14 56  1  0
 14 57  1  0
 15 16  1  0
 15 17  1  0
 15 58  1  1
 16 59  1  0
 17 24  1  0
 17 18  1  6
 17 21  1  0
 18 19  2  0
 18 20  1  0
 21 22  1  0
 21 60  1  1
 22 23  1  0
 22 61  1  0
 22 62  1  0
 24 23  1  1
 23 63  1  0
 23 64  1  0
 24 34  1  0
 24 25  1  0
 25 26  2  0
 25 27  1  0
 27 28  2  0
 27 65  1  0
 28 34  1  0
 28 29  1  0
 29 30  1  0
 29 66  1  0
 29 67  1  0
 30 31  2  0
 30 32  1  0
 32 33  1  0
 32 68  1  0
 32 69  1  0
 33 34  1  0
 33 70  1  0
 33 71  1  0
 34 72  1  1
M  CHG  1  20  -1
M  END
>  <i_m_ct_stereo_status>  (237) 
1

>  <s_m_source_file>  (237) 
/var/tmp/pbs.5076255.sched01/tmpegbcst3k/90u3quomt0.sdf

>  <i_m_source_file_index>  (237) 
4

>  <i_lp_mmshare_version>  (237) 
48012

>  <i_f3d_flags>  (237) 
0

>  <s_epik_input>  (237) 
W0NIMl0xT0MoW0NIM10pKFtDSDNdKU9bQ0BIXShbQ0gyXVtDSDJdMilbQ0BdMShbQ0gzXSlbQ0BIXShbQ0gyXVtDQEhdM1tPSF0pW0NAQF0yKFtDSDNdKVtDQEBIXShbQ0gyXVtDSDJdNClbQ0BAXTMoQyg9TylbT0hdKVtDQEBdNDVbQ0BASF02Qyg9W0NIXUM1PU8pW0NIMl1DKD1PKVtDSDJdW0NIMl02

>  <s_epik_cmdline>  (237) 
J2VwaWtfcHl0aG9uJywgJy1waHQnLCAnMi4wJywgJy1waCcsICc3LjAnLCAnLXRuJywgJzgnLCAnLW1hJywgJzIwMCcsICctaW1hZScsICc8aW5maWxlLm1hZT4nLCAnLW9tYWUnLCAnPG91dGZpbGUubWFlPic=

>  <r_lp_tautomer_probability>  (237) 
0.99986

>  <r_epik_Ionization_Penalty>  (237) 
0.00170448

>  <r_epik_Ionization_Penalty_Charging>  (237) 
0.00170408

>  <r_epik_Ionization_Penalty_Neutral>  (237) 
3.94104e-07

>  <r_epik_State_Penalty>  (237) 
0.00115152

>  <r_epik_Charging_Adjusted_Penalty>  (237) 
0.00285561

>  <i_epik_Tot_Q>  (237) 
-1

>  <i_epik_Tot_abs_Q>  (237) 
1

>  <s_lp_Force_Field>  (237) 
OPLS3e

>  <r_lp_Energy>  (237) 
76.8831

>  <b_lp_Chiralities_Consistent>  (237) 
1

>  <s_lp_Variant>  (237) 
62:0-1

>  <s_i_glide_gridfile>  (237) 
pfpi4k_grid

>  <i_i_glide_lignum>  (237) 
4

>  <i_i_glide_rotatable_bonds>  (237) 
2

>  <r_i_docking_score>  (237) 
-2.4489

>  <r_i_glide_ligand_efficiency>  (237) 
-0.0699687

>  <r_i_glide_ligand_efficiency_sa>  (237) 
-0.228872

>  <r_i_glide_ligand_efficiency_ln>  (237) 
-0.537589

>  <r_i_glide_gscore>  (237) 
-2.4489

>  <r_i_glide_lipo>  (237) 
-0.0677541

>  <r_i_glide_hbond>  (237) 
-0.137086

>  <r_i_glide_metal>  (237) 
-0

>  <r_i_glide_rewards>  (237) 
-0.647109

>  <r_i_glide_evdw>  (237) 
-24.7226

>  <r_i_glide_ecoul>  (237) 
-1.9294

>  <r_i_glide_erotb>  (237) 
0

>  <r_i_glide_esite>  (237) 
-0.071418

>  <r_i_glide_emodel>  (237) 
-36.2298

>  <r_i_glide_energy>  (237) 
-26.652

>  <r_i_glide_einternal>  (237) 
0.224503

>  <r_i_glide_intrahb_reward>  (237) 
-0.5

>  <i_i_glide_confnum>  (237) 
1

>  <i_i_glide_posenum>  (237) 
15

>  <r_i_glide_eff_state_penalty>  (237) 
0

>  <ligand_id>  (237) 
62

>  <original_smiles>  (237) 
CC1(C)OCC2(C)C(CCC3(C)C2CC(O)C2(C(=O)O)C3CCC23C(=O)C=C2CC(=O)CCC23)O1

>  <smiles>  (237) 
[H]OC1([H])C([H])([H])C2([H])C3(C([H])([H])[H])C([H])([H])OC(C([H])([H])[H])(C([H])([H])[H])OC3([H])C([H])([H])C([H])([H])C2(C([H])([H])[H])C2([H])C([H])([H])C([H])([H])C3(C(=O)C([H])=C4C([H])([H])C(=O)C([H])([H])C([H])([H])C43[H])C12C(=O)[O-]

$$$$
62:0:2
     RDKit          3D

 72 77  0  0  1  0  0  0  0  0999 V2000
    2.0835   -6.1760    6.6080 C   0  0  0  0  0  0  0  0  0  0  0  0
    2.5532   -5.3325    5.3817 C   0  0  0  0  0  0  0  0  0  0  0  0
    3.4145   -6.3225    4.5155 C   0  0  0  0  0  0  0  0  0  0  0  0
    1.4173   -4.9195    4.6652 O   0  0  0  0  0  0  0  0  0  0  0  0
    1.7092   -4.0822    3.5487 C   0  0  0  0  0  0  0  0  0  0  0  0
    2.6024   -2.8349    3.8825 C   0  0  2  0  0  0  0  0  0  0  0  0
    3.1847   -2.3235    2.5207 C   0  0  0  0  0  0  0  0  0  0  0  0
    3.7793   -3.3589    4.7692 C   0  0  1  0  0  0  0  0  0  0  0  0
    4.6560   -2.1909    5.2878 C   0  0  0  0  0  0  0  0  0  0  0  0
    3.8383   -1.0951    6.0048 C   0  0  0  0  0  0  0  0  0  0  0  0
    2.6761   -0.5007    5.1437 C   0  0  1  0  0  0  0  0  0  0  0  0
    3.2538    0.3196    3.9353 C   0  0  0  0  0  0  0  0  0  0  0  0
    1.7961   -1.6999    4.6276 C   0  0  1  0  0  0  0  0  0  0  0  0
    0.5527   -1.2004    3.8255 C   0  0  0  0  0  0  0  0  0  0  0  0
    0.1586    0.2709    4.0880 C   0  0  1  0  0  0  0  0  0  0  0  0
   -1.1121    0.4032    3.4892 O   0  0  0  0  0  0  0  0  0  0  0  0
    0.3095    0.6573    5.6038 C   0  0  1  0  0  0  0  0  0  0  0  0
   -0.6674   -0.2649    6.4095 C   0  0  0  0  0  0  0  0  0  0  0  0
   -1.9013   -0.2465    6.1416 O   0  0  0  0  0  0  0  0  0  0  0  0
   -0.1817   -1.0277    7.2672 O   0  0  0  0  0  0  0  0  0  0  0  0
    1.8198    0.4541    6.0594 C   0  0  2  0  0  0  0  0  0  0  0  0
    2.4666    1.8475    6.3048 C   0  0  0  0  0  0  0  0  0  0  0  0
    1.4931    2.8467    5.6985 C   0  0  0  0  0  0  0  0  0  0  0  0
    0.0968    2.2085    5.8648 C   0  0  1  0  0  0  0  0  0  0  0  0
   -0.9788    2.8739    4.9797 C   0  0  0  0  0  0  0  0  0  0  0  0
   -0.7434    3.4043    3.8945 O   0  0  0  0  0  0  0  0  0  0  0  0
   -2.2456    2.9221    5.6692 C   0  0  0  0  0  0  0  0  0  0  0  0
   -1.9964    2.6256    6.9504 C   0  0  0  0  0  0  0  0  0  0  0  0
   -2.9357    2.6413    8.1183 C   0  0  0  0  0  0  0  0  0  0  0  0
   -2.5432    3.8643    8.9393 C   0  0  0  0  0  0  0  0  0  0  0  0
   -3.3775    4.7044    9.2802 O   0  0  0  0  0  0  0  0  0  0  0  0
   -1.0417    4.0195    9.2554 C   0  0  0  0  0  0  0  0  0  0  0  0
   -0.1276    3.7589    8.0239 C   0  0  0  0  0  0  0  0  0  0  0  0
   -0.5302    2.4749    7.2741 C   0  0  2  0  0  0  0  0  0  0  0  0
    3.3434   -4.2410    5.8191 O   0  0  0  0  0  0  0  0  0  0  0  0
    1.4812   -5.5740    7.2875 H   0  0  0  0  0  0  0  0  0  0  0  0
    2.9556   -6.5724    7.1360 H   0  0  0  0  0  0  0  0  0  0  0  0
    1.4879   -7.0257    6.2560 H   0  0  0  0  0  0  0  0  0  0  0  0
    3.7786   -5.8904    3.5781 H   0  0  0  0  0  0  0  0  0  0  0  0
    2.8188   -7.2021    4.2623 H   0  0  0  0  0  0  0  0  0  0  0  0
    4.2828   -6.6467    5.0933 H   0  0  0  0  0  0  0  0  0  0  0  0
    2.2261   -4.6811    2.7879 H   0  0  0  0  0  0  0  0  0  0  0  0
    0.7711   -3.7708    3.0770 H   0  0  0  0  0  0  0  0  0  0  0  0
    4.0171   -1.6335    2.6826 H   0  0  0  0  0  0  0  0  0  0  0  0
    2.4165   -1.8090    1.9274 H   0  0  0  0  0  0  0  0  0  0  0  0
    3.5440   -3.1604    1.9219 H   0  0  0  0  0  0  0  0  0  0  0  0
    4.4358   -3.9389    4.1154 H   0  0  0  0  0  0  0  0  0  0  0  0
    5.4592   -2.5845    5.9200 H   0  0  0  0  0  0  0  0  0  0  0  0
    5.1574   -1.7477    4.4350 H   0  0  0  0  0  0  0  0  0  0  0  0
    3.4841   -1.5183    6.9501 H   0  0  0  0  0  0  0  0  0  0  0  0
    4.5260   -0.3006    6.2929 H   0  0  0  0  0  0  0  0  0  0  0  0
    2.7333    0.0554    3.0072 H   0  0  0  0  0  0  0  0  0  0  0  0
    4.3084    0.0894    3.7529 H   0  0  0  0  0  0  0  0  0  0  0  0
    3.1468    1.3772    4.0156 H   0  0  0  0  0  0  0  0  0  0  0  0
    1.3952   -2.1814    5.5216 H   0  0  0  0  0  0  0  0  0  0  0  0
    0.7020   -1.3217    2.7621 H   0  0  0  0  0  0  0  0  0  0  0  0
   -0.3004   -1.8378    4.0882 H   0  0  0  0  0  0  0  0  0  0  0  0
    0.7783    0.9421    3.5099 H   0  0  0  0  0  0  0  0  0  0  0  0
   -0.9927    0.7625    2.6203 H   0  0  0  0  0  0  0  0  0  0  0  0
    1.8179    0.0197    7.0649 H   0  0  0  0  0  0  0  0  0  0  0  0
    2.5738    2.0342    7.3710 H   0  0  0  0  0  0  0  0  0  0  0  0
    3.4715    1.9545    5.8845 H   0  0  0  0  0  0  0  0  0  0  0  0
    1.6196    3.8443    6.1294 H   0  0  0  0  0  0  0  0  0  0  0  0
    1.7147    2.9850    4.6399 H   0  0  0  0  0  0  0  0  0  0  0  0
   -3.1892    3.1662    5.2201 H   0  0  0  0  0  0  0  0  0  0  0  0
   -3.9737    2.6696    7.7967 H   0  0  0  0  0  0  0  0  0  0  0  0
   -2.7782    1.7397    8.7164 H   0  0  0  0  0  0  0  0  0  0  0  0
   -0.8515    5.0196    9.6479 H   0  0  0  0  0  0  0  0  0  0  0  0
   -0.7951    3.2980   10.0391 H   0  0  0  0  0  0  0  0  0  0  0  0
   -0.1866    4.6197    7.3512 H   0  0  0  0  0  0  0  0  0  0  0  0
    0.9157    3.6880    8.3570 H   0  0  0  0  0  0  0  0  0  0  0  0
   -0.3507    1.6633    7.9754 H   0  0  0  0  0  0  0  0  0  0  0  0
  1  2  1  0
  1 36  1  0
  1 37  1  0
  1 38  1  0
  2 35  1  0
  2  3  1  0
  2  4  1  0
  3 39  1  0
  3 40  1  0
  3 41  1  0
  4  5  1  0
  5  6  1  0
  5 42  1  0
  5 43  1  0
  6 13  1  0
  6  7  1  6
  6  8  1  0
  7 44  1  0
  7 45  1  0
  7 46  1  0
  8  9  1  0
  8 35  1  0
  8 47  1  6
  9 10  1  0
  9 48  1  0
  9 49  1  0
 10 11  1  0
 10 50  1  0
 10 51  1  0
 11 21  1  0
 11 12  1  6
 11 13  1  0
 12 52  1  0
 12 53  1  0
 12 54  1  0
 13 14  1  0
 13 55  1  1
 14 15  1  0
 14 56  1  0
 14 57  1  0
 15 16  1  0
 15 17  1  0
 15 58  1  6
 16 59  1  0
 17 24  1  0
 17 18  1  1
 17 21  1  0
 18 19  2  0
 18 20  1  0
 21 22  1  0
 21 60  1  1
 22 23  1  0
 22 61  1  0
 22 62  1  0
 24 23  1  1
 23 63  1  0
 23 64  1  0
 24 34  1  0
 24 25  1  0
 25 26  2  0
 25 27  1  0
 27 28  2  0
 27 65  1  0
 28 34  1  0
 28 29  1  0
 29 30  1  0
 29 66  1  0
 29 67  1  0
 30 31  2  0
 30 32  1  0
 32 33  1  0
 32 68  1  0
 32 69  1  0
 33 34  1  0
 33 70  1  0
 33 71  1  0
 34 72  1  1
M  CHG  1  20  -1
M  END
>  <i_m_ct_stereo_status>  (238) 
1

>  <s_m_source_file>  (238) 
/var/tmp/pbs.5076255.sched01/tmpegbcst3k/90u3quomt0.sdf

>  <i_m_source_file_index>  (238) 
4

>  <i_lp_mmshare_version>  (238) 
48012

>  <i_f3d_flags>  (238) 
0

>  <s_epik_input>  (238) 
W0NIMl0xT0MoW0NIM10pKFtDSDNdKU9bQ0BIXShbQ0gyXVtDSDJdMilbQ0BdMShbQ0gzXSlbQ0BIXShbQ0gyXVtDQEhdM1tPSF0pW0NAQF0yKFtDSDNdKVtDQEBIXShbQ0gyXVtDSDJdNClbQ0BAXTMoQyg9TylbT0hdKVtDQEBdNDVbQ0BASF02Qyg9W0NIXUM1PU8pW0NIMl1DKD1PKVtDSDJdW0NIMl02

>  <s_epik_cmdline>  (238) 
J2VwaWtfcHl0aG9uJywgJy1waHQnLCAnMi4wJywgJy1waCcsICc3LjAnLCAnLXRuJywgJzgnLCAnLW1hJywgJzIwMCcsICctaW1hZScsICc8aW5maWxlLm1hZT4nLCAnLW9tYWUnLCAnPG91dGZpbGUubWFlPic=

>  <r_lp_tautomer_probability>  (238) 
0.99986

>  <r_epik_Ionization_Penalty>  (238) 
0.00170448

>  <r_epik_Ionization_Penalty_Charging>  (238) 
0.00170408

>  <r_epik_Ionization_Penalty_Neutral>  (238) 
3.94104e-07

>  <r_epik_State_Penalty>  (238) 
0.00115152

>  <r_epik_Charging_Adjusted_Penalty>  (238) 
0.00285561

>  <i_epik_Tot_Q>  (238) 
-1

>  <i_epik_Tot_abs_Q>  (238) 
1

>  <s_lp_Force_Field>  (238) 
OPLS3e

>  <r_lp_Energy>  (238) 
76.8831

>  <b_lp_Chiralities_Consistent>  (238) 
1

>  <s_lp_Variant>  (238) 
62:0-1

>  <s_i_glide_gridfile>  (238) 
pfpi4k_grid

>  <i_i_glide_lignum>  (238) 
4

>  <i_i_glide_rotatable_bonds>  (238) 
2

>  <r_i_docking_score>  (238) 
-2.21715

>  <r_i_glide_ligand_efficiency>  (238) 
-0.0633472

>  <r_i_glide_ligand_efficiency_sa>  (238) 
-0.207213

>  <r_i_glide_ligand_efficiency_ln>  (238) 
-0.486714

>  <r_i_glide_gscore>  (238) 
-2.21715

>  <r_i_glide_lipo>  (238) 
-0.239113

>  <r_i_glide_hbond>  (238) 
-0.18342

>  <r_i_glide_metal>  (238) 
-0

>  <r_i_glide_rewards>  (238) 
-0.104503

>  <r_i_glide_evdw>  (238) 
-23.6002

>  <r_i_glide_ecoul>  (238) 
-2.91036

>  <r_i_glide_erotb>  (238) 
0

>  <r_i_glide_esite>  (238) 
-0.0735522

>  <r_i_glide_emodel>  (238) 
-29.7114

>  <r_i_glide_energy>  (238) 
-26.5106

>  <r_i_glide_einternal>  (238) 
0.698217

>  <r_i_glide_intrahb_reward>  (238) 
-0

>  <i_i_glide_confnum>  (238) 
1

>  <i_i_glide_posenum>  (238) 
4

>  <r_i_glide_eff_state_penalty>  (238) 
0

>  <ligand_id>  (238) 
62

>  <original_smiles>  (238) 
CC1(C)OCC2(C)C(CCC3(C)C2CC(O)C2(C(=O)O)C3CCC23C(=O)C=C2CC(=O)CCC23)O1

>  <smiles>  (238) 
[H]OC1([H])C([H])([H])C2([H])C3(C([H])([H])[H])C([H])([H])OC(C([H])([H])[H])(C([H])([H])[H])OC3([H])C([H])([H])C([H])([H])C2(C([H])([H])[H])C2([H])C([H])([H])C([H])([H])C3(C(=O)C([H])=C4C([H])([H])C(=O)C([H])([H])C([H])([H])C43[H])C12C(=O)[O-]

$$$$
63:0:0
     RDKit          3D

 33 36  0  0  1  0  0  0  0  0999 V2000
    8.5749   -4.1130    0.5761 O   0  0  0  0  0  0  0  0  0  0  0  0
    7.6467   -4.8207    0.9563 C   0  0  0  0  0  0  0  0  0  0  0  0
    6.4035   -4.7600    0.4562 N   0  0  0  0  0  0  0  0  0  0  0  0
    5.9003   -3.7566   -0.3930 C   0  0  0  0  0  0  0  0  0  0  0  0
    6.2276   -2.3984   -0.1829 C   0  0  0  0  0  0  0  0  0  0  0  0
    5.7818   -1.3873   -0.9577 N   0  0  0  0  0  0  0  0  0  0  0  0
    4.9371   -1.7633   -1.9613 C   0  0  0  0  0  0  0  0  0  0  0  0
    4.1412   -0.7082   -3.1003 S   0  0  0  0  0  0  0  0  0  0  0  0
    3.4127   -1.9823   -3.9377 N   0  0  0  0  0  0  0  0  0  0  0  0
    3.6972   -3.1480   -3.4167 N   0  0  0  0  0  0  0  0  0  0  0  0
    4.5253   -3.0717   -2.2923 C   0  0  0  0  0  0  0  0  0  0  0  0
    5.0164   -4.0959   -1.4420 C   0  0  0  0  0  0  0  0  0  0  0  0
    7.8670   -5.9026    2.0231 C   0  0  0  0  0  0  0  0  0  0  0  0
    7.8144   -7.3005    1.3584 C   0  0  0  0  0  0  0  0  0  0  0  0
    6.4848   -7.8551    1.7995 C   0  0  0  0  0  0  0  0  0  0  0  0
    5.8462   -9.0077    1.3120 C   0  0  0  0  0  0  0  0  0  0  0  0
    4.5787   -9.3348    1.8416 C   0  0  0  0  0  0  0  0  0  0  0  0
    3.9731   -8.5125    2.8212 C   0  0  0  0  0  0  0  0  0  0  0  0
    4.6261   -7.3534    3.2928 C   0  0  0  0  0  0  0  0  0  0  0  0
    5.8948   -7.0540    2.7705 C   0  0  0  0  0  0  0  0  0  0  0  0
    6.7502   -5.8617    3.1096 C   0  0  0  0  0  0  0  0  0  0  0  0
    5.7681   -5.5016    0.7314 H   0  0  0  0  0  0  0  0  0  0  0  0
    6.8564   -2.1063    0.6561 H   0  0  0  0  0  0  0  0  0  0  0  0
    4.7629   -5.1266   -1.6217 H   0  0  0  0  0  0  0  0  0  0  0  0
    8.8411   -5.7343    2.4763 H   0  0  0  0  0  0  0  0  0  0  0  0
    7.9133   -7.2740    0.2740 H   0  0  0  0  0  0  0  0  0  0  0  0
    8.6111   -7.9397    1.7350 H   0  0  0  0  0  0  0  0  0  0  0  0
    6.3092   -9.6248    0.5580 H   0  0  0  0  0  0  0  0  0  0  0  0
    4.0742  -10.2263    1.5022 H   0  0  0  0  0  0  0  0  0  0  0  0
    3.0049   -8.7817    3.2205 H   0  0  0  0  0  0  0  0  0  0  0  0
    4.1691   -6.7156    4.0334 H   0  0  0  0  0  0  0  0  0  0  0  0
    7.1670   -5.9772    4.1113 H   0  0  0  0  0  0  0  0  0  0  0  0
    6.1532   -4.9505    3.1193 H   0  0  0  0  0  0  0  0  0  0  0  0
  1  2  2  0
  2  3  1  0
  2 13  1  0
  3  4  1  0
  3 22  1  0
  4 12  1  0
  4  5  2  0
  5  6  1  0
  5 23  1  0
  6  7  2  0
  7 11  1  0
  7  8  1  0
  8  9  1  0
  9 10  2  0
 10 11  1  0
 11 12  2  0
 12 24  1  0
 13 21  1  0
 13 14  1  0
 13 25  1  0
 14 15  1  0
 14 26  1  0
 14 27  1  0
 15 20  2  0
 15 16  1  0
 16 17  2  0
 16 28  1  0
 17 18  1  0
 17 29  1  0
 18 19  2  0
 18 30  1  0
 19 20  1  0
 19 31  1  0
 20 21  1  0
 21 32  1  0
 21 33  1  0
M  END
>  <i_m_ct_stereo_status>  (239) 
1

>  <s_m_source_file>  (239) 
/var/tmp/pbs.5076255.sched01/tmpegbcst3k/90u3quomt0.sdf

>  <i_m_source_file_index>  (239) 
5

>  <i_lp_mmshare_version>  (239) 
48012

>  <i_f3d_flags>  (239) 
0

>  <s_epik_input>  (239) 
W2NIXTFbY0hdW2NIXVtjSF1jKGMxMilbQ0gyXVtDSF0oW0NIMl0yKUMoPU8pW05IXWMoW2NIXW4zKVtjSF1jKGMzNClubnM0

>  <s_epik_cmdline>  (239) 
J2VwaWtfcHl0aG9uJywgJy1waHQnLCAnMi4wJywgJy1waCcsICc3LjAnLCAnLXRuJywgJzgnLCAnLW1hJywgJzIwMCcsICctaW1hZScsICc8aW5maWxlLm1hZT4nLCAnLW9tYWUnLCAnPG91dGZpbGUubWFlPic=

>  <r_lp_tautomer_probability>  (239) 
1

>  <r_epik_Ionization_Penalty>  (239) 
7.30588e-06

>  <r_epik_Ionization_Penalty_Charging>  (239) 
0

>  <r_epik_Ionization_Penalty_Neutral>  (239) 
7.30588e-06

>  <r_epik_State_Penalty>  (239) 
-0

>  <r_epik_Charging_Adjusted_Penalty>  (239) 
0

>  <i_epik_Tot_Q>  (239) 
0

>  <i_epik_Tot_abs_Q>  (239) 
0

>  <s_lp_Force_Field>  (239) 
OPLS3e

>  <r_lp_Energy>  (239) 
30.1959

>  <b_lp_Chiralities_Consistent>  (239) 
1

>  <s_lp_Variant>  (239) 
63:0-1

>  <s_i_glide_gridfile>  (239) 
pfpi4k_grid

>  <i_i_glide_lignum>  (239) 
5

>  <i_i_glide_rotatable_bonds>  (239) 
3

>  <r_i_docking_score>  (239) 
-3.45388

>  <r_i_glide_ligand_efficiency>  (239) 
-0.16447

>  <r_i_glide_ligand_efficiency_sa>  (239) 
-0.453761

>  <r_i_glide_ligand_efficiency_ln>  (239) 
-0.853964

>  <r_i_glide_gscore>  (239) 
-3.45388

>  <r_i_glide_lipo>  (239) 
-0.412565

>  <r_i_glide_hbond>  (239) 
-0.0468384

>  <r_i_glide_metal>  (239) 
-0

>  <r_i_glide_rewards>  (239) 
-1.56609

>  <r_i_glide_evdw>  (239) 
-30.867

>  <r_i_glide_ecoul>  (239) 
-3.4053

>  <r_i_glide_erotb>  (239) 
0.625761

>  <r_i_glide_esite>  (239) 
0

>  <r_i_glide_emodel>  (239) 
-38.0756

>  <r_i_glide_energy>  (239) 
-34.2723

>  <r_i_glide_einternal>  (239) 
7.24097

>  <r_i_glide_intrahb_reward>  (239) 
-0

>  <i_i_glide_confnum>  (239) 
6

>  <i_i_glide_posenum>  (239) 
1

>  <r_i_glide_eff_state_penalty>  (239) 
0

>  <ligand_id>  (239) 
63

>  <original_smiles>  (239) 
O=C(Nc1cnc2snnc2c1)C1Cc2ccccc2C1

>  <smiles>  (239) 
[H]c1nc2snnc2c([H])c1N([H])C(=O)C1([H])C([H])([H])c2c([H])c([H])c([H])c([H])c2C1([H])[H]

$$$$
63:0:1
     RDKit          3D

 33 36  0  0  1  0  0  0  0  0999 V2000
    4.3692   -3.1868    3.0540 O   0  0  0  0  0  0  0  0  0  0  0  0
    4.2475   -3.1928    1.8313 C   0  0  0  0  0  0  0  0  0  0  0  0
    3.4094   -3.9832    1.1388 N   0  0  0  0  0  0  0  0  0  0  0  0
    2.4703   -4.9231    1.6151 C   0  0  0  0  0  0  0  0  0  0  0  0
    1.9702   -5.8651    0.6884 C   0  0  0  0  0  0  0  0  0  0  0  0
    1.0142   -6.7750    0.9745 N   0  0  0  0  0  0  0  0  0  0  0  0
    0.6030   -6.7833    2.2747 C   0  0  0  0  0  0  0  0  0  0  0  0
   -0.5601   -7.8609    3.0083 S   0  0  0  0  0  0  0  0  0  0  0  0
   -0.4946   -7.0818    4.5088 N   0  0  0  0  0  0  0  0  0  0  0  0
    0.3508   -6.0844    4.5183 N   0  0  0  0  0  0  0  0  0  0  0  0
    1.0016   -5.8928    3.2979 C   0  0  0  0  0  0  0  0  0  0  0  0
    1.9582   -4.9237    2.9310 C   0  0  0  0  0  0  0  0  0  0  0  0
    5.0973   -2.2600    0.9603 C   0  0  0  0  0  0  0  0  0  0  0  0
    4.1770   -1.2778    0.1716 C   0  0  0  0  0  0  0  0  0  0  0  0
    4.2459   -1.7972   -1.2385 C   0  0  0  0  0  0  0  0  0  0  0  0
    3.4250   -1.4128   -2.3158 C   0  0  0  0  0  0  0  0  0  0  0  0
    3.6144   -2.0561   -3.5599 C   0  0  0  0  0  0  0  0  0  0  0  0
    4.5875   -3.0757   -3.6946 C   0  0  0  0  0  0  0  0  0  0  0  0
    5.3973   -3.4506   -2.6016 C   0  0  0  0  0  0  0  0  0  0  0  0
    5.2065   -2.7918   -1.3789 C   0  0  0  0  0  0  0  0  0  0  0  0
    5.9143   -3.0764   -0.0817 C   0  0  0  0  0  0  0  0  0  0  0  0
    3.4925   -3.9087    0.1354 H   0  0  0  0  0  0  0  0  0  0  0  0
    2.3410   -5.8635   -0.3299 H   0  0  0  0  0  0  0  0  0  0  0  0
    2.2442   -4.1847    3.6599 H   0  0  0  0  0  0  0  0  0  0  0  0
    5.7628   -1.7120    1.6211 H   0  0  0  0  0  0  0  0  0  0  0  0
    3.1412   -1.2510    0.5223 H   0  0  0  0  0  0  0  0  0  0  0  0
    4.5586   -0.2580    0.2064 H   0  0  0  0  0  0  0  0  0  0  0  0
    2.6634   -0.6597   -2.1932 H   0  0  0  0  0  0  0  0  0  0  0  0
    3.0036   -1.7689   -4.3996 H   0  0  0  0  0  0  0  0  0  0  0  0
    4.7195   -3.5718   -4.6406 H   0  0  0  0  0  0  0  0  0  0  0  0
    6.1342   -4.2308   -2.7090 H   0  0  0  0  0  0  0  0  0  0  0  0
    6.9461   -2.7276   -0.1413 H   0  0  0  0  0  0  0  0  0  0  0  0
    5.9502   -4.1505    0.1171 H   0  0  0  0  0  0  0  0  0  0  0  0
  1  2  2  0
  2  3  1  0
  2 13  1  0
  3  4  1  0
  3 22  1  0
  4 12  1  0
  4  5  2  0
  5  6  1  0
  5 23  1  0
  6  7  2  0
  7 11  1  0
  7  8  1  0
  8  9  1  0
  9 10  2  0
 10 11  1  0
 11 12  2  0
 12 24  1  0
 13 21  1  0
 13 14  1  0
 13 25  1  0
 14 15  1  0
 14 26  1  0
 14 27  1  0
 15 20  2  0
 15 16  1  0
 16 17  2  0
 16 28  1  0
 17 18  1  0
 17 29  1  0
 18 19  2  0
 18 30  1  0
 19 20  1  0
 19 31  1  0
 20 21  1  0
 21 32  1  0
 21 33  1  0
M  END
>  <i_m_ct_stereo_status>  (240) 
1

>  <s_m_source_file>  (240) 
/var/tmp/pbs.5076255.sched01/tmpegbcst3k/90u3quomt0.sdf

>  <i_m_source_file_index>  (240) 
5

>  <i_lp_mmshare_version>  (240) 
48012

>  <i_f3d_flags>  (240) 
0

>  <s_epik_input>  (240) 
W2NIXTFbY0hdW2NIXVtjSF1jKGMxMilbQ0gyXVtDSF0oW0NIMl0yKUMoPU8pW05IXWMoW2NIXW4zKVtjSF1jKGMzNClubnM0

>  <s_epik_cmdline>  (240) 
J2VwaWtfcHl0aG9uJywgJy1waHQnLCAnMi4wJywgJy1waCcsICc3LjAnLCAnLXRuJywgJzgnLCAnLW1hJywgJzIwMCcsICctaW1hZScsICc8aW5maWxlLm1hZT4nLCAnLW9tYWUnLCAnPG91dGZpbGUubWFlPic=

>  <r_lp_tautomer_probability>  (240) 
1

>  <r_epik_Ionization_Penalty>  (240) 
7.30588e-06

>  <r_epik_Ionization_Penalty_Charging>  (240) 
0

>  <r_epik_Ionization_Penalty_Neutral>  (240) 
7.30588e-06

>  <r_epik_State_Penalty>  (240) 
-0

>  <r_epik_Charging_Adjusted_Penalty>  (240) 
0

>  <i_epik_Tot_Q>  (240) 
0

>  <i_epik_Tot_abs_Q>  (240) 
0

>  <s_lp_Force_Field>  (240) 
OPLS3e

>  <r_lp_Energy>  (240) 
30.1959

>  <b_lp_Chiralities_Consistent>  (240) 
1

>  <s_lp_Variant>  (240) 
63:0-1

>  <s_i_glide_gridfile>  (240) 
pfpi4k_grid

>  <i_i_glide_lignum>  (240) 
5

>  <i_i_glide_rotatable_bonds>  (240) 
3

>  <r_i_docking_score>  (240) 
-3.25916

>  <r_i_glide_ligand_efficiency>  (240) 
-0.155198

>  <r_i_glide_ligand_efficiency_sa>  (240) 
-0.42818

>  <r_i_glide_ligand_efficiency_ln>  (240) 
-0.805821

>  <r_i_glide_gscore>  (240) 
-3.25916

>  <r_i_glide_lipo>  (240) 
-0.698051

>  <r_i_glide_hbond>  (240) 
-0.0123937

>  <r_i_glide_metal>  (240) 
-0

>  <r_i_glide_rewards>  (240) 
-1.40231

>  <r_i_glide_evdw>  (240) 
-30.0854

>  <r_i_glide_ecoul>  (240) 
-1.40471

>  <r_i_glide_erotb>  (240) 
0.625761

>  <r_i_glide_esite>  (240) 
-0.057191

>  <r_i_glide_emodel>  (240) 
-36.3683

>  <r_i_glide_energy>  (240) 
-31.4901

>  <r_i_glide_einternal>  (240) 
4.51357

>  <r_i_glide_intrahb_reward>  (240) 
-0

>  <i_i_glide_confnum>  (240) 
5

>  <i_i_glide_posenum>  (240) 
4

>  <r_i_glide_eff_state_penalty>  (240) 
0

>  <ligand_id>  (240) 
63

>  <original_smiles>  (240) 
O=C(Nc1cnc2snnc2c1)C1Cc2ccccc2C1

>  <smiles>  (240) 
[H]c1nc2snnc2c([H])c1N([H])C(=O)C1([H])C([H])([H])c2c([H])c([H])c([H])c([H])c2C1([H])[H]

$$$$
63:0:2
     RDKit          3D

 33 36  0  0  1  0  0  0  0  0999 V2000
    1.8120   -5.4338    0.4353 O   0  0  0  0  0  0  0  0  0  0  0  0
    2.7148   -5.1415    1.2197 C   0  0  0  0  0  0  0  0  0  0  0  0
    3.5569   -4.1128    1.0672 N   0  0  0  0  0  0  0  0  0  0  0  0
    3.6192   -3.1829   -0.0048 C   0  0  0  0  0  0  0  0  0  0  0  0
    4.3657   -1.9955    0.1837 C   0  0  0  0  0  0  0  0  0  0  0  0
    4.5569   -1.0494   -0.7656 N   0  0  0  0  0  0  0  0  0  0  0  0
    3.9351   -1.3113   -1.9558 C   0  0  0  0  0  0  0  0  0  0  0  0
    3.8854   -0.2975   -3.3745 S   0  0  0  0  0  0  0  0  0  0  0  0
    3.0253   -1.4086   -4.2840 N   0  0  0  0  0  0  0  0  0  0  0  0
    2.6969   -2.4689   -3.6028 N   0  0  0  0  0  0  0  0  0  0  0  0
    3.1713   -2.4469   -2.2915 C   0  0  0  0  0  0  0  0  0  0  0  0
    3.0108   -3.3975   -1.2668 C   0  0  0  0  0  0  0  0  0  0  0  0
    2.8856   -5.9648    2.4986 C   0  0  0  0  0  0  0  0  0  0  0  0
    2.6626   -7.4727    2.1941 C   0  0  0  0  0  0  0  0  0  0  0  0
    1.3003   -7.7459    2.7711 C   0  0  0  0  0  0  0  0  0  0  0  0
    0.5354   -8.9105    2.5963 C   0  0  0  0  0  0  0  0  0  0  0  0
   -0.7351   -8.9673    3.2120 C   0  0  0  0  0  0  0  0  0  0  0  0
   -1.2163   -7.8779    3.9764 C   0  0  0  0  0  0  0  0  0  0  0  0
   -0.4352   -6.7120    4.1329 C   0  0  0  0  0  0  0  0  0  0  0  0
    0.8241   -6.6735    3.5151 C   0  0  0  0  0  0  0  0  0  0  0  0
    1.8045   -5.5326    3.5276 C   0  0  0  0  0  0  0  0  0  0  0  0
    4.1929   -3.9396    1.8325 H   0  0  0  0  0  0  0  0  0  0  0  0
    4.8324   -1.8024    1.1470 H   0  0  0  0  0  0  0  0  0  0  0  0
    2.4290   -4.2621   -1.5123 H   0  0  0  0  0  0  0  0  0  0  0  0
    3.8878   -5.8011    2.8970 H   0  0  0  0  0  0  0  0  0  0  0  0
    2.6901   -7.7278    1.1333 H   0  0  0  0  0  0  0  0  0  0  0  0
    3.4092   -8.0917    2.6889 H   0  0  0  0  0  0  0  0  0  0  0  0
    0.9084   -9.7370    2.0110 H   0  0  0  0  0  0  0  0  0  0  0  0
   -1.3363   -9.8560    3.1136 H   0  0  0  0  0  0  0  0  0  0  0  0
   -2.1808   -7.9549    4.4506 H   0  0  0  0  0  0  0  0  0  0  0  0
   -0.7922   -5.8761    4.7181 H   0  0  0  0  0  0  0  0  0  0  0  0
    2.2301   -5.4316    4.5283 H   0  0  0  0  0  0  0  0  0  0  0  0
    1.3027   -4.5917    3.2861 H   0  0  0  0  0  0  0  0  0  0  0  0
  1  2  2  0
  2  3  1  0
  2 13  1  0
  3  4  1  0
  3 22  1  0
  4 12  1  0
  4  5  2  0
  5  6  1  0
  5 23  1  0
  6  7  2  0
  7 11  1  0
  7  8  1  0
  8  9  1  0
  9 10  2  0
 10 11  1  0
 11 12  2  0
 12 24  1  0
 13 21  1  0
 13 14  1  0
 13 25  1  0
 14 15  1  0
 14 26  1  0
 14 27  1  0
 15 20  2  0
 15 16  1  0
 16 17  2  0
 16 28  1  0
 17 18  1  0
 17 29  1  0
 18 19  2  0
 18 30  1  0
 19 20  1  0
 19 31  1  0
 20 21  1  0
 21 32  1  0
 21 33  1  0
M  END
>  <i_m_ct_stereo_status>  (241) 
1

>  <s_m_source_file>  (241) 
/var/tmp/pbs.5076255.sched01/tmpegbcst3k/90u3quomt0.sdf

>  <i_m_source_file_index>  (241) 
5

>  <i_lp_mmshare_version>  (241) 
48012

>  <i_f3d_flags>  (241) 
0

>  <s_epik_input>  (241) 
W2NIXTFbY0hdW2NIXVtjSF1jKGMxMilbQ0gyXVtDSF0oW0NIMl0yKUMoPU8pW05IXWMoW2NIXW4zKVtjSF1jKGMzNClubnM0

>  <s_epik_cmdline>  (241) 
J2VwaWtfcHl0aG9uJywgJy1waHQnLCAnMi4wJywgJy1waCcsICc3LjAnLCAnLXRuJywgJzgnLCAnLW1hJywgJzIwMCcsICctaW1hZScsICc8aW5maWxlLm1hZT4nLCAnLW9tYWUnLCAnPG91dGZpbGUubWFlPic=

>  <r_lp_tautomer_probability>  (241) 
1

>  <r_epik_Ionization_Penalty>  (241) 
7.30588e-06

>  <r_epik_Ionization_Penalty_Charging>  (241) 
0

>  <r_epik_Ionization_Penalty_Neutral>  (241) 
7.30588e-06

>  <r_epik_State_Penalty>  (241) 
-0

>  <r_epik_Charging_Adjusted_Penalty>  (241) 
0

>  <i_epik_Tot_Q>  (241) 
0

>  <i_epik_Tot_abs_Q>  (241) 
0

>  <s_lp_Force_Field>  (241) 
OPLS3e

>  <r_lp_Energy>  (241) 
30.1959

>  <b_lp_Chiralities_Consistent>  (241) 
1

>  <s_lp_Variant>  (241) 
63:0-1

>  <s_i_glide_gridfile>  (241) 
pfpi4k_grid

>  <i_i_glide_lignum>  (241) 
5

>  <i_i_glide_rotatable_bonds>  (241) 
3

>  <r_i_docking_score>  (241) 
-3.24637

>  <r_i_glide_ligand_efficiency>  (241) 
-0.154589

>  <r_i_glide_ligand_efficiency_sa>  (241) 
-0.4265

>  <r_i_glide_ligand_efficiency_ln>  (241) 
-0.80266

>  <r_i_glide_gscore>  (241) 
-3.24637

>  <r_i_glide_lipo>  (241) 
-0.3011

>  <r_i_glide_hbond>  (241) 
-0.100034

>  <r_i_glide_metal>  (241) 
-0

>  <r_i_glide_rewards>  (241) 
-1.38854

>  <r_i_glide_evdw>  (241) 
-30.8826

>  <r_i_glide_ecoul>  (241) 
-3.36395

>  <r_i_glide_erotb>  (241) 
0.625761

>  <r_i_glide_esite>  (241) 
-0.0337401

>  <r_i_glide_emodel>  (241) 
-40.6872

>  <r_i_glide_energy>  (241) 
-34.2466

>  <r_i_glide_einternal>  (241) 
1.19494

>  <r_i_glide_intrahb_reward>  (241) 
-0

>  <i_i_glide_confnum>  (241) 
4

>  <i_i_glide_posenum>  (241) 
2

>  <r_i_glide_eff_state_penalty>  (241) 
0

>  <ligand_id>  (241) 
63

>  <original_smiles>  (241) 
O=C(Nc1cnc2snnc2c1)C1Cc2ccccc2C1

>  <smiles>  (241) 
[H]c1nc2snnc2c([H])c1N([H])C(=O)C1([H])C([H])([H])c2c([H])c([H])c([H])c([H])c2C1([H])[H]

$$$$
64:0:0
     RDKit          3D

 45 48  0  0  1  0  0  0  0  0999 V2000
   -1.3967    3.6260    2.8860 N   0  0  0  0  0  0  0  0  0  0  0  0
   -1.3729    2.7124    3.9583 C   0  0  0  0  0  0  0  0  0  0  0  0
   -2.3453    2.6504    4.8383 N   0  0  0  0  0  0  0  0  0  0  0  0
   -1.9745    1.6156    5.7199 O   0  0  0  0  0  0  0  0  0  0  0  0
   -0.7429    1.0563    5.3310 N   0  0  0  0  0  0  0  0  0  0  0  0
   -0.3806    1.7360    4.2652 C   0  0  0  0  0  0  0  0  0  0  0  0
    0.7993    1.5538    3.4922 N   0  0  0  0  0  0  0  0  0  0  0  0
    1.5629    2.6212    3.1508 N   0  0  0  0  0  0  0  0  0  0  0  0
    2.5959    2.1646    2.5175 N   0  0  0  0  0  0  0  0  0  0  0  0
    2.4931    0.7814    2.4091 C   0  0  0  0  0  0  0  0  0  0  0  0
    3.5137   -0.0684    1.7476 C   0  0  0  0  0  0  0  0  0  0  0  0
    4.6644   -0.2012    2.1787 O   0  0  0  0  0  0  0  0  0  0  0  0
    3.0646   -0.6809    0.6486 N   0  0  0  0  0  0  0  0  0  0  0  0
    3.8671   -1.4282   -0.1254 N   0  0  0  0  0  0  0  0  0  0  0  0
    3.4933   -1.6014   -1.3379 C   0  0  0  0  0  0  0  0  0  0  0  0
    4.1971   -2.4209   -2.2437 C   0  0  0  0  0  0  0  0  0  0  0  0
    3.7932   -3.0328   -3.3967 C   0  0  0  0  0  0  0  0  0  0  0  0
    4.9358   -3.7340   -3.8639 C   0  0  0  0  0  0  0  0  0  0  0  0
    5.9361   -3.4441   -2.9754 C   0  0  0  0  0  0  0  0  0  0  0  0
    5.5000   -2.6720   -1.9706 O   0  0  0  0  0  0  0  0  0  0  0  0
    1.3549    0.3662    3.0553 C   0  0  0  0  0  0  0  0  0  0  0  0
    0.7628   -0.9906    3.3327 C   0  0  0  0  0  0  0  0  0  0  0  0
    1.3080   -1.6730    4.5126 N   0  0  0  0  0  0  0  0  0  0  0  0
    2.6913   -2.0762    4.2570 C   0  0  0  0  0  0  0  0  0  0  0  0
    3.4175   -2.6397    5.4693 C   0  0  0  0  0  0  0  0  0  0  0  0
    2.6560   -4.1858    5.9880 S   0  0  0  0  0  0  0  0  0  0  0  0
    0.9685   -3.5442    6.1125 C   0  0  0  0  0  0  0  0  0  0  0  0
    0.5099   -2.8637    4.8080 C   0  0  0  0  0  0  0  0  0  0  0  0
   -0.6498    3.7125    2.1795 H   0  0  0  0  0  0  0  0  0  0  0  0
    2.1272   -0.5013    0.2905 H   0  0  0  0  0  0  0  0  0  0  0  0
    2.6128   -1.0893   -1.7274 H   0  0  0  0  0  0  0  0  0  0  0  0
    2.8007   -2.9994   -3.8245 H   0  0  0  0  0  0  0  0  0  0  0  0
    5.0386   -4.3546   -4.7385 H   0  0  0  0  0  0  0  0  0  0  0  0
    6.9753   -3.7256   -2.8979 H   0  0  0  0  0  0  0  0  0  0  0  0
   -0.3073   -0.8696    3.4938 H   0  0  0  0  0  0  0  0  0  0  0  0
    0.8592   -1.6207    2.4494 H   0  0  0  0  0  0  0  0  0  0  0  0
    2.7584   -2.7365    3.3865 H   0  0  0  0  0  0  0  0  0  0  0  0
    3.2629   -1.1828    4.0726 H   0  0  0  0  0  0  0  0  0  0  0  0
    4.4659   -2.8021    5.2107 H   0  0  0  0  0  0  0  0  0  0  0  0
    3.3990   -1.9041    6.2753 H   0  0  0  0  0  0  0  0  0  0  0  0
    0.3142   -4.3815    6.3462 H   0  0  0  0  0  0  0  0  0  0  0  0
    0.9152   -2.8436    6.9468 H   0  0  0  0  0  0  0  0  0  0  0  0
   -0.5336   -2.5669    4.9248 H   0  0  0  0  0  0  0  0  0  0  0  0
    0.5555   -3.5668    3.9734 H   0  0  0  0  0  0  0  0  0  0  0  0
   -2.1788    4.2240    2.7260 H   0  0  0  0  0  0  0  0  0  0  0  0
  1  2  1  0
  1 29  1  0
  1 45  1  0
  2  6  1  0
  2  3  2  0
  3  4  1  0
  4  5  1  0
  5  6  2  0
  6  7  1  0
  7 21  1  0
  7  8  1  0
  8  9  2  0
  9 10  1  0
 10 11  1  0
 10 21  2  0
 11 12  2  0
 11 13  1  0
 13 14  1  0
 13 30  1  0
 14 15  2  3
 15 16  1  0
 15 31  1  0
 16 20  1  0
 16 17  2  0
 17 18  1  0
 17 32  1  0
 18 19  2  0
 18 33  1  0
 19 20  1  0
 19 34  1  0
 21 22  1  0
 22 23  1  0
 22 35  1  0
 22 36  1  0
 23 28  1  0
 23 24  1  0
 24 25  1  0
 24 37  1  0
 24 38  1  0
 25 26  1  0
 25 39  1  0
 25 40  1  0
 26 27  1  0
 27 28  1  0
 27 41  1  0
 27 42  1  0
 28 43  1  0
 28 44  1  0
M  END
>  <i_m_ct_stereo_status>  (242) 
1

>  <s_m_source_file>  (242) 
/var/tmp/pbs.5076255.sched01/tmpegbcst3k/90u3quomt0.sdf

>  <i_m_source_file_index>  (242) 
6

>  <i_lp_mmshare_version>  (242) 
48012

>  <i_f3d_flags>  (242) 
0

>  <s_epik_input>  (242) 
W0hdL049YzFcW25IXW9uYzEtbjJubmMoQyg9TylbTkhdL049W0NIXS9jM1tjSF1bY0hdW2NIXW8zKWMyW0NIMl1ONFtDSDJdW0NIMl1TW0NIMl1bQ0gyXTQ=

>  <s_epik_cmdline>  (242) 
J2VwaWtfcHl0aG9uJywgJy1waHQnLCAnMi4wJywgJy1waCcsICc3LjAnLCAnLXRuJywgJzgnLCAnLW1hJywgJzIwMCcsICctaW1hZScsICc8aW5maWxlLm1hZT4nLCAnLW9tYWUnLCAnPG91dGZpbGUubWFlPic=

>  <r_lp_tautomer_probability>  (242) 
1

>  <r_epik_Ionization_Penalty>  (242) 
0.014159

>  <r_epik_Ionization_Penalty_Charging>  (242) 
0

>  <r_epik_Ionization_Penalty_Neutral>  (242) 
0.014159

>  <r_epik_State_Penalty>  (242) 
0.0100019

>  <r_epik_Charging_Adjusted_Penalty>  (242) 
0.0100019

>  <i_epik_Tot_Q>  (242) 
0

>  <i_epik_Tot_abs_Q>  (242) 
0

>  <s_epik_Chemistry_Notes>  (242) 
This compound has an imine and may undergo hydrolysis.

>  <s_lp_Force_Field>  (242) 
OPLS3e

>  <r_lp_Energy>  (242) 
19.1271

>  <b_lp_Chiralities_Consistent>  (242) 
1

>  <s_lp_Variant>  (242) 
64:0-1

>  <s_i_glide_gridfile>  (242) 
pfpi4k_grid

>  <i_i_glide_lignum>  (242) 
6

>  <i_i_glide_rotatable_bonds>  (242) 
7

>  <r_i_docking_score>  (242) 
-3.76802

>  <r_i_glide_ligand_efficiency>  (242) 
-0.134572

>  <r_i_glide_ligand_efficiency_sa>  (242) 
-0.408641

>  <r_i_glide_ligand_efficiency_ln>  (242) 
-0.869771

>  <r_i_glide_gscore>  (242) 
-3.76802

>  <r_i_glide_lipo>  (242) 
-0.465032

>  <r_i_glide_hbond>  (242) 
-0.32748

>  <r_i_glide_metal>  (242) 
-0

>  <r_i_glide_rewards>  (242) 
-0.675117

>  <r_i_glide_evdw>  (242) 
-26.5411

>  <r_i_glide_ecoul>  (242) 
-8.41113

>  <r_i_glide_erotb>  (242) 
0.723818

>  <r_i_glide_esite>  (242) 
-0.435487

>  <r_i_glide_emodel>  (242) 
-40.3997

>  <r_i_glide_energy>  (242) 
-34.9523

>  <r_i_glide_einternal>  (242) 
4.83233

>  <r_i_glide_intrahb_reward>  (242) 
-0

>  <i_i_glide_confnum>  (242) 
8

>  <i_i_glide_posenum>  (242) 
24

>  <r_i_glide_eff_state_penalty>  (242) 
0

>  <ligand_id>  (242) 
64

>  <original_smiles>  (242) 
N=c1[nH]onc1-n1nnc(C(=O)NN=Cc2ccco2)c1CN1CCSCC1

>  <smiles>  (242) 
[H]C(=NN([H])C(=O)c1nnn(-c2nonc2N([H])[H])c1C([H])([H])N1C([H])([H])C([H])([H])SC([H])([H])C1([H])[H])c1oc([H])c([H])c1[H]

$$$$
64:0:1
     RDKit          3D

 45 48  0  0  1  0  0  0  0  0999 V2000
   -1.6729    3.8113    2.8832 N   0  0  0  0  0  0  0  0  0  0  0  0
   -1.6284    2.9903    4.0231 C   0  0  0  0  0  0  0  0  0  0  0  0
   -2.5884    2.9719    4.9062 N   0  0  0  0  0  0  0  0  0  0  0  0
   -2.1758    2.0429    5.8825 O   0  0  0  0  0  0  0  0  0  0  0  0
   -0.9418    1.4792    5.5324 N   0  0  0  0  0  0  0  0  0  0  0  0
   -0.6081    2.0643    4.4015 C   0  0  0  0  0  0  0  0  0  0  0  0
    0.5744    1.8336    3.6762 N   0  0  0  0  0  0  0  0  0  0  0  0
    1.2675    2.8707    3.1641 N   0  0  0  0  0  0  0  0  0  0  0  0
    2.3090    2.3955    2.5679 N   0  0  0  0  0  0  0  0  0  0  0  0
    2.3201    1.0155    2.6954 C   0  0  0  0  0  0  0  0  0  0  0  0
    3.4004    0.1638    2.1379 C   0  0  0  0  0  0  0  0  0  0  0  0
    4.4568   -0.0238    2.7432 O   0  0  0  0  0  0  0  0  0  0  0  0
    3.1143   -0.3499    0.9425 N   0  0  0  0  0  0  0  0  0  0  0  0
    4.0100   -1.0705    0.2498 N   0  0  0  0  0  0  0  0  0  0  0  0
    3.6279   -1.4592   -0.9080 C   0  0  0  0  0  0  0  0  0  0  0  0
    4.4705   -2.2155   -1.7571 C   0  0  0  0  0  0  0  0  0  0  0  0
    4.2029   -2.8445   -2.9414 C   0  0  0  0  0  0  0  0  0  0  0  0
    5.4248   -3.4567   -3.3200 C   0  0  0  0  0  0  0  0  0  0  0  0
    6.3376   -3.1440   -2.3514 C   0  0  0  0  0  0  0  0  0  0  0  0
    5.7666   -2.3821   -1.3901 O   0  0  0  0  0  0  0  0  0  0  0  0
    1.2178    0.6337    3.4246 C   0  0  0  0  0  0  0  0  0  0  0  0
    0.7001   -0.6982    3.9001 C   0  0  0  0  0  0  0  0  0  0  0  0
    1.2849   -1.1501    5.1678 N   0  0  0  0  0  0  0  0  0  0  0  0
    2.7072   -1.4360    4.9657 C   0  0  0  0  0  0  0  0  0  0  0  0
    3.4664   -1.7813    6.2463 C   0  0  0  0  0  0  0  0  0  0  0  0
    2.8404   -3.3007    7.0068 S   0  0  0  0  0  0  0  0  0  0  0  0
    1.1047   -2.7860    7.0382 C   0  0  0  0  0  0  0  0  0  0  0  0
    0.5896   -2.3489    5.6473 C   0  0  0  0  0  0  0  0  0  0  0  0
   -0.9221    3.8264    2.1896 H   0  0  0  0  0  0  0  0  0  0  0  0
    2.2251   -0.1630    0.4826 H   0  0  0  0  0  0  0  0  0  0  0  0
    2.6399   -1.2291   -1.3104 H   0  0  0  0  0  0  0  0  0  0  0  0
    3.2513   -2.8637   -3.4510 H   0  0  0  0  0  0  0  0  0  0  0  0
    5.6113   -4.0565   -4.2005 H   0  0  0  0  0  0  0  0  0  0  0  0
    7.3860   -3.3726   -2.2041 H   0  0  0  0  0  0  0  0  0  0  0  0
   -0.3821   -0.6314    4.0435 H   0  0  0  0  0  0  0  0  0  0  0  0
    0.8375   -1.4594    3.1289 H   0  0  0  0  0  0  0  0  0  0  0  0
    2.8376   -2.2160    4.2088 H   0  0  0  0  0  0  0  0  0  0  0  0
    3.1810   -0.5198    4.6308 H   0  0  0  0  0  0  0  0  0  0  0  0
    4.5255   -1.8917    6.0058 H   0  0  0  0  0  0  0  0  0  0  0  0
    3.3884   -0.9428    6.9402 H   0  0  0  0  0  0  0  0  0  0  0  0
    0.5194   -3.6291    7.3986 H   0  0  0  0  0  0  0  0  0  0  0  0
    0.9893   -1.9701    7.7536 H   0  0  0  0  0  0  0  0  0  0  0  0
   -0.4803   -2.1261    5.7246 H   0  0  0  0  0  0  0  0  0  0  0  0
    0.7015   -3.1602    4.9225 H   0  0  0  0  0  0  0  0  0  0  0  0
   -2.4819    4.3652    2.6603 H   0  0  0  0  0  0  0  0  0  0  0  0
  1  2  1  0
  1 29  1  0
  1 45  1  0
  2  6  1  0
  2  3  2  0
  3  4  1  0
  4  5  1  0
  5  6  2  0
  6  7  1  0
  7 21  1  0
  7  8  1  0
  8  9  2  0
  9 10  1  0
 10 11  1  0
 10 21  2  0
 11 12  2  0
 11 13  1  0
 13 14  1  0
 13 30  1  0
 14 15  2  3
 15 16  1  0
 15 31  1  0
 16 20  1  0
 16 17  2  0
 17 18  1  0
 17 32  1  0
 18 19  2  0
 18 33  1  0
 19 20  1  0
 19 34  1  0
 21 22  1  0
 22 23  1  0
 22 35  1  0
 22 36  1  0
 23 28  1  0
 23 24  1  0
 24 25  1  0
 24 37  1  0
 24 38  1  0
 25 26  1  0
 25 39  1  0
 25 40  1  0
 26 27  1  0
 27 28  1  0
 27 41  1  0
 27 42  1  0
 28 43  1  0
 28 44  1  0
M  END
>  <i_m_ct_stereo_status>  (243) 
1

>  <s_m_source_file>  (243) 
/var/tmp/pbs.5076255.sched01/tmpegbcst3k/90u3quomt0.sdf

>  <i_m_source_file_index>  (243) 
6

>  <i_lp_mmshare_version>  (243) 
48012

>  <i_f3d_flags>  (243) 
0

>  <s_epik_input>  (243) 
W0hdL049YzFcW25IXW9uYzEtbjJubmMoQyg9TylbTkhdL049W0NIXS9jM1tjSF1bY0hdW2NIXW8zKWMyW0NIMl1ONFtDSDJdW0NIMl1TW0NIMl1bQ0gyXTQ=

>  <s_epik_cmdline>  (243) 
J2VwaWtfcHl0aG9uJywgJy1waHQnLCAnMi4wJywgJy1waCcsICc3LjAnLCAnLXRuJywgJzgnLCAnLW1hJywgJzIwMCcsICctaW1hZScsICc8aW5maWxlLm1hZT4nLCAnLW9tYWUnLCAnPG91dGZpbGUubWFlPic=

>  <r_lp_tautomer_probability>  (243) 
1

>  <r_epik_Ionization_Penalty>  (243) 
0.014159

>  <r_epik_Ionization_Penalty_Charging>  (243) 
0

>  <r_epik_Ionization_Penalty_Neutral>  (243) 
0.014159

>  <r_epik_State_Penalty>  (243) 
0.0100019

>  <r_epik_Charging_Adjusted_Penalty>  (243) 
0.0100019

>  <i_epik_Tot_Q>  (243) 
0

>  <i_epik_Tot_abs_Q>  (243) 
0

>  <s_epik_Chemistry_Notes>  (243) 
This compound has an imine and may undergo hydrolysis.

>  <s_lp_Force_Field>  (243) 
OPLS3e

>  <r_lp_Energy>  (243) 
19.1271

>  <b_lp_Chiralities_Consistent>  (243) 
1

>  <s_lp_Variant>  (243) 
64:0-1

>  <s_i_glide_gridfile>  (243) 
pfpi4k_grid

>  <i_i_glide_lignum>  (243) 
6

>  <i_i_glide_rotatable_bonds>  (243) 
7

>  <r_i_docking_score>  (243) 
-3.40987

>  <r_i_glide_ligand_efficiency>  (243) 
-0.121781

>  <r_i_glide_ligand_efficiency_sa>  (243) 
-0.3698

>  <r_i_glide_ligand_efficiency_ln>  (243) 
-0.787099

>  <r_i_glide_gscore>  (243) 
-3.40987

>  <r_i_glide_lipo>  (243) 
-0.38306

>  <r_i_glide_hbond>  (243) 
-0.261417

>  <r_i_glide_metal>  (243) 
-0

>  <r_i_glide_rewards>  (243) 
-0.704072

>  <r_i_glide_evdw>  (243) 
-28.2287

>  <r_i_glide_ecoul>  (243) 
-6.25289

>  <r_i_glide_erotb>  (243) 
0.723818

>  <r_i_glide_esite>  (243) 
-0.435776

>  <r_i_glide_emodel>  (243) 
-39.8277

>  <r_i_glide_energy>  (243) 
-34.4816

>  <r_i_glide_einternal>  (243) 
3.96793

>  <r_i_glide_intrahb_reward>  (243) 
-0

>  <i_i_glide_confnum>  (243) 
8

>  <i_i_glide_posenum>  (243) 
13

>  <r_i_glide_eff_state_penalty>  (243) 
0

>  <ligand_id>  (243) 
64

>  <original_smiles>  (243) 
N=c1[nH]onc1-n1nnc(C(=O)NN=Cc2ccco2)c1CN1CCSCC1

>  <smiles>  (243) 
[H]C(=NN([H])C(=O)c1nnn(-c2nonc2N([H])[H])c1C([H])([H])N1C([H])([H])C([H])([H])SC([H])([H])C1([H])[H])c1oc([H])c([H])c1[H]

$$$$
64:0:2
     RDKit          3D

 45 48  0  0  1  0  0  0  0  0999 V2000
   -1.4959    3.7462    2.8864 N   0  0  0  0  0  0  0  0  0  0  0  0
   -1.5263    2.9608    4.0477 C   0  0  0  0  0  0  0  0  0  0  0  0
   -2.5496    2.9558    4.8690 N   0  0  0  0  0  0  0  0  0  0  0  0
   -2.1818    2.0647    5.8916 O   0  0  0  0  0  0  0  0  0  0  0  0
   -0.9266    1.4964    5.6342 N   0  0  0  0  0  0  0  0  0  0  0  0
   -0.5222    2.0667    4.5244 C   0  0  0  0  0  0  0  0  0  0  0  0
    0.7032    1.8546    3.8740 N   0  0  0  0  0  0  0  0  0  0  0  0
    1.5191    2.8992    3.5953 N   0  0  0  0  0  0  0  0  0  0  0  0
    2.5962    2.4146    3.0754 N   0  0  0  0  0  0  0  0  0  0  0  0
    2.4727    1.0300    2.9715 C   0  0  0  0  0  0  0  0  0  0  0  0
    3.5354    0.1538    2.4142 C   0  0  0  0  0  0  0  0  0  0  0  0
    4.6271    0.0038    2.9698 O   0  0  0  0  0  0  0  0  0  0  0  0
    3.1983   -0.4337    1.2684 N   0  0  0  0  0  0  0  0  0  0  0  0
    4.0741   -1.1431    0.5307 N   0  0  0  0  0  0  0  0  0  0  0  0
    3.6497   -1.4916   -0.6225 C   0  0  0  0  0  0  0  0  0  0  0  0
    4.4119   -2.2540   -1.5487 C   0  0  0  0  0  0  0  0  0  0  0  0
    5.7271   -2.6131   -1.5607 C   0  0  0  0  0  0  0  0  0  0  0  0
    5.8929   -3.3929   -2.7373 C   0  0  0  0  0  0  0  0  0  0  0  0
    4.6692   -3.4605   -3.3406 C   0  0  0  0  0  0  0  0  0  0  0  0
    3.7537   -2.7612   -2.6270 O   0  0  0  0  0  0  0  0  0  0  0  0
    1.2701    0.6471    3.5030 C   0  0  0  0  0  0  0  0  0  0  0  0
    0.6165   -0.6873    3.7160 C   0  0  0  0  0  0  0  0  0  0  0  0
    1.0031   -1.3515    4.9634 N   0  0  0  0  0  0  0  0  0  0  0  0
    2.4087   -1.7631    4.8971 C   0  0  0  0  0  0  0  0  0  0  0  0
    2.9515   -2.3244    6.2102 C   0  0  0  0  0  0  0  0  0  0  0  0
    2.1040   -3.8552    6.6553 S   0  0  0  0  0  0  0  0  0  0  0  0
    0.4252   -3.1916    6.5453 C   0  0  0  0  0  0  0  0  0  0  0  0
    0.1552   -2.5281    5.1786 C   0  0  0  0  0  0  0  0  0  0  0  0
   -0.7116    3.7624    2.2243 H   0  0  0  0  0  0  0  0  0  0  0  0
    2.2901   -0.2624    0.8481 H   0  0  0  0  0  0  0  0  0  0  0  0
    2.6604   -1.2096   -0.9682 H   0  0  0  0  0  0  0  0  0  0  0  0
    6.4617   -2.3462   -0.8156 H   0  0  0  0  0  0  0  0  0  0  0  0
    6.8027   -3.8578   -3.0948 H   0  0  0  0  0  0  0  0  0  0  0  0
    4.2908   -3.9460   -4.2310 H   0  0  0  0  0  0  0  0  0  0  0  0
   -0.4632   -0.5466    3.7345 H   0  0  0  0  0  0  0  0  0  0  0  0
    0.8151   -1.3427    2.8687 H   0  0  0  0  0  0  0  0  0  0  0  0
    2.5700   -2.4580    4.0679 H   0  0  0  0  0  0  0  0  0  0  0  0
    3.0171   -0.8841    4.7336 H   0  0  0  0  0  0  0  0  0  0  0  0
    4.0215   -2.5121    6.1029 H   0  0  0  0  0  0  0  0  0  0  0  0
    2.8382   -1.5794    6.9992 H   0  0  0  0  0  0  0  0  0  0  0  0
   -0.2689   -4.0155    6.7058 H   0  0  0  0  0  0  0  0  0  0  0  0
    0.2727   -2.4737    7.3522 H   0  0  0  0  0  0  0  0  0  0  0  0
   -0.8921   -2.2191    5.1516 H   0  0  0  0  0  0  0  0  0  0  0  0
    0.2959   -3.2510    4.3712 H   0  0  0  0  0  0  0  0  0  0  0  0
   -2.2975    4.2776    2.5902 H   0  0  0  0  0  0  0  0  0  0  0  0
  1  2  1  0
  1 29  1  0
  1 45  1  0
  2  6  1  0
  2  3  2  0
  3  4  1  0
  4  5  1  0
  5  6  2  0
  6  7  1  0
  7 21  1  0
  7  8  1  0
  8  9  2  0
  9 10  1  0
 10 11  1  0
 10 21  2  0
 11 12  2  0
 11 13  1  0
 13 14  1  0
 13 30  1  0
 14 15  2  3
 15 16  1  0
 15 31  1  0
 16 20  1  0
 16 17  2  0
 17 18  1  0
 17 32  1  0
 18 19  2  0
 18 33  1  0
 19 20  1  0
 19 34  1  0
 21 22  1  0
 22 23  1  0
 22 35  1  0
 22 36  1  0
 23 28  1  0
 23 24  1  0
 24 25  1  0
 24 37  1  0
 24 38  1  0
 25 26  1  0
 25 39  1  0
 25 40  1  0
 26 27  1  0
 27 28  1  0
 27 41  1  0
 27 42  1  0
 28 43  1  0
 28 44  1  0
M  END
>  <i_m_ct_stereo_status>  (244) 
1

>  <s_m_source_file>  (244) 
/var/tmp/pbs.5076255.sched01/tmpegbcst3k/90u3quomt0.sdf

>  <i_m_source_file_index>  (244) 
6

>  <i_lp_mmshare_version>  (244) 
48012

>  <i_f3d_flags>  (244) 
0

>  <s_epik_input>  (244) 
W0hdL049YzFcW25IXW9uYzEtbjJubmMoQyg9TylbTkhdL049W0NIXS9jM1tjSF1bY0hdW2NIXW8zKWMyW0NIMl1ONFtDSDJdW0NIMl1TW0NIMl1bQ0gyXTQ=

>  <s_epik_cmdline>  (244) 
J2VwaWtfcHl0aG9uJywgJy1waHQnLCAnMi4wJywgJy1waCcsICc3LjAnLCAnLXRuJywgJzgnLCAnLW1hJywgJzIwMCcsICctaW1hZScsICc8aW5maWxlLm1hZT4nLCAnLW9tYWUnLCAnPG91dGZpbGUubWFlPic=

>  <r_lp_tautomer_probability>  (244) 
1

>  <r_epik_Ionization_Penalty>  (244) 
0.014159

>  <r_epik_Ionization_Penalty_Charging>  (244) 
0

>  <r_epik_Ionization_Penalty_Neutral>  (244) 
0.014159

>  <r_epik_State_Penalty>  (244) 
0.0100019

>  <r_epik_Charging_Adjusted_Penalty>  (244) 
0.0100019

>  <i_epik_Tot_Q>  (244) 
0

>  <i_epik_Tot_abs_Q>  (244) 
0

>  <s_epik_Chemistry_Notes>  (244) 
This compound has an imine and may undergo hydrolysis.

>  <s_lp_Force_Field>  (244) 
OPLS3e

>  <r_lp_Energy>  (244) 
19.1271

>  <b_lp_Chiralities_Consistent>  (244) 
1

>  <s_lp_Variant>  (244) 
64:0-1

>  <s_i_glide_gridfile>  (244) 
pfpi4k_grid

>  <i_i_glide_lignum>  (244) 
6

>  <i_i_glide_rotatable_bonds>  (244) 
7

>  <r_i_docking_score>  (244) 
-3.23999

>  <r_i_glide_ligand_efficiency>  (244) 
-0.115714

>  <r_i_glide_ligand_efficiency_sa>  (244) 
-0.351376

>  <r_i_glide_ligand_efficiency_ln>  (244) 
-0.747886

>  <r_i_glide_gscore>  (244) 
-3.23999

>  <r_i_glide_lipo>  (244) 
-0.440716

>  <r_i_glide_hbond>  (244) 
-0.181901

>  <r_i_glide_metal>  (244) 
-0

>  <r_i_glide_rewards>  (244) 
-0.691123

>  <r_i_glide_evdw>  (244) 
-28.6022

>  <r_i_glide_ecoul>  (244) 
-5.64528

>  <r_i_glide_erotb>  (244) 
0.723818

>  <r_i_glide_esite>  (244) 
-0.37317

>  <r_i_glide_emodel>  (244) 
-39.6158

>  <r_i_glide_energy>  (244) 
-34.2475

>  <r_i_glide_einternal>  (244) 
3.91302

>  <r_i_glide_intrahb_reward>  (244) 
-0

>  <i_i_glide_confnum>  (244) 
8

>  <i_i_glide_posenum>  (244) 
21

>  <r_i_glide_eff_state_penalty>  (244) 
0

>  <ligand_id>  (244) 
64

>  <original_smiles>  (244) 
N=c1[nH]onc1-n1nnc(C(=O)NN=Cc2ccco2)c1CN1CCSCC1

>  <smiles>  (244) 
[H]C(=NN([H])C(=O)c1nnn(-c2nonc2N([H])[H])c1C([H])([H])N1C([H])([H])C([H])([H])SC([H])([H])C1([H])[H])c1oc([H])c([H])c1[H]

$$$$
64:1:0
     RDKit          3D

 45 48  0  0  1  0  0  0  0  0999 V2000
    3.4171   -1.6089   -1.2763 N   0  0  0  0  0  0  0  0  0  0  0  0
    4.5545   -1.5195   -0.4530 C   0  0  0  0  0  0  0  0  0  0  0  0
    5.7660   -1.7327   -0.9141 N   0  0  0  0  0  0  0  0  0  0  0  0
    6.6068   -1.5804    0.2022 O   0  0  0  0  0  0  0  0  0  0  0  0
    5.8572   -1.2458    1.3435 N   0  0  0  0  0  0  0  0  0  0  0  0
    4.6041   -1.2270    0.9470 C   0  0  0  0  0  0  0  0  0  0  0  0
    3.4640   -0.9858    1.7636 N   0  0  0  0  0  0  0  0  0  0  0  0
    2.4520   -0.2000    1.3247 N   0  0  0  0  0  0  0  0  0  0  0  0
    1.5641   -0.1341    2.2641 N   0  0  0  0  0  0  0  0  0  0  0  0
    1.9943   -0.8790    3.3681 C   0  0  0  0  0  0  0  0  0  0  0  0
    1.2313   -1.0220    4.6566 C   0  0  0  0  0  0  0  0  0  0  0  0
    1.4970   -1.8742    5.5087 O   0  0  0  0  0  0  0  0  0  0  0  0
    0.2546   -0.1257    4.8113 N   0  0  0  0  0  0  0  0  0  0  0  0
   -0.5196    0.0143    5.9240 N   0  0  0  0  0  0  0  0  0  0  0  0
   -1.3822    0.9681    5.9898 C   0  0  0  0  0  0  0  0  0  0  0  0
   -1.6774    1.9642    4.9774 C   0  0  0  0  0  0  0  0  0  0  0  0
   -2.5669    3.0067    4.9732 C   0  0  0  0  0  0  0  0  0  0  0  0
   -2.4333    3.6415    3.7024 C   0  0  0  0  0  0  0  0  0  0  0  0
   -1.4708    2.9445    3.0379 C   0  0  0  0  0  0  0  0  0  0  0  0
   -1.0115    1.9306    3.7924 O   0  0  0  0  0  0  0  0  0  0  0  0
    3.2172   -1.4227    3.0607 C   0  0  0  0  0  0  0  0  0  0  0  0
    4.1561   -2.2685    3.8757 C   0  0  0  0  0  0  0  0  0  0  0  0
    4.5268   -1.6593    5.1511 N   0  0  0  0  0  0  0  0  0  0  0  0
    5.3050   -2.6243    5.9346 C   0  0  0  0  0  0  0  0  0  0  0  0
    5.5620   -2.1194    7.3644 C   0  0  0  0  0  0  0  0  0  0  0  0
    6.5724   -0.6174    7.3577 S   0  0  0  0  0  0  0  0  0  0  0  0
    5.5263    0.3420    6.2366 C   0  0  0  0  0  0  0  0  0  0  0  0
    5.2767   -0.4167    4.9270 C   0  0  0  0  0  0  0  0  0  0  0  0
    2.4675   -1.4068   -0.9511 H   0  0  0  0  0  0  0  0  0  0  0  0
    0.0885    0.5460    4.0652 H   0  0  0  0  0  0  0  0  0  0  0  0
   -1.9621    1.0427    6.9086 H   0  0  0  0  0  0  0  0  0  0  0  0
   -3.2345    3.2616    5.7891 H   0  0  0  0  0  0  0  0  0  0  0  0
   -2.9657    4.4953    3.3053 H   0  0  0  0  0  0  0  0  0  0  0  0
   -1.0001    3.0213    2.0794 H   0  0  0  0  0  0  0  0  0  0  0  0
    3.6950   -3.2418    4.0506 H   0  0  0  0  0  0  0  0  0  0  0  0
    5.0748   -2.4880    3.3387 H   0  0  0  0  0  0  0  0  0  0  0  0
    4.7510   -3.5628    5.9983 H   0  0  0  0  0  0  0  0  0  0  0  0
    6.2465   -2.8554    5.4355 H   0  0  0  0  0  0  0  0  0  0  0  0
    4.6154   -1.9210    7.8703 H   0  0  0  0  0  0  0  0  0  0  0  0
    6.0812   -2.8825    7.9446 H   0  0  0  0  0  0  0  0  0  0  0  0
    4.5775    0.5702    6.7237 H   0  0  0  0  0  0  0  0  0  0  0  0
    6.0175    1.2920    6.0262 H   0  0  0  0  0  0  0  0  0  0  0  0
    6.2155   -0.6257    4.4110 H   0  0  0  0  0  0  0  0  0  0  0  0
    4.7152    0.2457    4.2701 H   0  0  0  0  0  0  0  0  0  0  0  0
    3.5015   -1.7930   -2.2614 H   0  0  0  0  0  0  0  0  0  0  0  0
  1  2  1  0
  1 29  1  0
  1 45  1  0
  2  6  1  0
  2  3  2  0
  3  4  1  0
  4  5  1  0
  5  6  2  0
  6  7  1  0
  7 21  1  0
  7  8  1  0
  8  9  2  0
  9 10  1  0
 10 11  1  0
 10 21  2  0
 11 12  2  0
 11 13  1  0
 13 14  1  0
 13 30  1  0
 14 15  2  3
 15 16  1  0
 15 31  1  0
 16 20  1  0
 16 17  2  0
 17 18  1  0
 17 32  1  0
 18 19  2  0
 18 33  1  0
 19 20  1  0
 19 34  1  0
 21 22  1  0
 22 23  1  0
 22 35  1  0
 22 36  1  0
 23 28  1  0
 23 24  1  0
 24 25  1  0
 24 37  1  0
 24 38  1  0
 25 26  1  0
 25 39  1  0
 25 40  1  0
 26 27  1  0
 27 28  1  0
 27 41  1  0
 27 42  1  0
 28 43  1  0
 28 44  1  0
M  END
>  <i_m_ct_stereo_status>  (245) 
1

>  <s_m_source_file>  (245) 
/var/tmp/pbs.5076255.sched01/tmpegbcst3k/90u3quomt0.sdf

>  <i_m_source_file_index>  (245) 
7

>  <i_lp_mmshare_version>  (245) 
48012

>  <i_f3d_flags>  (245) 
0

>  <s_epik_input>  (245) 
W0hdL049YzFcW25IXW9uYzEtbjJubmMoQyg9TylbTkhdL049W0NIXS9jM1tjSF1bY0hdW2NIXW8zKWMyW0NIMl1ONFtDSDJdW0NIMl1TW0NIMl1bQ0gyXTQ=

>  <s_epik_cmdline>  (245) 
J2VwaWtfcHl0aG9uJywgJy1waHQnLCAnMi4wJywgJy1waCcsICc3LjAnLCAnLXRuJywgJzgnLCAnLW1hJywgJzIwMCcsICctaW1hZScsICc8aW5maWxlLm1hZT4nLCAnLW9tYWUnLCAnPG91dGZpbGUubWFlPic=

>  <r_lp_tautomer_probability>  (245) 
1

>  <r_epik_Ionization_Penalty>  (245) 
0.014159

>  <r_epik_Ionization_Penalty_Charging>  (245) 
0

>  <r_epik_Ionization_Penalty_Neutral>  (245) 
0.014159

>  <r_epik_State_Penalty>  (245) 
0.0100019

>  <r_epik_Charging_Adjusted_Penalty>  (245) 
0.0100019

>  <i_epik_Tot_Q>  (245) 
0

>  <i_epik_Tot_abs_Q>  (245) 
0

>  <s_epik_Chemistry_Notes>  (245) 
This compound has an imine and may undergo hydrolysis.

>  <s_lp_Force_Field>  (245) 
OPLS3e

>  <r_lp_Energy>  (245) 
24.2864

>  <b_lp_Chiralities_Consistent>  (245) 
1

>  <s_lp_Variant>  (245) 
64:0-2

>  <s_i_glide_gridfile>  (245) 
pfpi4k_grid

>  <i_i_glide_lignum>  (245) 
7

>  <i_i_glide_rotatable_bonds>  (245) 
7

>  <r_i_docking_score>  (245) 
-2.98714

>  <r_i_glide_ligand_efficiency>  (245) 
-0.106684

>  <r_i_glide_ligand_efficiency_sa>  (245) 
-0.323954

>  <r_i_glide_ligand_efficiency_ln>  (245) 
-0.68952

>  <r_i_glide_gscore>  (245) 
-2.98714

>  <r_i_glide_lipo>  (245) 
-0.138646

>  <r_i_glide_hbond>  (245) 
-0.16

>  <r_i_glide_metal>  (245) 
-0

>  <r_i_glide_rewards>  (245) 
-1.20127

>  <r_i_glide_evdw>  (245) 
-28.1552

>  <r_i_glide_ecoul>  (245) 
-3.04975

>  <r_i_glide_erotb>  (245) 
0.723818

>  <r_i_glide_esite>  (245) 
-0.345819

>  <r_i_glide_emodel>  (245) 
-41.7014

>  <r_i_glide_energy>  (245) 
-31.2049

>  <r_i_glide_einternal>  (245) 
2.09685

>  <r_i_glide_intrahb_reward>  (245) 
-0.5

>  <i_i_glide_confnum>  (245) 
10

>  <i_i_glide_posenum>  (245) 
20

>  <r_i_glide_eff_state_penalty>  (245) 
0

>  <ligand_id>  (245) 
64

>  <original_smiles>  (245) 
N=c1[nH]onc1-n1nnc(C(=O)NN=Cc2ccco2)c1CN1CCSCC1

>  <smiles>  (245) 
[H]C(=NN([H])C(=O)c1nnn(-c2nonc2N([H])[H])c1C([H])([H])N1C([H])([H])C([H])([H])SC([H])([H])C1([H])[H])c1oc([H])c([H])c1[H]

$$$$
64:1:1
     RDKit          3D

 45 48  0  0  1  0  0  0  0  0999 V2000
    3.7553   -1.4850   -0.8836 N   0  0  0  0  0  0  0  0  0  0  0  0
    4.9040   -1.4724   -0.0840 C   0  0  0  0  0  0  0  0  0  0  0  0
    6.0756   -1.8059   -0.5676 N   0  0  0  0  0  0  0  0  0  0  0  0
    6.9541   -1.6729    0.5156 O   0  0  0  0  0  0  0  0  0  0  0  0
    6.2598   -1.2424    1.6618 N   0  0  0  0  0  0  0  0  0  0  0  0
    5.0049   -1.1333    1.3042 C   0  0  0  0  0  0  0  0  0  0  0  0
    3.9195   -0.7675    2.1462 N   0  0  0  0  0  0  0  0  0  0  0  0
    2.8620   -0.0827    1.6495 N   0  0  0  0  0  0  0  0  0  0  0  0
    2.0300    0.1291    2.6245 N   0  0  0  0  0  0  0  0  0  0  0  0
    2.5396   -0.4233    3.8030 C   0  0  0  0  0  0  0  0  0  0  0  0
    1.8342   -0.3793    5.1310 C   0  0  0  0  0  0  0  0  0  0  0  0
    2.2173   -0.9833    6.1305 O   0  0  0  0  0  0  0  0  0  0  0  0
    0.7396    0.3823    5.1365 N   0  0  0  0  0  0  0  0  0  0  0  0
   -0.0447    0.5948    6.2300 N   0  0  0  0  0  0  0  0  0  0  0  0
   -1.0643    1.3779    6.1422 C   0  0  0  0  0  0  0  0  0  0  0  0
   -1.5301    2.0930    4.9717 C   0  0  0  0  0  0  0  0  0  0  0  0
   -2.5765    2.9525    4.7947 C   0  0  0  0  0  0  0  0  0  0  0  0
   -2.5521    3.3464    3.4207 C   0  0  0  0  0  0  0  0  0  0  0  0
   -1.4805    2.7019    2.8776 C   0  0  0  0  0  0  0  0  0  0  0  0
   -0.8643    1.9337    3.7975 O   0  0  0  0  0  0  0  0  0  0  0  0
    3.7537   -0.9999    3.5118 C   0  0  0  0  0  0  0  0  0  0  0  0
    4.7329   -1.7364    4.3904 C   0  0  0  0  0  0  0  0  0  0  0  0
    5.0559   -1.0247    5.6213 N   0  0  0  0  0  0  0  0  0  0  0  0
    5.8060   -1.9134    6.5115 C   0  0  0  0  0  0  0  0  0  0  0  0
    5.9766   -1.2935    7.9092 C   0  0  0  0  0  0  0  0  0  0  0  0
    6.9647    0.2228    7.8364 S   0  0  0  0  0  0  0  0  0  0  0  0
    5.9649    1.0729    6.5882 C   0  0  0  0  0  0  0  0  0  0  0  0
    5.7957    0.2085    5.3292 C   0  0  0  0  0  0  0  0  0  0  0  0
    2.8375   -1.2173   -0.5397 H   0  0  0  0  0  0  0  0  0  0  0  0
    0.4570    0.8511    4.2782 H   0  0  0  0  0  0  0  0  0  0  0  0
   -1.6506    1.5306    7.0420 H   0  0  0  0  0  0  0  0  0  0  0  0
   -3.2720    3.2528    5.5658 H   0  0  0  0  0  0  0  0  0  0  0  0
   -3.2204    4.0143    2.8933 H   0  0  0  0  0  0  0  0  0  0  0  0
   -1.0222    2.6640    1.8964 H   0  0  0  0  0  0  0  0  0  0  0  0
    4.3207   -2.7176    4.6200 H   0  0  0  0  0  0  0  0  0  0  0  0
    5.6743   -1.9338    3.8940 H   0  0  0  0  0  0  0  0  0  0  0  0
    5.2529   -2.8471    6.6251 H   0  0  0  0  0  0  0  0  0  0  0  0
    6.7783   -2.1755    6.0869 H   0  0  0  0  0  0  0  0  0  0  0  0
    5.0008   -1.0707    8.3458 H   0  0  0  0  0  0  0  0  0  0  0  0
    6.4711   -2.0004    8.5770 H   0  0  0  0  0  0  0  0  0  0  0  0
    4.9892    1.3220    7.0101 H   0  0  0  0  0  0  0  0  0  0  0  0
    6.4532    2.0136    6.3317 H   0  0  0  0  0  0  0  0  0  0  0  0
    6.7691   -0.0041    4.8839 H   0  0  0  0  0  0  0  0  0  0  0  0
    5.2463    0.8002    4.5973 H   0  0  0  0  0  0  0  0  0  0  0  0
    3.7954   -1.7226   -1.8645 H   0  0  0  0  0  0  0  0  0  0  0  0
  1  2  1  0
  1 29  1  0
  1 45  1  0
  2  6  1  0
  2  3  2  0
  3  4  1  0
  4  5  1  0
  5  6  2  0
  6  7  1  0
  7 21  1  0
  7  8  1  0
  8  9  2  0
  9 10  1  0
 10 11  1  0
 10 21  2  0
 11 12  2  0
 11 13  1  0
 13 14  1  0
 13 30  1  0
 14 15  2  3
 15 16  1  0
 15 31  1  0
 16 20  1  0
 16 17  2  0
 17 18  1  0
 17 32  1  0
 18 19  2  0
 18 33  1  0
 19 20  1  0
 19 34  1  0
 21 22  1  0
 22 23  1  0
 22 35  1  0
 22 36  1  0
 23 28  1  0
 23 24  1  0
 24 25  1  0
 24 37  1  0
 24 38  1  0
 25 26  1  0
 25 39  1  0
 25 40  1  0
 26 27  1  0
 27 28  1  0
 27 41  1  0
 27 42  1  0
 28 43  1  0
 28 44  1  0
M  END
>  <i_m_ct_stereo_status>  (246) 
1

>  <s_m_source_file>  (246) 
/var/tmp/pbs.5076255.sched01/tmpegbcst3k/90u3quomt0.sdf

>  <i_m_source_file_index>  (246) 
7

>  <i_lp_mmshare_version>  (246) 
48012

>  <i_f3d_flags>  (246) 
0

>  <s_epik_input>  (246) 
W0hdL049YzFcW25IXW9uYzEtbjJubmMoQyg9TylbTkhdL049W0NIXS9jM1tjSF1bY0hdW2NIXW8zKWMyW0NIMl1ONFtDSDJdW0NIMl1TW0NIMl1bQ0gyXTQ=

>  <s_epik_cmdline>  (246) 
J2VwaWtfcHl0aG9uJywgJy1waHQnLCAnMi4wJywgJy1waCcsICc3LjAnLCAnLXRuJywgJzgnLCAnLW1hJywgJzIwMCcsICctaW1hZScsICc8aW5maWxlLm1hZT4nLCAnLW9tYWUnLCAnPG91dGZpbGUubWFlPic=

>  <r_lp_tautomer_probability>  (246) 
1

>  <r_epik_Ionization_Penalty>  (246) 
0.014159

>  <r_epik_Ionization_Penalty_Charging>  (246) 
0

>  <r_epik_Ionization_Penalty_Neutral>  (246) 
0.014159

>  <r_epik_State_Penalty>  (246) 
0.0100019

>  <r_epik_Charging_Adjusted_Penalty>  (246) 
0.0100019

>  <i_epik_Tot_Q>  (246) 
0

>  <i_epik_Tot_abs_Q>  (246) 
0

>  <s_epik_Chemistry_Notes>  (246) 
This compound has an imine and may undergo hydrolysis.

>  <s_lp_Force_Field>  (246) 
OPLS3e

>  <r_lp_Energy>  (246) 
24.2864

>  <b_lp_Chiralities_Consistent>  (246) 
1

>  <s_lp_Variant>  (246) 
64:0-2

>  <s_i_glide_gridfile>  (246) 
pfpi4k_grid

>  <i_i_glide_lignum>  (246) 
7

>  <i_i_glide_rotatable_bonds>  (246) 
7

>  <r_i_docking_score>  (246) 
-2.83319

>  <r_i_glide_ligand_efficiency>  (246) 
-0.101185

>  <r_i_glide_ligand_efficiency_sa>  (246) 
-0.307258

>  <r_i_glide_ligand_efficiency_ln>  (246) 
-0.653984

>  <r_i_glide_gscore>  (246) 
-2.83319

>  <r_i_glide_lipo>  (246) 
-0.226671

>  <r_i_glide_hbond>  (246) 
-0.117222

>  <r_i_glide_metal>  (246) 
-0

>  <r_i_glide_rewards>  (246) 
-1.32371

>  <r_i_glide_evdw>  (246) 
-28.5435

>  <r_i_glide_ecoul>  (246) 
-1.71899

>  <r_i_glide_erotb>  (246) 
0.723818

>  <r_i_glide_esite>  (246) 
-0.204388

>  <r_i_glide_emodel>  (246) 
-40.2458

>  <r_i_glide_energy>  (246) 
-30.2625

>  <r_i_glide_einternal>  (246) 
2.08504

>  <r_i_glide_intrahb_reward>  (246) 
-0.5

>  <i_i_glide_confnum>  (246) 
6

>  <i_i_glide_posenum>  (246) 
28

>  <r_i_glide_eff_state_penalty>  (246) 
0

>  <ligand_id>  (246) 
64

>  <original_smiles>  (246) 
N=c1[nH]onc1-n1nnc(C(=O)NN=Cc2ccco2)c1CN1CCSCC1

>  <smiles>  (246) 
[H]C(=NN([H])C(=O)c1nnn(-c2nonc2N([H])[H])c1C([H])([H])N1C([H])([H])C([H])([H])SC([H])([H])C1([H])[H])c1oc([H])c([H])c1[H]

$$$$
64:1:2
     RDKit          3D

 45 48  0  0  1  0  0  0  0  0999 V2000
    3.4149   -1.4509   -1.7874 N   0  0  0  0  0  0  0  0  0  0  0  0
    4.5721   -1.5637   -0.9993 C   0  0  0  0  0  0  0  0  0  0  0  0
    5.7461   -1.8454   -1.5082 N   0  0  0  0  0  0  0  0  0  0  0  0
    6.6153   -1.8791   -0.4010 O   0  0  0  0  0  0  0  0  0  0  0  0
    5.9142   -1.6097    0.7886 N   0  0  0  0  0  0  0  0  0  0  0  0
    4.6740   -1.4164    0.4138 C   0  0  0  0  0  0  0  0  0  0  0  0
    3.5768   -1.1456    1.2505 N   0  0  0  0  0  0  0  0  0  0  0  0
    3.1387    0.1226    1.4100 N   0  0  0  0  0  0  0  0  0  0  0  0
    2.1764    0.0954    2.2828 N   0  0  0  0  0  0  0  0  0  0  0  0
    1.9567   -1.2244    2.7006 C   0  0  0  0  0  0  0  0  0  0  0  0
    0.9237   -1.6518    3.6998 C   0  0  0  0  0  0  0  0  0  0  0  0
    0.7976   -2.8103    4.0938 O   0  0  0  0  0  0  0  0  0  0  0  0
    0.1188   -0.6629    4.1060 N   0  0  0  0  0  0  0  0  0  0  0  0
   -0.9448   -0.8227    4.9388 N   0  0  0  0  0  0  0  0  0  0  0  0
   -1.6414    0.2070    5.2855 C   0  0  0  0  0  0  0  0  0  0  0  0
   -1.4484    1.5853    4.8751 C   0  0  0  0  0  0  0  0  0  0  0  0
   -1.9925    2.7514    5.3485 C   0  0  0  0  0  0  0  0  0  0  0  0
   -1.4312    3.8015    4.5645 C   0  0  0  0  0  0  0  0  0  0  0  0
   -0.5892    3.2041    3.6728 C   0  0  0  0  0  0  0  0  0  0  0  0
   -0.5961    1.8616    3.8475 O   0  0  0  0  0  0  0  0  0  0  0  0
    2.8586   -2.0277    2.0456 C   0  0  0  0  0  0  0  0  0  0  0  0
    3.1211   -3.5086    2.1153 C   0  0  0  0  0  0  0  0  0  0  0  0
    3.5402   -3.9591    3.4420 N   0  0  0  0  0  0  0  0  0  0  0  0
    3.5787   -5.4255    3.4733 C   0  0  0  0  0  0  0  0  0  0  0  0
    3.8361   -5.9650    4.8934 C   0  0  0  0  0  0  0  0  0  0  0  0
    5.4632   -5.4600    5.5029 S   0  0  0  0  0  0  0  0  0  0  0  0
    5.2520   -3.6849    5.2316 C   0  0  0  0  0  0  0  0  0  0  0  0
    4.8518   -3.3908    3.7775 C   0  0  0  0  0  0  0  0  0  0  0  0
    2.4923   -1.2441   -1.3972 H   0  0  0  0  0  0  0  0  0  0  0  0
    0.2666    0.2731    3.7431 H   0  0  0  0  0  0  0  0  0  0  0  0
   -2.4657    0.0359    5.9732 H   0  0  0  0  0  0  0  0  0  0  0  0
   -2.7009    2.8364    6.1603 H   0  0  0  0  0  0  0  0  0  0  0  0
   -1.6066    4.8628    4.6373 H   0  0  0  0  0  0  0  0  0  0  0  0
    0.0567    3.5594    2.8770 H   0  0  0  0  0  0  0  0  0  0  0  0
    2.2104   -4.0376    1.8350 H   0  0  0  0  0  0  0  0  0  0  0  0
    3.8796   -3.7993    1.3896 H   0  0  0  0  0  0  0  0  0  0  0  0
    2.6172   -5.8161    3.1367 H   0  0  0  0  0  0  0  0  0  0  0  0
    4.3358   -5.8064    2.7816 H   0  0  0  0  0  0  0  0  0  0  0  0
    3.0661   -5.6119    5.5825 H   0  0  0  0  0  0  0  0  0  0  0  0
    3.7896   -7.0547    4.8967 H   0  0  0  0  0  0  0  0  0  0  0  0
    4.5019   -3.2965    5.9233 H   0  0  0  0  0  0  0  0  0  0  0  0
    6.1917   -3.1850    5.4639 H   0  0  0  0  0  0  0  0  0  0  0  0
    5.6111   -3.7559    3.0845 H   0  0  0  0  0  0  0  0  0  0  0  0
    4.8167   -2.3067    3.6695 H   0  0  0  0  0  0  0  0  0  0  0  0
    3.4490   -1.5744   -2.7857 H   0  0  0  0  0  0  0  0  0  0  0  0
  1  2  1  0
  1 29  1  0
  1 45  1  0
  2  6  1  0
  2  3  2  0
  3  4  1  0
  4  5  1  0
  5  6  2  0
  6  7  1  0
  7 21  1  0
  7  8  1  0
  8  9  2  0
  9 10  1  0
 10 11  1  0
 10 21  2  0
 11 12  2  0
 11 13  1  0
 13 14  1  0
 13 30  1  0
 14 15  2  3
 15 16  1  0
 15 31  1  0
 16 20  1  0
 16 17  2  0
 17 18  1  0
 17 32  1  0
 18 19  2  0
 18 33  1  0
 19 20  1  0
 19 34  1  0
 21 22  1  0
 22 23  1  0
 22 35  1  0
 22 36  1  0
 23 28  1  0
 23 24  1  0
 24 25  1  0
 24 37  1  0
 24 38  1  0
 25 26  1  0
 25 39  1  0
 25 40  1  0
 26 27  1  0
 27 28  1  0
 27 41  1  0
 27 42  1  0
 28 43  1  0
 28 44  1  0
M  END
>  <i_m_ct_stereo_status>  (247) 
1

>  <s_m_source_file>  (247) 
/var/tmp/pbs.5076255.sched01/tmpegbcst3k/90u3quomt0.sdf

>  <i_m_source_file_index>  (247) 
7

>  <i_lp_mmshare_version>  (247) 
48012

>  <i_f3d_flags>  (247) 
0

>  <s_epik_input>  (247) 
W0hdL049YzFcW25IXW9uYzEtbjJubmMoQyg9TylbTkhdL049W0NIXS9jM1tjSF1bY0hdW2NIXW8zKWMyW0NIMl1ONFtDSDJdW0NIMl1TW0NIMl1bQ0gyXTQ=

>  <s_epik_cmdline>  (247) 
J2VwaWtfcHl0aG9uJywgJy1waHQnLCAnMi4wJywgJy1waCcsICc3LjAnLCAnLXRuJywgJzgnLCAnLW1hJywgJzIwMCcsICctaW1hZScsICc8aW5maWxlLm1hZT4nLCAnLW9tYWUnLCAnPG91dGZpbGUubWFlPic=

>  <r_lp_tautomer_probability>  (247) 
1

>  <r_epik_Ionization_Penalty>  (247) 
0.014159

>  <r_epik_Ionization_Penalty_Charging>  (247) 
0

>  <r_epik_Ionization_Penalty_Neutral>  (247) 
0.014159

>  <r_epik_State_Penalty>  (247) 
0.0100019

>  <r_epik_Charging_Adjusted_Penalty>  (247) 
0.0100019

>  <i_epik_Tot_Q>  (247) 
0

>  <i_epik_Tot_abs_Q>  (247) 
0

>  <s_epik_Chemistry_Notes>  (247) 
This compound has an imine and may undergo hydrolysis.

>  <s_lp_Force_Field>  (247) 
OPLS3e

>  <r_lp_Energy>  (247) 
24.2864

>  <b_lp_Chiralities_Consistent>  (247) 
1

>  <s_lp_Variant>  (247) 
64:0-2

>  <s_i_glide_gridfile>  (247) 
pfpi4k_grid

>  <i_i_glide_lignum>  (247) 
7

>  <i_i_glide_rotatable_bonds>  (247) 
7

>  <r_i_docking_score>  (247) 
-2.80634

>  <r_i_glide_ligand_efficiency>  (247) 
-0.100226

>  <r_i_glide_ligand_efficiency_sa>  (247) 
-0.304347

>  <r_i_glide_ligand_efficiency_ln>  (247) 
-0.647786

>  <r_i_glide_gscore>  (247) 
-2.80634

>  <r_i_glide_lipo>  (247) 
-0.0764457

>  <r_i_glide_hbond>  (247) 
-0.16

>  <r_i_glide_metal>  (247) 
-0

>  <r_i_glide_rewards>  (247) 
-1.15988

>  <r_i_glide_evdw>  (247) 
-31.4929

>  <r_i_glide_ecoul>  (247) 
-1.62041

>  <r_i_glide_erotb>  (247) 
0.723818

>  <r_i_glide_esite>  (247) 
-0.316127

>  <r_i_glide_emodel>  (247) 
-42.6276

>  <r_i_glide_energy>  (247) 
-33.1133

>  <r_i_glide_einternal>  (247) 
3.4068

>  <r_i_glide_intrahb_reward>  (247) 
-0.5

>  <i_i_glide_confnum>  (247) 
12

>  <i_i_glide_posenum>  (247) 
5

>  <r_i_glide_eff_state_penalty>  (247) 
0

>  <ligand_id>  (247) 
64

>  <original_smiles>  (247) 
N=c1[nH]onc1-n1nnc(C(=O)NN=Cc2ccco2)c1CN1CCSCC1

>  <smiles>  (247) 
[H]C(=NN([H])C(=O)c1nnn(-c2nonc2N([H])[H])c1C([H])([H])N1C([H])([H])C([H])([H])SC([H])([H])C1([H])[H])c1oc([H])c([H])c1[H]

$$$$
65:0:0
     RDKit          3D

 85 94  0  0  1  0  0  0  0  0999 V2000
    3.9178   -3.0155    7.9308 C   0  0  0  0  0  0  0  0  0  0  0  0
    3.8530   -3.7994    6.6274 C   0  0  0  0  0  0  0  0  0  0  0  0
    2.7144   -4.0604    5.9706 C   0  0  0  0  0  0  0  0  0  0  0  0
    1.3283   -3.6618    6.4908 C   0  0  0  0  0  0  0  0  0  0  0  0
    0.8978   -2.2770    6.0805 C   0  0  2  0  0  0  0  0  0  0  0  0
   -0.0644   -2.2511    5.0372 O   0  0  0  0  0  0  0  0  0  0  0  0
    1.1710   -1.6407    4.6862 C   0  0  2  0  0  0  0  0  0  0  0  0
    1.9908   -2.3796    3.6233 C   0  0  1  0  0  0  0  0  0  0  0  0
    1.8473   -3.9300    3.5573 C   0  0  0  0  0  0  0  0  0  0  0  0
    2.6116   -4.7760    4.6253 C   0  0  1  0  0  0  0  0  0  0  0  0
    3.9167   -5.4580    4.1118 C   0  0  2  0  0  0  0  0  0  0  0  0
    4.5543   -6.4720    5.0835 C   0  0  0  0  0  0  0  0  0  0  0  0
    5.4097   -5.7781    6.1581 C   0  0  0  0  0  0  0  0  0  0  0  0
    5.2264   -4.2515    6.1382 C   0  0  1  0  0  0  0  0  0  0  0  0
    5.4989   -3.7285    4.8450 O   0  0  0  0  0  0  0  0  0  0  0  0
    4.9897   -4.4077    3.7219 C   0  0  1  0  0  0  0  0  0  0  0  0
    6.0450   -5.0469    3.0538 O   0  0  0  0  0  0  0  0  0  0  0  0
    5.9141   -5.2387    1.6445 C   0  0  2  0  0  0  0  0  0  0  0  0
    7.0413   -6.1679    1.1728 C   0  0  0  0  0  0  0  0  0  0  0  0
    5.8976   -3.8902    0.8934 C   0  0  2  0  0  0  0  0  0  0  0  0
    5.3316   -3.9634   -0.5346 C   0  0  0  0  0  0  0  0  0  0  0  0
    5.4633   -2.5944   -1.2127 C   0  0  0  0  0  0  0  0  0  0  0  0
    6.8069   -2.1276   -1.0920 O   0  0  0  0  0  0  0  0  0  0  0  0
    7.2970   -2.0994    0.2202 C   0  0  1  0  0  0  0  0  0  0  0  0
    6.5962   -0.9887    1.0475 C   0  0  0  0  0  0  0  0  0  0  0  0
    7.2133   -3.3406    0.8484 O   0  0  0  0  0  0  0  0  0  0  0  0
    1.6935   -1.7952    2.3409 O   0  0  0  0  0  0  0  0  0  0  0  0
    1.6399   -0.3508    2.3330 C   0  0  1  0  0  0  0  0  0  0  0  0
    0.2991    0.0797    2.9868 C   0  0  2  0  0  0  0  0  0  0  0  0
   -0.2345    1.4005    2.2800 C   0  0  0  0  0  0  0  0  0  0  0  0
   -0.6925    2.7385    2.9504 C   0  0  1  0  0  0  0  0  0  0  0  0
   -1.3893    2.9354    4.2688 C   0  0  1  0  0  0  0  0  0  0  0  0
   -1.8549    1.7838    4.9305 O   0  0  0  0  0  0  0  0  0  0  0  0
   -0.2350    3.6172    4.8280 O   0  0  0  0  0  0  0  0  0  0  0  0
    0.2830    3.8031    3.4834 C   0  0  1  0  0  0  0  0  0  0  0  0
    1.6315    3.4439    3.1948 O   0  0  0  0  0  0  0  0  0  0  0  0
    2.4522    2.7594    4.0291 C   0  0  0  0  0  0  0  0  0  0  0  0
    2.7238    3.0560    5.1906 O   0  0  0  0  0  0  0  0  0  0  0  0
    2.9801    1.5604    3.3105 C   0  0  1  0  0  0  0  0  0  0  0  0
    3.6272    0.4490    4.0083 O   0  0  0  0  0  0  0  0  0  0  0  0
    2.2704    0.2479    3.5610 C   0  0  2  0  0  0  0  0  0  0  0  0
    1.0495   -0.1128    4.3639 C   0  0  2  0  0  0  0  0  0  0  0  0
    0.7714    0.6348    5.6692 C   0  0  0  0  0  0  0  0  0  0  0  0
    4.7254   -2.2824    7.9023 H   0  0  0  0  0  0  0  0  0  0  0  0
    4.1038   -3.6989    8.7605 H   0  0  0  0  0  0  0  0  0  0  0  0
    3.0074   -2.4523    8.1350 H   0  0  0  0  0  0  0  0  0  0  0  0
    0.5861   -4.4004    6.1776 H   0  0  0  0  0  0  0  0  0  0  0  0
    1.3341   -3.7223    7.5770 H   0  0  0  0  0  0  0  0  0  0  0  0
    0.6337   -1.6601    6.9150 H   0  0  0  0  0  0  0  0  0  0  0  0
    3.0497   -2.1527    3.8294 H   0  0  0  0  0  0  0  0  0  0  0  0
    0.7869   -4.1915    3.5688 H   0  0  0  0  0  0  0  0  0  0  0  0
    2.1897   -4.2496    2.5797 H   0  0  0  0  0  0  0  0  0  0  0  0
    1.9684   -5.6322    4.8220 H   0  0  0  0  0  0  0  0  0  0  0  0
    3.6427   -6.0119    3.2173 H   0  0  0  0  0  0  0  0  0  0  0  0
    3.7874   -7.0893    5.5500 H   0  0  0  0  0  0  0  0  0  0  0  0
    5.1953   -7.1547    4.5199 H   0  0  0  0  0  0  0  0  0  0  0  0
    5.1950   -6.1799    7.1472 H   0  0  0  0  0  0  0  0  0  0  0  0
    6.4649   -5.9819    5.9531 H   0  0  0  0  0  0  0  0  0  0  0  0
    5.9707   -3.8024    6.7891 H   0  0  0  0  0  0  0  0  0  0  0  0
    4.5469   -3.6264    3.1400 H   0  0  0  0  0  0  0  0  0  0  0  0
    4.9694   -5.7471    1.4652 H   0  0  0  0  0  0  0  0  0  0  0  0
    6.9609   -6.3213    0.1003 H   0  0  0  0  0  0  0  0  0  0  0  0
    7.0048   -7.1379    1.6719 H   0  0  0  0  0  0  0  0  0  0  0  0
    8.0215   -5.7338    1.3583 H   0  0  0  0  0  0  0  0  0  0  0  0
    5.2353   -3.2363    1.4221 H   0  0  0  0  0  0  0  0  0  0  0  0
    5.8112   -4.7284   -1.1423 H   0  0  0  0  0  0  0  0  0  0  0  0
    4.2804   -4.2297   -0.4599 H   0  0  0  0  0  0  0  0  0  0  0  0
    5.1972   -2.6731   -2.2681 H   0  0  0  0  0  0  0  0  0  0  0  0
    4.7719   -1.8705   -0.7812 H   0  0  0  0  0  0  0  0  0  0  0  0
    8.3715   -1.8978    0.1485 H   0  0  0  0  0  0  0  0  0  0  0  0
    5.5241   -1.1271    1.1954 H   0  0  0  0  0  0  0  0  0  0  0  0
    6.6970   -0.0421    0.5140 H   0  0  0  0  0  0  0  0  0  0  0  0
    7.0353   -0.9167    2.0461 H   0  0  0  0  0  0  0  0  0  0  0  0
    1.8688    0.0947    1.3603 H   0  0  0  0  0  0  0  0  0  0  0  0
   -0.4603   -0.6868    2.9546 H   0  0  0  0  0  0  0  0  0  0  0  0
    0.5162    1.7143    1.5580 H   0  0  0  0  0  0  0  0  0  0  0  0
   -1.0311    1.0880    1.6003 H   0  0  0  0  0  0  0  0  0  0  0  0
   -1.3215    3.2511    2.2283 H   0  0  0  0  0  0  0  0  0  0  0  0
   -2.2151    3.6293    4.1469 H   0  0  0  0  0  0  0  0  0  0  0  0
   -2.4854    1.3908    4.3570 H   0  0  0  0  0  0  0  0  0  0  0  0
    0.0236    4.7814    3.0729 H   0  0  0  0  0  0  0  0  0  0  0  0
    3.3238    1.7177    2.3035 H   0  0  0  0  0  0  0  0  0  0  0  0
    0.6771    1.6978    5.5786 H   0  0  0  0  0  0  0  0  0  0  0  0
    1.5723    0.4558    6.3815 H   0  0  0  0  0  0  0  0  0  0  0  0
   -0.1497    0.2977    6.1318 H   0  0  0  0  0  0  0  0  0  0  0  0
  1  2  1  0
  1 44  1  0
  1 45  1  0
  1 46  1  0
  2 14  1  0
  2  3  2  0
  3 10  1  0
  3  4  1  0
  4  5  1  0
  4 47  1  0
  4 48  1  0
  5  7  1  0
  5  6  1  0
  5 49  1  1
  7  6  1  6
  7 42  1  0
  7  8  1  0
  8  9  1  0
  8 27  1  0
  8 50  1  1
  9 10  1  0
  9 51  1  0
  9 52  1  0
 10 11  1  0
 10 53  1  1
 11 16  1  0
 11 12  1  0
 11 54  1  6
 12 13  1  0
 12 55  1  0
 12 56  1  0
 13 14  1  0
 13 57  1  0
 13 58  1  0
 14 15  1  0
 14 59  1  1
 15 16  1  0
 16 17  1  0
 16 60  1  6
 17 18  1  0
 18 19  1  0
 18 20  1  0
 18 61  1  1
 19 62  1  0
 19 63  1  0
 19 64  1  0
 20 26  1  0
 20 21  1  0
 20 65  1  1
 21 22  1  0
 21 66  1  0
 21 67  1  0
 22 23  1  0
 22 68  1  0
 22 69  1  0
 23 24  1  0
 24 25  1  0
 24 26  1  0
 24 70  1  6
 25 71  1  0
 25 72  1  0
 25 73  1  0
 27 28  1  0
 28 41  1  0
 28 29  1  0
 28 74  1  6
 29 42  1  0
 29 30  1  0
 29 75  1  1
 30 31  1  0
 30 76  1  0
 30 77  1  0
 31 35  1  0
 31 32  1  0
 31 78  1  6
 32 33  1  0
 32 34  1  0
 32 79  1  6
 33 80  1  0
 34 35  1  0
 35 36  1  0
 35 81  1  6
 36 37  1  0
 37 38  2  0
 37 39  1  0
 39 41  1  0
 39 40  1  0
 39 82  1  6
 41 40  1  1
 41 42  1  0
 42 43  1  1
 43 83  1  0
 43 84  1  0
 43 85  1  0
M  END
>  <i_m_ct_stereo_status>  (248) 
1

>  <s_m_source_file>  (248) 
/var/tmp/pbs.5076255.sched01/tmpegbcst3k/90u3quomt0.sdf

>  <i_m_source_file_index>  (248) 
8

>  <i_lp_mmshare_version>  (248) 
48012

>  <i_f3d_flags>  (248) 
0

>  <s_epik_input>  (248) 
W0NIM11bQ0BASF0oTzEpT1tDSDJdW0NIMl1bQ0BIXTFbQ0BASF0oW0NIM10pT1tDQEBIXTJPW0NAQEhdKEM9M1tDSDNdKVtDSDJdW0NIMl1bQ0BIXTJbQ0BASF0oQzNbQ0gyXVtDQEhdKE80KVtDQF00NTYpW0NIMl1bQ0BIXTVPW0NAQEhdN1tDQF04OVtDQEhdKE84KUMoPU8pT1tDQEhdMVtDQEhdKFtDQEhdKE8xKVtPSF0pW0NIMl1bQ0BASF03W0NAQF02OVtDSDNd

>  <s_epik_cmdline>  (248) 
J2VwaWtfcHl0aG9uJywgJy1waHQnLCAnMi4wJywgJy1waCcsICc3LjAnLCAnLXRuJywgJzgnLCAnLW1hJywgJzIwMCcsICctaW1hZScsICc8aW5maWxlLm1hZT4nLCAnLW9tYWUnLCAnPG91dGZpbGUubWFlPic=

>  <r_lp_tautomer_probability>  (248) 
1

>  <r_epik_Ionization_Penalty>  (248) 
1.28532e-06

>  <r_epik_Ionization_Penalty_Charging>  (248) 
0

>  <r_epik_Ionization_Penalty_Neutral>  (248) 
1.28532e-06

>  <r_epik_State_Penalty>  (248) 
-0

>  <r_epik_Charging_Adjusted_Penalty>  (248) 
0

>  <i_epik_Tot_Q>  (248) 
0

>  <i_epik_Tot_abs_Q>  (248) 
0

>  <s_epik_Chemistry_Notes>  (248) 
This compound has an ester and may undergo hydrolysis at high or low pH. This compound contains an acetal/aminal-like group ( X-CH(R)-Y where X, Y are N, S, or O) that may be acid/base labile, releasing an aldehyde.

>  <s_lp_Force_Field>  (248) 
OPLS3e

>  <r_lp_Energy>  (248) 
117.29

>  <b_lp_Chiralities_Consistent>  (248) 
1

>  <s_lp_Variant>  (248) 
65:0-1

>  <s_i_glide_gridfile>  (248) 
pfpi4k_grid

>  <i_i_glide_lignum>  (248) 
8

>  <i_i_glide_rotatable_bonds>  (248) 
4

>  <r_i_docking_score>  (248) 
-2.60037

>  <r_i_glide_ligand_efficiency>  (248) 
-0.0604737

>  <r_i_glide_ligand_efficiency_sa>  (248) 
-0.211864

>  <r_i_glide_ligand_efficiency_ln>  (248) 
-0.546159

>  <r_i_glide_gscore>  (248) 
-2.60037

>  <r_i_glide_lipo>  (248) 
-0.304465

>  <r_i_glide_hbond>  (248) 
-0.16

>  <r_i_glide_metal>  (248) 
-0

>  <r_i_glide_rewards>  (248) 
-0.0358367

>  <r_i_glide_evdw>  (248) 
-25.4472

>  <r_i_glide_ecoul>  (248) 
-4.90599

>  <r_i_glide_erotb>  (248) 
0.0547658

>  <r_i_glide_esite>  (248) 
-0.146574

>  <r_i_glide_emodel>  (248) 
-31.5415

>  <r_i_glide_energy>  (248) 
-30.3532

>  <r_i_glide_einternal>  (248) 
5.5849

>  <r_i_glide_intrahb_reward>  (248) 
-0

>  <i_i_glide_confnum>  (248) 
1

>  <i_i_glide_posenum>  (248) 
6

>  <r_i_glide_eff_state_penalty>  (248) 
0

>  <ligand_id>  (248) 
65

>  <original_smiles>  (248) 
CC1=C2CC3OC34C(CC2C2CCC1OC2OC(C)C1CCOC(C)O1)OC1C2CC3C(O)OC3OC(=O)C3OC31C24C

>  <smiles>  (248) 
[H]OC1([H])OC2([H])OC(=O)C3([H])OC34C3([H])OC5([H])C([H])([H])C6([H])C(=C(C([H])([H])[H])C7([H])OC([H])(OC([H])(C([H])([H])[H])C8([H])OC([H])(C([H])([H])[H])OC([H])([H])C8([H])[H])C6([H])C([H])([H])C7([H])[H])C([H])([H])C6([H])OC65C4(C([H])([H])[H])C3([H])C([H])([H])C12[H]

$$$$
65:0:1
     RDKit          3D

 85 94  0  0  1  0  0  0  0  0999 V2000
    3.7854   -2.7279    7.8320 C   0  0  0  0  0  0  0  0  0  0  0  0
    3.5732   -3.5116    6.5414 C   0  0  0  0  0  0  0  0  0  0  0  0
    2.3611   -3.7191    5.9971 C   0  0  0  0  0  0  0  0  0  0  0  0
    1.0557   -3.2666    6.6505 C   0  0  0  0  0  0  0  0  0  0  0  0
    0.6352   -1.8569    6.2703 C   0  0  2  0  0  0  0  0  0  0  0  0
   -0.4291   -1.7967    5.3242 O   0  0  0  0  0  0  0  0  0  0  0  0
    0.8118   -1.2436    4.8672 C   0  0  2  0  0  0  0  0  0  0  0  0
    1.4913   -2.0231    3.7207 C   0  0  1  0  0  0  0  0  0  0  0  0
    1.2837   -3.5670    3.6700 C   0  0  0  0  0  0  0  0  0  0  0  0
    2.1103   -4.4377    4.6686 C   0  0  1  0  0  0  0  0  0  0  0  0
    3.3327   -5.1569    4.0245 C   0  0  2  0  0  0  0  0  0  0  0  0
    4.0060   -6.2010    4.9403 C   0  0  0  0  0  0  0  0  0  0  0  0
    4.9895   -5.5459    5.9270 C   0  0  0  0  0  0  0  0  0  0  0  0
    4.8773   -4.0101    5.9156 C   0  0  1  0  0  0  0  0  0  0  0  0
    5.0435   -3.4888    4.5987 O   0  0  0  0  0  0  0  0  0  0  0  0
    4.4073   -4.1523    3.5375 C   0  0  1  0  0  0  0  0  0  0  0  0
    5.3568   -4.8458    2.7771 O   0  0  0  0  0  0  0  0  0  0  0  0
    5.1245   -4.9425    1.3748 C   0  0  2  0  0  0  0  0  0  0  0  0
    6.1039   -5.9839    0.8089 C   0  0  0  0  0  0  0  0  0  0  0  0
    5.2647   -3.5569    0.7135 C   0  0  2  0  0  0  0  0  0  0  0  0
    4.9084   -3.5424   -0.7827 C   0  0  0  0  0  0  0  0  0  0  0  0
    5.2135   -2.1614   -1.3645 C   0  0  0  0  0  0  0  0  0  0  0  0
    6.5570   -1.8227   -1.0376 O   0  0  0  0  0  0  0  0  0  0  0  0
    6.8388   -1.8410    0.3333 C   0  0  1  0  0  0  0  0  0  0  0  0
    6.0586   -0.7343    1.0897 C   0  0  0  0  0  0  0  0  0  0  0  0
    6.6005   -3.0958    0.8906 O   0  0  0  0  0  0  0  0  0  0  0  0
    1.1171   -1.4235    2.4715 O   0  0  0  0  0  0  0  0  0  0  0  0
    1.0972    0.0210    2.4757 C   0  0  1  0  0  0  0  0  0  0  0  0
   -0.1678    0.5152    3.2530 C   0  0  2  0  0  0  0  0  0  0  0  0
   -0.6796    1.8619    2.5944 C   0  0  0  0  0  0  0  0  0  0  0  0
   -1.0233    3.2286    3.2641 C   0  0  1  0  0  0  0  0  0  0  0  0
   -1.5829    3.4550    4.6618 C   0  0  1  0  0  0  0  0  0  0  0  0
   -2.0179    2.3419    5.3920 O   0  0  0  0  0  0  0  0  0  0  0  0
   -0.3354    4.0661    5.0984 O   0  0  0  0  0  0  0  0  0  0  0  0
    0.0543    4.2391    3.7106 C   0  0  1  0  0  0  0  0  0  0  0  0
    1.3587    3.8501    3.3046 O   0  0  0  0  0  0  0  0  0  0  0  0
    2.2162    3.1374    4.0551 C   0  0  0  0  0  0  0  0  0  0  0  0
    2.5840    3.3972    5.1941 O   0  0  0  0  0  0  0  0  0  0  0  0
    2.6176    1.9031    3.3044 C   0  0  1  0  0  0  0  0  0  0  0  0
    3.2701    0.7576    3.9325 O   0  0  0  0  0  0  0  0  0  0  0  0
    1.8785    0.6200    3.6234 C   0  0  2  0  0  0  0  0  0  0  0  0
    0.7156    0.2959    4.5430 C   0  0  2  0  0  0  0  0  0  0  0  0
    0.5978    1.0515    5.8663 C   0  0  0  0  0  0  0  0  0  0  0  0
    4.6170   -2.0318    7.7266 H   0  0  0  0  0  0  0  0  0  0  0  0
    4.0174   -3.4169    8.6405 H   0  0  0  0  0  0  0  0  0  0  0  0
    2.9227   -2.1273    8.1191 H   0  0  0  0  0  0  0  0  0  0  0  0
    0.2577   -3.9663    6.4149 H   0  0  0  0  0  0  0  0  0  0  0  0
    1.1557   -3.3253    7.7306 H   0  0  0  0  0  0  0  0  0  0  0  0
    0.4816   -1.2202    7.1367 H   0  0  0  0  0  0  0  0  0  0  0  0
    2.5581   -1.8412    3.8308 H   0  0  0  0  0  0  0  0  0  0  0  0
    0.2196   -3.7721    3.7927 H   0  0  0  0  0  0  0  0  0  0  0  0
    1.5092   -3.8943    2.6567 H   0  0  0  0  0  0  0  0  0  0  0  0
    1.4487   -5.2630    4.9284 H   0  0  0  0  0  0  0  0  0  0  0  0
    2.9637   -5.6943    3.1518 H   0  0  0  0  0  0  0  0  0  0  0  0
    3.2589   -6.7815    5.4811 H   0  0  0  0  0  0  0  0  0  0  0  0
    4.5587   -6.9174    4.3289 H   0  0  0  0  0  0  0  0  0  0  0  0
    4.8461   -5.9396    6.9389 H   0  0  0  0  0  0  0  0  0  0  0  0
    6.0108   -5.8063    5.6349 H   0  0  0  0  0  0  0  0  0  0  0  0
    5.7050   -3.6027    6.4971 H   0  0  0  0  0  0  0  0  0  0  0  0
    3.9493   -3.3575    2.9554 H   0  0  0  0  0  0  0  0  0  0  0  0
    4.1148   -5.3081    1.2121 H   0  0  0  0  0  0  0  0  0  0  0  0
    5.9326   -6.1275   -0.2563 H   0  0  0  0  0  0  0  0  0  0  0  0
    5.9838   -6.9574    1.2885 H   0  0  0  0  0  0  0  0  0  0  0  0
    7.1405   -5.6704    0.9408 H   0  0  0  0  0  0  0  0  0  0  0  0
    4.5773   -2.8701    1.2044 H   0  0  0  0  0  0  0  0  0  0  0  0
    5.4498   -4.2940   -1.3574 H   0  0  0  0  0  0  0  0  0  0  0  0
    3.8500   -3.7623   -0.8870 H   0  0  0  0  0  0  0  0  0  0  0  0
    5.1000   -2.1794   -2.4494 H   0  0  0  0  0  0  0  0  0  0  0  0
    4.5292   -1.4004   -0.9821 H   0  0  0  0  0  0  0  0  0  0  0  0
    7.9103   -1.6688    0.4375 H   0  0  0  0  0  0  0  0  0  0  0  0
    4.9810   -0.8892    1.0610 H   0  0  0  0  0  0  0  0  0  0  0  0
    6.2470    0.2357    0.6360 H   0  0  0  0  0  0  0  0  0  0  0  0
    6.3750   -0.7064    2.1332 H   0  0  0  0  0  0  0  0  0  0  0  0
    1.2497    0.4352    1.4756 H   0  0  0  0  0  0  0  0  0  0  0  0
   -0.9667   -0.2263    3.2520 H   0  0  0  0  0  0  0  0  0  0  0  0
    0.0130    2.1435    1.8032 H   0  0  0  0  0  0  0  0  0  0  0  0
   -1.5459    1.5871    1.9947 H   0  0  0  0  0  0  0  0  0  0  0  0
   -1.6641    3.7762    2.5733 H   0  0  0  0  0  0  0  0  0  0  0  0
   -2.3953    4.1886    4.6424 H   0  0  0  0  0  0  0  0  0  0  0  0
   -1.3204    1.7089    5.3546 H   0  0  0  0  0  0  0  0  0  0  0  0
   -0.1824    5.2432    3.3497 H   0  0  0  0  0  0  0  0  0  0  0  0
    2.8858    2.0521    2.2674 H   0  0  0  0  0  0  0  0  0  0  0  0
    0.5530    2.1174    5.7847 H   0  0  0  0  0  0  0  0  0  0  0  0
    1.4561    0.8440    6.5036 H   0  0  0  0  0  0  0  0  0  0  0  0
   -0.2875    0.7571    6.4241 H   0  0  0  0  0  0  0  0  0  0  0  0
  1  2  1  0
  1 44  1  0
  1 45  1  0
  1 46  1  0
  2 14  1  0
  2  3  2  0
  3 10  1  0
  3  4  1  0
  4  5  1  0
  4 47  1  0
  4 48  1  0
  5  7  1  0
  5  6  1  0
  5 49  1  1
  7  6  1  6
  7 42  1  0
  7  8  1  0
  8  9  1  0
  8 27  1  0
  8 50  1  1
  9 10  1  0
  9 51  1  0
  9 52  1  0
 10 11  1  0
 10 53  1  1
 11 16  1  0
 11 12  1  0
 11 54  1  6
 12 13  1  0
 12 55  1  0
 12 56  1  0
 13 14  1  0
 13 57  1  0
 13 58  1  0
 14 15  1  0
 14 59  1  1
 15 16  1  0
 16 17  1  0
 16 60  1  6
 17 18  1  0
 18 19  1  0
 18 20  1  0
 18 61  1  1
 19 62  1  0
 19 63  1  0
 19 64  1  0
 20 26  1  0
 20 21  1  0
 20 65  1  1
 21 22  1  0
 21 66  1  0
 21 67  1  0
 22 23  1  0
 22 68  1  0
 22 69  1  0
 23 24  1  0
 24 25  1  0
 24 26  1  0
 24 70  1  6
 25 71  1  0
 25 72  1  0
 25 73  1  0
 27 28  1  0
 28 41  1  0
 28 29  1  0
 28 74  1  6
 29 42  1  0
 29 30  1  0
 29 75  1  1
 30 31  1  0
 30 76  1  0
 30 77  1  0
 31 35  1  0
 31 32  1  0
 31 78  1  6
 32 33  1  0
 32 34  1  0
 32 79  1  6
 33 80  1  0
 34 35  1  0
 35 36  1  0
 35 81  1  6
 36 37  1  0
 37 38  2  0
 37 39  1  0
 39 41  1  0
 39 40  1  0
 39 82  1  6
 41 40  1  1
 41 42  1  0
 42 43  1  1
 43 83  1  0
 43 84  1  0
 43 85  1  0
M  END
>  <i_m_ct_stereo_status>  (249) 
1

>  <s_m_source_file>  (249) 
/var/tmp/pbs.5076255.sched01/tmpegbcst3k/90u3quomt0.sdf

>  <i_m_source_file_index>  (249) 
8

>  <i_lp_mmshare_version>  (249) 
48012

>  <i_f3d_flags>  (249) 
0

>  <s_epik_input>  (249) 
W0NIM11bQ0BASF0oTzEpT1tDSDJdW0NIMl1bQ0BIXTFbQ0BASF0oW0NIM10pT1tDQEBIXTJPW0NAQEhdKEM9M1tDSDNdKVtDSDJdW0NIMl1bQ0BIXTJbQ0BASF0oQzNbQ0gyXVtDQEhdKE80KVtDQF00NTYpW0NIMl1bQ0BIXTVPW0NAQEhdN1tDQF04OVtDQEhdKE84KUMoPU8pT1tDQEhdMVtDQEhdKFtDQEhdKE8xKVtPSF0pW0NIMl1bQ0BASF03W0NAQF02OVtDSDNd

>  <s_epik_cmdline>  (249) 
J2VwaWtfcHl0aG9uJywgJy1waHQnLCAnMi4wJywgJy1waCcsICc3LjAnLCAnLXRuJywgJzgnLCAnLW1hJywgJzIwMCcsICctaW1hZScsICc8aW5maWxlLm1hZT4nLCAnLW9tYWUnLCAnPG91dGZpbGUubWFlPic=

>  <r_lp_tautomer_probability>  (249) 
1

>  <r_epik_Ionization_Penalty>  (249) 
1.28532e-06

>  <r_epik_Ionization_Penalty_Charging>  (249) 
0

>  <r_epik_Ionization_Penalty_Neutral>  (249) 
1.28532e-06

>  <r_epik_State_Penalty>  (249) 
-0

>  <r_epik_Charging_Adjusted_Penalty>  (249) 
0

>  <i_epik_Tot_Q>  (249) 
0

>  <i_epik_Tot_abs_Q>  (249) 
0

>  <s_epik_Chemistry_Notes>  (249) 
This compound has an ester and may undergo hydrolysis at high or low pH. This compound contains an acetal/aminal-like group ( X-CH(R)-Y where X, Y are N, S, or O) that may be acid/base labile, releasing an aldehyde.

>  <s_lp_Force_Field>  (249) 
OPLS3e

>  <r_lp_Energy>  (249) 
117.29

>  <b_lp_Chiralities_Consistent>  (249) 
1

>  <s_lp_Variant>  (249) 
65:0-1

>  <s_i_glide_gridfile>  (249) 
pfpi4k_grid

>  <i_i_glide_lignum>  (249) 
8

>  <i_i_glide_rotatable_bonds>  (249) 
4

>  <r_i_docking_score>  (249) 
-2.44323

>  <r_i_glide_ligand_efficiency>  (249) 
-0.0568194

>  <r_i_glide_ligand_efficiency_sa>  (249) 
-0.199061

>  <r_i_glide_ligand_efficiency_ln>  (249) 
-0.513155

>  <r_i_glide_gscore>  (249) 
-2.44323

>  <r_i_glide_lipo>  (249) 
-0.329008

>  <r_i_glide_hbond>  (249) 
-0.16

>  <r_i_glide_metal>  (249) 
-0

>  <r_i_glide_rewards>  (249) 
-0.00718017

>  <r_i_glide_evdw>  (249) 
-28.2759

>  <r_i_glide_ecoul>  (249) 
-2.91709

>  <r_i_glide_erotb>  (249) 
0.0547658

>  <r_i_glide_esite>  (249) 
-0.150452

>  <r_i_glide_emodel>  (249) 
-32.6681

>  <r_i_glide_energy>  (249) 
-31.193

>  <r_i_glide_einternal>  (249) 
4.05325

>  <r_i_glide_intrahb_reward>  (249) 
-0

>  <i_i_glide_confnum>  (249) 
1

>  <i_i_glide_posenum>  (249) 
22

>  <r_i_glide_eff_state_penalty>  (249) 
0

>  <ligand_id>  (249) 
65

>  <original_smiles>  (249) 
CC1=C2CC3OC34C(CC2C2CCC1OC2OC(C)C1CCOC(C)O1)OC1C2CC3C(O)OC3OC(=O)C3OC31C24C

>  <smiles>  (249) 
[H]OC1([H])OC2([H])OC(=O)C3([H])OC34C3([H])OC5([H])C([H])([H])C6([H])C(=C(C([H])([H])[H])C7([H])OC([H])(OC([H])(C([H])([H])[H])C8([H])OC([H])(C([H])([H])[H])OC([H])([H])C8([H])[H])C6([H])C([H])([H])C7([H])[H])C([H])([H])C6([H])OC65C4(C([H])([H])[H])C3([H])C([H])([H])C12[H]

$$$$
65:0:2
     RDKit          3D

 85 94  0  0  1  0  0  0  0  0999 V2000
    4.0457   -1.7613    7.2673 C   0  0  0  0  0  0  0  0  0  0  0  0
    3.1568   -2.3085    6.1573 C   0  0  0  0  0  0  0  0  0  0  0  0
    1.8286   -2.0896    6.1072 C   0  0  0  0  0  0  0  0  0  0  0  0
    1.0590   -1.3283    7.1827 C   0  0  0  0  0  0  0  0  0  0  0  0
    0.9993    0.1685    6.9406 C   0  0  2  0  0  0  0  0  0  0  0  0
   -0.2523    0.6298    6.4411 O   0  0  0  0  0  0  0  0  0  0  0  0
    0.8552    0.8265    5.5530 C   0  0  2  0  0  0  0  0  0  0  0  0
    0.7992   -0.0138    4.2577 C   0  0  1  0  0  0  0  0  0  0  0  0
    0.1052   -1.4054    4.3374 C   0  0  0  0  0  0  0  0  0  0  0  0
    0.9130   -2.5713    4.9843 C   0  0  1  0  0  0  0  0  0  0  0  0
    1.5261   -3.5632    3.9566 C   0  0  2  0  0  0  0  0  0  0  0  0
    2.1112   -4.8409    4.5951 C   0  0  0  0  0  0  0  0  0  0  0  0
    3.5322   -4.6147    5.1355 C   0  0  0  0  0  0  0  0  0  0  0  0
    3.9175   -3.1266    5.1119 C   0  0  1  0  0  0  0  0  0  0  0  0
    3.7649   -2.5859    3.7948 O   0  0  0  0  0  0  0  0  0  0  0  0
    2.6095   -2.9146    3.0676 C   0  0  1  0  0  0  0  0  0  0  0  0
    2.8924   -3.8352    2.0523 O   0  0  0  0  0  0  0  0  0  0  0  0
    2.7826   -3.3571    0.7168 C   0  0  2  0  0  0  0  0  0  0  0  0
    2.5639   -4.5750   -0.1926 C   0  0  0  0  0  0  0  0  0  0  0  0
    4.0168   -2.5091    0.3381 C   0  0  2  0  0  0  0  0  0  0  0  0
    3.7775   -1.6471   -0.9128 C   0  0  0  0  0  0  0  0  0  0  0  0
    5.0757   -0.9653   -1.3456 C   0  0  0  0  0  0  0  0  0  0  0  0
    6.1096   -1.9296   -1.4661 O   0  0  0  0  0  0  0  0  0  0  0  0
    6.2934   -2.7009   -0.3151 C   0  0  1  0  0  0  0  0  0  0  0  0
    6.8734   -1.8597    0.8415 C   0  0  0  0  0  0  0  0  0  0  0  0
    5.1303   -3.3622    0.0840 O   0  0  0  0  0  0  0  0  0  0  0  0
    0.2052    0.7755    3.2177 O   0  0  0  0  0  0  0  0  0  0  0  0
    0.6589    2.1441    3.1852 C   0  0  1  0  0  0  0  0  0  0  0  0
   -0.0254    2.9369    4.3483 C   0  0  2  0  0  0  0  0  0  0  0  0
   -0.2733    4.4299    3.8814 C   0  0  0  0  0  0  0  0  0  0  0  0
    0.1015    5.7733    4.5865 C   0  0  1  0  0  0  0  0  0  0  0  0
    0.1762    6.0328    6.0854 C   0  0  1  0  0  0  0  0  0  0  0  0
   -0.3236    5.0510    6.9526 O   0  0  0  0  0  0  0  0  0  0  0  0
    1.6236    6.1752    6.0214 O   0  0  0  0  0  0  0  0  0  0  0  0
    1.5260    6.3605    4.5866 C   0  0  1  0  0  0  0  0  0  0  0  0
    2.3842    5.6131    3.7371 O   0  0  0  0  0  0  0  0  0  0  0  0
    3.1829    4.6133    4.1514 C   0  0  0  0  0  0  0  0  0  0  0  0
    3.9900    4.6546    5.0703 O   0  0  0  0  0  0  0  0  0  0  0  0
    2.8845    3.3786    3.3529 C   0  0  1  0  0  0  0  0  0  0  0  0
    3.3092    2.0367    3.7513 O   0  0  0  0  0  0  0  0  0  0  0  0
    1.9386    2.3692    3.9605 C   0  0  2  0  0  0  0  0  0  0  0  0
    1.1325    2.3443    5.2434 C   0  0  2  0  0  0  0  0  0  0  0  0
    1.7456    2.9737    6.4913 C   0  0  0  0  0  0  0  0  0  0  0  0
    4.9636   -1.3466    6.8526 H   0  0  0  0  0  0  0  0  0  0  0  0
    4.3153   -2.5576    7.9587 H   0  0  0  0  0  0  0  0  0  0  0  0
    3.5824   -0.9547    7.8341 H   0  0  0  0  0  0  0  0  0  0  0  0
    0.0496   -1.7225    7.2739 H   0  0  0  0  0  0  0  0  0  0  0  0
    1.5082   -1.5087    8.1564 H   0  0  0  0  0  0  0  0  0  0  0  0
    1.3672    0.7446    7.7851 H   0  0  0  0  0  0  0  0  0  0  0  0
    1.8311   -0.1856    3.9595 H   0  0  0  0  0  0  0  0  0  0  0  0
   -0.8583   -1.2871    4.8383 H   0  0  0  0  0  0  0  0  0  0  0  0
   -0.1495   -1.6946    3.3178 H   0  0  0  0  0  0  0  0  0  0  0  0
    0.1610   -3.1782    5.4869 H   0  0  0  0  0  0  0  0  0  0  0  0
    0.7216   -3.8720    3.2875 H   0  0  0  0  0  0  0  0  0  0  0  0
    1.4587   -5.2063    5.3878 H   0  0  0  0  0  0  0  0  0  0  0  0
    2.1499   -5.6381    3.8501 H   0  0  0  0  0  0  0  0  0  0  0  0
    3.6311   -5.0310    6.1392 H   0  0  0  0  0  0  0  0  0  0  0  0
    4.2408   -5.1574    4.5075 H   0  0  0  0  0  0  0  0  0  0  0  0
    4.9804   -3.0526    5.3516 H   0  0  0  0  0  0  0  0  0  0  0  0
    2.2485   -1.9772    2.6463 H   0  0  0  0  0  0  0  0  0  0  0  0
    1.8880   -2.7369    0.6461 H   0  0  0  0  0  0  0  0  0  0  0  0
    2.4087   -4.2622   -1.2252 H   0  0  0  0  0  0  0  0  0  0  0  0
    1.6890   -5.1474    0.1159 H   0  0  0  0  0  0  0  0  0  0  0  0
    3.4213   -5.2488   -0.1709 H   0  0  0  0  0  0  0  0  0  0  0  0
    4.2400   -1.8514    1.1810 H   0  0  0  0  0  0  0  0  0  0  0  0
    3.3819   -2.2386   -1.7375 H   0  0  0  0  0  0  0  0  0  0  0  0
    3.0287   -0.8946   -0.6789 H   0  0  0  0  0  0  0  0  0  0  0  0
    4.9433   -0.4545   -2.3010 H   0  0  0  0  0  0  0  0  0  0  0  0
    5.3718   -0.2277   -0.6068 H   0  0  0  0  0  0  0  0  0  0  0  0
    6.9985   -3.4831   -0.5841 H   0  0  0  0  0  0  0  0  0  0  0  0
    6.1791   -1.0898    1.1823 H   0  0  0  0  0  0  0  0  0  0  0  0
    7.8088   -1.3847    0.5347 H   0  0  0  0  0  0  0  0  0  0  0  0
    7.0451   -2.5303    1.6753 H   0  0  0  0  0  0  0  0  0  0  0  0
    0.5882    2.5633    2.1806 H   0  0  0  0  0  0  0  0  0  0  0  0
   -0.9657    2.4712    4.6520 H   0  0  0  0  0  0  0  0  0  0  0  0
    0.1508    4.5486    2.8874 H   0  0  0  0  0  0  0  0  0  0  0  0
   -1.3310    4.4905    3.6351 H   0  0  0  0  0  0  0  0  0  0  0  0
   -0.5123    6.5579    4.1494 H   0  0  0  0  0  0  0  0  0  0  0  0
   -0.2961    6.9898    6.3389 H   0  0  0  0  0  0  0  0  0  0  0  0
    0.1705    4.2655    6.7838 H   0  0  0  0  0  0  0  0  0  0  0  0
    1.5020    7.4200    4.3154 H   0  0  0  0  0  0  0  0  0  0  0  0
    2.8003    3.5223    2.2826 H   0  0  0  0  0  0  0  0  0  0  0  0
    2.0188    4.0033    6.4026 H   0  0  0  0  0  0  0  0  0  0  0  0
    2.6615    2.4564    6.7716 H   0  0  0  0  0  0  0  0  0  0  0  0
    1.0751    2.9166    7.3448 H   0  0  0  0  0  0  0  0  0  0  0  0
  1  2  1  0
  1 44  1  0
  1 45  1  0
  1 46  1  0
  2 14  1  0
  2  3  2  0
  3 10  1  0
  3  4  1  0
  4  5  1  0
  4 47  1  0
  4 48  1  0
  5  7  1  0
  5  6  1  0
  5 49  1  1
  7  6  1  1
  7 42  1  0
  7  8  1  0
  8  9  1  0
  8 27  1  0
  8 50  1  6
  9 10  1  0
  9 51  1  0
  9 52  1  0
 10 11  1  0
 10 53  1  1
 11 16  1  0
 11 12  1  0
 11 54  1  6
 12 13  1  0
 12 55  1  0
 12 56  1  0
 13 14  1  0
 13 57  1  0
 13 58  1  0
 14 15  1  0
 14 59  1  1
 15 16  1  0
 16 17  1  0
 16 60  1  6
 17 18  1  0
 18 19  1  0
 18 20  1  0
 18 61  1  1
 19 62  1  0
 19 63  1  0
 19 64  1  0
 20 26  1  0
 20 21  1  0
 20 65  1  1
 21 22  1  0
 21 66  1  0
 21 67  1  0
 22 23  1  0
 22 68  1  0
 22 69  1  0
 23 24  1  0
 24 25  1  0
 24 26  1  0
 24 70  1  6
 25 71  1  0
 25 72  1  0
 25 73  1  0
 27 28  1  0
 28 41  1  0
 28 29  1  0
 28 74  1  6
 29 42  1  0
 29 30  1  0
 29 75  1  1
 30 31  1  0
 30 76  1  0
 30 77  1  0
 31 35  1  0
 31 32  1  0
 31 78  1  6
 32 33  1  0
 32 34  1  0
 32 79  1  6
 33 80  1  0
 34 35  1  0
 35 36  1  0
 35 81  1  1
 36 37  1  0
 37 38  2  0
 37 39  1  0
 39 41  1  0
 39 40  1  0
 39 82  1  6
 41 40  1  1
 41 42  1  0
 42 43  1  1
 43 83  1  0
 43 84  1  0
 43 85  1  0
M  END
>  <i_m_ct_stereo_status>  (250) 
1

>  <s_m_source_file>  (250) 
/var/tmp/pbs.5076255.sched01/tmpegbcst3k/90u3quomt0.sdf

>  <i_m_source_file_index>  (250) 
8

>  <i_lp_mmshare_version>  (250) 
48012

>  <i_f3d_flags>  (250) 
0

>  <s_epik_input>  (250) 
W0NIM11bQ0BASF0oTzEpT1tDSDJdW0NIMl1bQ0BIXTFbQ0BASF0oW0NIM10pT1tDQEBIXTJPW0NAQEhdKEM9M1tDSDNdKVtDSDJdW0NIMl1bQ0BIXTJbQ0BASF0oQzNbQ0gyXVtDQEhdKE80KVtDQF00NTYpW0NIMl1bQ0BIXTVPW0NAQEhdN1tDQF04OVtDQEhdKE84KUMoPU8pT1tDQEhdMVtDQEhdKFtDQEhdKE8xKVtPSF0pW0NIMl1bQ0BASF03W0NAQF02OVtDSDNd

>  <s_epik_cmdline>  (250) 
J2VwaWtfcHl0aG9uJywgJy1waHQnLCAnMi4wJywgJy1waCcsICc3LjAnLCAnLXRuJywgJzgnLCAnLW1hJywgJzIwMCcsICctaW1hZScsICc8aW5maWxlLm1hZT4nLCAnLW9tYWUnLCAnPG91dGZpbGUubWFlPic=

>  <r_lp_tautomer_probability>  (250) 
1

>  <r_epik_Ionization_Penalty>  (250) 
1.28532e-06

>  <r_epik_Ionization_Penalty_Charging>  (250) 
0

>  <r_epik_Ionization_Penalty_Neutral>  (250) 
1.28532e-06

>  <r_epik_State_Penalty>  (250) 
-0

>  <r_epik_Charging_Adjusted_Penalty>  (250) 
0

>  <i_epik_Tot_Q>  (250) 
0

>  <i_epik_Tot_abs_Q>  (250) 
0

>  <s_epik_Chemistry_Notes>  (250) 
This compound has an ester and may undergo hydrolysis at high or low pH. This compound contains an acetal/aminal-like group ( X-CH(R)-Y where X, Y are N, S, or O) that may be acid/base labile, releasing an aldehyde.

>  <s_lp_Force_Field>  (250) 
OPLS3e

>  <r_lp_Energy>  (250) 
117.29

>  <b_lp_Chiralities_Consistent>  (250) 
1

>  <s_lp_Variant>  (250) 
65:0-1

>  <s_i_glide_gridfile>  (250) 
pfpi4k_grid

>  <i_i_glide_lignum>  (250) 
8

>  <i_i_glide_rotatable_bonds>  (250) 
4

>  <r_i_docking_score>  (250) 
-2.03443

>  <r_i_glide_ligand_efficiency>  (250) 
-0.0473123

>  <r_i_glide_ligand_efficiency_sa>  (250) 
-0.165754

>  <r_i_glide_ligand_efficiency_ln>  (250) 
-0.427294

>  <r_i_glide_gscore>  (250) 
-2.03443

>  <r_i_glide_lipo>  (250) 
-0.0360297

>  <r_i_glide_hbond>  (250) 
-0.112754

>  <r_i_glide_metal>  (250) 
-0

>  <r_i_glide_rewards>  (250) 
-0.00922242

>  <r_i_glide_evdw>  (250) 
-26.278

>  <r_i_glide_ecoul>  (250) 
-3.74028

>  <r_i_glide_erotb>  (250) 
0.0547658

>  <r_i_glide_esite>  (250) 
-0.056247

>  <r_i_glide_emodel>  (250) 
-31.1014

>  <r_i_glide_energy>  (250) 
-30.0183

>  <r_i_glide_einternal>  (250) 
4.02027

>  <r_i_glide_intrahb_reward>  (250) 
-0

>  <i_i_glide_confnum>  (250) 
1

>  <i_i_glide_posenum>  (250) 
36

>  <r_i_glide_eff_state_penalty>  (250) 
0

>  <ligand_id>  (250) 
65

>  <original_smiles>  (250) 
CC1=C2CC3OC34C(CC2C2CCC1OC2OC(C)C1CCOC(C)O1)OC1C2CC3C(O)OC3OC(=O)C3OC31C24C

>  <smiles>  (250) 
[H]OC1([H])OC2([H])OC(=O)C3([H])OC34C3([H])OC5([H])C([H])([H])C6([H])C(=C(C([H])([H])[H])C7([H])OC([H])(OC([H])(C([H])([H])[H])C8([H])OC([H])(C([H])([H])[H])OC([H])([H])C8([H])[H])C6([H])C([H])([H])C7([H])[H])C([H])([H])C6([H])OC65C4(C([H])([H])[H])C3([H])C([H])([H])C12[H]

$$$$
66:0:0
     RDKit          3D

 51 53  0  0  1  0  0  0  0  0999 V2000
    3.3269   -0.5895   -4.1963 C   0  0  0  0  0  0  0  0  0  0  0  0
    3.7621   -1.9308   -4.3255 O   0  0  0  0  0  0  0  0  0  0  0  0
    3.1911   -2.7960   -3.3552 C   0  0  0  0  0  0  0  0  0  0  0  0
    3.8666   -2.5723   -1.9915 C   0  0  0  0  0  0  0  0  0  0  0  0
    3.7071   -3.7260   -1.0939 N   0  0  2  0  0  0  0  0  0  0  0  0
    2.3495   -3.9071   -0.5031 C   0  0  0  0  0  0  0  0  0  0  0  0
    2.5484   -4.6436    0.8367 C   0  0  1  0  0  0  0  0  0  0  0  0
    1.7591   -5.8232    0.7910 O   0  0  0  0  0  0  0  0  0  0  0  0
    1.9131   -6.6098    1.9573 C   0  0  0  0  0  0  0  0  0  0  0  0
    0.8539   -7.7122    1.9494 C   0  0  0  0  0  0  0  0  0  0  0  0
   -0.5613   -7.1307    2.0543 C   0  0  0  0  0  0  0  0  0  0  0  0
   -1.6050   -8.2466    2.1779 C   0  0  0  0  0  0  0  0  0  0  0  0
   -1.3033   -9.0516    3.3004 O   0  0  0  0  0  0  0  0  0  0  0  0
   -0.0639   -9.7347    3.1738 C   0  0  0  0  0  0  0  0  0  0  0  0
    1.0749   -8.7059    3.1012 C   0  0  0  0  0  0  0  0  0  0  0  0
    4.0623   -4.8819    0.9007 C   0  0  2  0  0  0  0  0  0  0  0  0
    4.6669   -4.8084    2.1754 O   0  0  0  0  0  0  0  0  0  0  0  0
    6.0667   -5.0665    2.1054 C   0  0  0  0  0  0  0  0  0  0  0  0
    6.7670   -4.0430    1.2019 C   0  0  0  0  0  0  0  0  0  0  0  0
    6.0887   -3.9651   -0.1745 C   0  0  0  0  0  0  0  0  0  0  0  0
    4.6053   -3.7398    0.0803 C   0  0  1  0  0  0  0  0  0  0  0  0
    3.7946    0.0189   -4.9713 H   0  0  0  0  0  0  0  0  0  0  0  0
    3.5992   -0.1587   -3.2320 H   0  0  0  0  0  0  0  0  0  0  0  0
    2.2466   -0.5236   -4.3236 H   0  0  0  0  0  0  0  0  0  0  0  0
    2.1059   -2.7005   -3.2932 H   0  0  0  0  0  0  0  0  0  0  0  0
    3.3983   -3.8121   -3.6926 H   0  0  0  0  0  0  0  0  0  0  0  0
    4.9278   -2.3861   -2.1885 H   0  0  0  0  0  0  0  0  0  0  0  0
    3.5021   -1.6473   -1.5235 H   0  0  0  0  0  0  0  0  0  0  0  0
    1.9192   -2.9225   -0.3052 H   0  0  0  0  0  0  0  0  0  0  0  0
    1.6834   -4.4236   -1.2095 H   0  0  0  0  0  0  0  0  0  0  0  0
    2.2034   -3.9833    1.6396 H   0  0  0  0  0  0  0  0  0  0  0  0
    2.9073   -7.0631    1.9775 H   0  0  0  0  0  0  0  0  0  0  0  0
    1.8101   -5.9937    2.8560 H   0  0  0  0  0  0  0  0  0  0  0  0
    0.9367   -8.2518    1.0064 H   0  0  0  0  0  0  0  0  0  0  0  0
   -0.6198   -6.4924    2.9341 H   0  0  0  0  0  0  0  0  0  0  0  0
   -0.7760   -6.5142    1.1833 H   0  0  0  0  0  0  0  0  0  0  0  0
   -2.5876   -7.8113    2.3365 H   0  0  0  0  0  0  0  0  0  0  0  0
   -1.6547   -8.8655    1.2874 H   0  0  0  0  0  0  0  0  0  0  0  0
    0.0694  -10.3768    4.0453 H   0  0  0  0  0  0  0  0  0  0  0  0
   -0.0707  -10.3800    2.2932 H   0  0  0  0  0  0  0  0  0  0  0  0
    2.0292   -9.2200    2.9813 H   0  0  0  0  0  0  0  0  0  0  0  0
    1.1249   -8.1669    4.0480 H   0  0  0  0  0  0  0  0  0  0  0  0
    4.2950   -5.8362    0.4347 H   0  0  0  0  0  0  0  0  0  0  0  0
    6.4685   -5.0138    3.1093 H   0  0  0  0  0  0  0  0  0  0  0  0
    6.2427   -6.0730    1.7471 H   0  0  0  0  0  0  0  0  0  0  0  0
    6.7272   -3.0594    1.6677 H   0  0  0  0  0  0  0  0  0  0  0  0
    7.8213   -4.2796    1.0830 H   0  0  0  0  0  0  0  0  0  0  0  0
    6.5233   -3.1682   -0.7760 H   0  0  0  0  0  0  0  0  0  0  0  0
    6.2017   -4.9002   -0.7221 H   0  0  0  0  0  0  0  0  0  0  0  0
    4.4617   -2.8026    0.6213 H   0  0  0  0  0  0  0  0  0  0  0  0
    3.8798   -4.5923   -1.6051 H   0  0  0  0  0  0  0  0  0  0  0  0
  1  2  1  0
  1 22  1  0
  1 23  1  0
  1 24  1  0
  2  3  1  0
  3  4  1  0
  3 25  1  0
  3 26  1  0
  4  5  1  0
  4 27  1  0
  4 28  1  0
  5 21  1  0
  5  6  1  0
  5 51  1  6
  6  7  1  0
  6 29  1  0
  6 30  1  0
  7  8  1  0
  7 16  1  0
  7 31  1  1
  8  9  1  0
  9 10  1  0
  9 32  1  0
  9 33  1  0
 10 15  1  0
 10 11  1  0
 10 34  1  0
 11 12  1  0
 11 35  1  0
 11 36  1  0
 12 13  1  0
 12 37  1  0
 12 38  1  0
 13 14  1  0
 14 15  1  0
 14 39  1  0
 14 40  1  0
 15 41  1  0
 15 42  1  0
 16 21  1  0
 16 17  1  0
 16 43  1  6
 17 18  1  0
 18 19  1  0
 18 44  1  0
 18 45  1  0
 19 20  1  0
 19 46  1  0
 19 47  1  0
 20 21  1  0
 20 48  1  0
 20 49  1  0
 21 50  1  1
M  CHG  1   5   1
M  END
>  <i_m_ct_stereo_status>  (251) 
1

>  <s_m_source_file>  (251) 
/var/tmp/pbs.5076255.sched01/tmpegbcst3k/90u3quomt0.sdf

>  <i_m_source_file_index>  (251) 
9

>  <i_lp_mmshare_version>  (251) 
48012

>  <i_f3d_flags>  (251) 
0

>  <s_epik_input>  (251) 
TzFbQ0gyXVtDSDJdW0NIMl1bQ0BIXShbQ0BASF0xMilOKFtDSDJdW0NIMl1PW0NIM10pW0NIMl1bQ0BIXTJPW0NIMl1bQ0hdM1tDSDJdW0NIMl1PW0NIMl1bQ0gyXTM=

>  <s_epik_cmdline>  (251) 
J2VwaWtfcHl0aG9uJywgJy1waHQnLCAnMi4wJywgJy1waCcsICc3LjAnLCAnLXRuJywgJzgnLCAnLW1hJywgJzIwMCcsICctaW1hZScsICc8aW5maWxlLm1hZT4nLCAnLW9tYWUnLCAnPG91dGZpbGUubWFlPic=

>  <r_epik_Ionization_Penalty>  (251) 
0.126193

>  <r_epik_Ionization_Penalty_Charging>  (251) 
0.126193

>  <r_epik_Ionization_Penalty_Neutral>  (251) 
2.6421e-11

>  <r_epik_State_Penalty>  (251) 
0.115647

>  <r_epik_Charging_Adjusted_Penalty>  (251) 
0.241839

>  <i_epik_Tot_Q>  (251) 
1

>  <i_epik_Tot_abs_Q>  (251) 
1

>  <s_lp_Force_Field>  (251) 
OPLS3e

>  <r_lp_Energy>  (251) 
28.9879

>  <b_lp_Chiralities_Consistent>  (251) 
1

>  <s_lp_Variant>  (251) 
66:0-1

>  <s_i_glide_gridfile>  (251) 
pfpi4k_grid

>  <i_i_glide_lignum>  (251) 
9

>  <i_i_glide_rotatable_bonds>  (251) 
6

>  <r_i_docking_score>  (251) 
-3.70308

>  <r_i_glide_ligand_efficiency>  (251) 
-0.176337

>  <r_i_glide_ligand_efficiency_sa>  (251) 
-0.486501

>  <r_i_glide_ligand_efficiency_ln>  (251) 
-0.91558

>  <r_i_glide_gscore>  (251) 
-3.70308

>  <r_i_glide_lipo>  (251) 
-0.68098

>  <r_i_glide_hbond>  (251) 
-0.407992

>  <r_i_glide_metal>  (251) 
-0

>  <r_i_glide_rewards>  (251) 
-1.36082

>  <r_i_glide_evdw>  (251) 
-24.3563

>  <r_i_glide_ecoul>  (251) 
-6.96598

>  <r_i_glide_erotb>  (251) 
1.01837

>  <r_i_glide_esite>  (251) 
-0.00895924

>  <r_i_glide_emodel>  (251) 
-37.2559

>  <r_i_glide_energy>  (251) 
-31.3222

>  <r_i_glide_einternal>  (251) 
2.58144

>  <r_i_glide_intrahb_reward>  (251) 
-0

>  <i_i_glide_confnum>  (251) 
2

>  <i_i_glide_posenum>  (251) 
5

>  <r_i_glide_eff_state_penalty>  (251) 
0

>  <ligand_id>  (251) 
66

>  <original_smiles>  (251) 
COCCN1CC(OCC2CCOCC2)C2OCCCC21

>  <smiles>  (251) 
[H]C([H])([H])OC([H])([H])C([H])([H])[N+]1([H])C([H])([H])C([H])(OC([H])([H])C2([H])C([H])([H])C([H])([H])OC([H])([H])C2([H])[H])C2([H])OC([H])([H])C([H])([H])C([H])([H])C21[H]

$$$$
66:0:1
     RDKit          3D

 51 53  0  0  1  0  0  0  0  0999 V2000
    2.9605   -0.1558   -4.4988 C   0  0  0  0  0  0  0  0  0  0  0  0
    3.9503   -1.1765   -4.4815 O   0  0  0  0  0  0  0  0  0  0  0  0
    3.5263   -2.3868   -3.8720 C   0  0  0  0  0  0  0  0  0  0  0  0
    3.2277   -2.1745   -2.3806 C   0  0  0  0  0  0  0  0  0  0  0  0
    3.3002   -3.4289   -1.6086 N   0  0  2  0  0  0  0  0  0  0  0  0
    2.1551   -3.6857   -0.6975 C   0  0  0  0  0  0  0  0  0  0  0  0
    2.6858   -4.5599    0.4515 C   0  0  1  0  0  0  0  0  0  0  0  0
    1.8942   -5.7353    0.4906 O   0  0  0  0  0  0  0  0  0  0  0  0
    2.2096   -6.5520    1.6036 C   0  0  0  0  0  0  0  0  0  0  0  0
    1.1572   -7.6605    1.7144 C   0  0  0  0  0  0  0  0  0  0  0  0
   -0.2502   -7.0832    1.9368 C   0  0  0  0  0  0  0  0  0  0  0  0
   -1.2739   -8.2006    2.1745 C   0  0  0  0  0  0  0  0  0  0  0  0
   -0.8603   -8.9955    3.2734 O   0  0  0  0  0  0  0  0  0  0  0  0
    0.3703   -9.6706    3.0372 C   0  0  0  0  0  0  0  0  0  0  0  0
    1.4921   -8.6355    2.8529 C   0  0  0  0  0  0  0  0  0  0  0  0
    4.1598   -4.7888    0.0889 C   0  0  2  0  0  0  0  0  0  0  0  0
    5.0915   -4.8260    1.1549 O   0  0  0  0  0  0  0  0  0  0  0  0
    6.4232   -5.0219    0.6777 C   0  0  0  0  0  0  0  0  0  0  0  0
    6.8575   -3.8883   -0.2719 C   0  0  0  0  0  0  0  0  0  0  0  0
    5.8305   -3.6837   -1.3995 C   0  0  0  0  0  0  0  0  0  0  0  0
    4.4751   -3.5541   -0.7252 C   0  0  1  0  0  0  0  0  0  0  0  0
    3.3629    0.7352   -4.9771 H   0  0  0  0  0  0  0  0  0  0  0  0
    2.6453    0.1438   -3.4982 H   0  0  0  0  0  0  0  0  0  0  0  0
    2.0807   -0.4796   -5.0543 H   0  0  0  0  0  0  0  0  0  0  0  0
    2.6494   -2.8067   -4.3698 H   0  0  0  0  0  0  0  0  0  0  0  0
    4.3346   -3.1100   -3.9912 H   0  0  0  0  0  0  0  0  0  0  0  0
    3.9090   -1.4174   -1.9732 H   0  0  0  0  0  0  0  0  0  0  0  0
    2.2308   -1.7262   -2.3198 H   0  0  0  0  0  0  0  0  0  0  0  0
    1.8225   -2.7390   -0.2680 H   0  0  0  0  0  0  0  0  0  0  0  0
    1.3223   -4.1320   -1.2573 H   0  0  0  0  0  0  0  0  0  0  0  0
    2.5743   -3.9816    1.3762 H   0  0  0  0  0  0  0  0  0  0  0  0
    3.2070   -6.9807    1.4816 H   0  0  0  0  0  0  0  0  0  0  0  0
    2.2167   -5.9604    2.5234 H   0  0  0  0  0  0  0  0  0  0  0  0
    1.1483   -8.2364    0.7915 H   0  0  0  0  0  0  0  0  0  0  0  0
   -0.2349   -6.4217    2.8026 H   0  0  0  0  0  0  0  0  0  0  0  0
   -0.5580   -6.4897    1.0762 H   0  0  0  0  0  0  0  0  0  0  0  0
   -2.2499   -7.7757    2.4055 H   0  0  0  0  0  0  0  0  0  0  0  0
   -1.3936   -8.8205    1.2817 H   0  0  0  0  0  0  0  0  0  0  0  0
    0.5897  -10.3065    3.8954 H   0  0  0  0  0  0  0  0  0  0  0  0
    0.2884  -10.3227    2.1650 H   0  0  0  0  0  0  0  0  0  0  0  0
    2.4350   -9.1444    2.6465 H   0  0  0  0  0  0  0  0  0  0  0  0
    1.6272   -8.0846    3.7843 H   0  0  0  0  0  0  0  0  0  0  0  0
    4.2499   -5.6895   -0.5151 H   0  0  0  0  0  0  0  0  0  0  0  0
    7.0895   -5.0585    1.5338 H   0  0  0  0  0  0  0  0  0  0  0  0
    6.4961   -5.9822    0.1771 H   0  0  0  0  0  0  0  0  0  0  0  0
    6.9487   -2.9629    0.2968 H   0  0  0  0  0  0  0  0  0  0  0  0
    7.8418   -4.0806   -0.6900 H   0  0  0  0  0  0  0  0  0  0  0  0
    6.0652   -2.8023   -1.9956 H   0  0  0  0  0  0  0  0  0  0  0  0
    5.8075   -4.5338   -2.0779 H   0  0  0  0  0  0  0  0  0  0  0  0
    4.4867   -2.6895   -0.0578 H   0  0  0  0  0  0  0  0  0  0  0  0
    3.3101   -4.2354   -2.2333 H   0  0  0  0  0  0  0  0  0  0  0  0
  1  2  1  0
  1 22  1  0
  1 23  1  0
  1 24  1  0
  2  3  1  0
  3  4  1  0
  3 25  1  0
  3 26  1  0
  4  5  1  0
  4 27  1  0
  4 28  1  0
  5 21  1  0
  5  6  1  0
  5 51  1  6
  6  7  1  0
  6 29  1  0
  6 30  1  0
  7  8  1  0
  7 16  1  0
  7 31  1  1
  8  9  1  0
  9 10  1  0
  9 32  1  0
  9 33  1  0
 10 15  1  0
 10 11  1  0
 10 34  1  0
 11 12  1  0
 11 35  1  0
 11 36  1  0
 12 13  1  0
 12 37  1  0
 12 38  1  0
 13 14  1  0
 14 15  1  0
 14 39  1  0
 14 40  1  0
 15 41  1  0
 15 42  1  0
 16 21  1  0
 16 17  1  0
 16 43  1  6
 17 18  1  0
 18 19  1  0
 18 44  1  0
 18 45  1  0
 19 20  1  0
 19 46  1  0
 19 47  1  0
 20 21  1  0
 20 48  1  0
 20 49  1  0
 21 50  1  1
M  CHG  1   5   1
M  END
>  <i_m_ct_stereo_status>  (252) 
1

>  <s_m_source_file>  (252) 
/var/tmp/pbs.5076255.sched01/tmpegbcst3k/90u3quomt0.sdf

>  <i_m_source_file_index>  (252) 
9

>  <i_lp_mmshare_version>  (252) 
48012

>  <i_f3d_flags>  (252) 
0

>  <s_epik_input>  (252) 
TzFbQ0gyXVtDSDJdW0NIMl1bQ0BIXShbQ0BASF0xMilOKFtDSDJdW0NIMl1PW0NIM10pW0NIMl1bQ0BIXTJPW0NIMl1bQ0hdM1tDSDJdW0NIMl1PW0NIMl1bQ0gyXTM=

>  <s_epik_cmdline>  (252) 
J2VwaWtfcHl0aG9uJywgJy1waHQnLCAnMi4wJywgJy1waCcsICc3LjAnLCAnLXRuJywgJzgnLCAnLW1hJywgJzIwMCcsICctaW1hZScsICc8aW5maWxlLm1hZT4nLCAnLW9tYWUnLCAnPG91dGZpbGUubWFlPic=

>  <r_epik_Ionization_Penalty>  (252) 
0.126193

>  <r_epik_Ionization_Penalty_Charging>  (252) 
0.126193

>  <r_epik_Ionization_Penalty_Neutral>  (252) 
2.6421e-11

>  <r_epik_State_Penalty>  (252) 
0.115647

>  <r_epik_Charging_Adjusted_Penalty>  (252) 
0.241839

>  <i_epik_Tot_Q>  (252) 
1

>  <i_epik_Tot_abs_Q>  (252) 
1

>  <s_lp_Force_Field>  (252) 
OPLS3e

>  <r_lp_Energy>  (252) 
28.9879

>  <b_lp_Chiralities_Consistent>  (252) 
1

>  <s_lp_Variant>  (252) 
66:0-1

>  <s_i_glide_gridfile>  (252) 
pfpi4k_grid

>  <i_i_glide_lignum>  (252) 
9

>  <i_i_glide_rotatable_bonds>  (252) 
6

>  <r_i_docking_score>  (252) 
-3.54103

>  <r_i_glide_ligand_efficiency>  (252) 
-0.168621

>  <r_i_glide_ligand_efficiency_sa>  (252) 
-0.465211

>  <r_i_glide_ligand_efficiency_ln>  (252) 
-0.875513

>  <r_i_glide_gscore>  (252) 
-3.54103

>  <r_i_glide_lipo>  (252) 
-0.614063

>  <r_i_glide_hbond>  (252) 
-0.335643

>  <r_i_glide_metal>  (252) 
-0

>  <r_i_glide_rewards>  (252) 
-1.36082

>  <r_i_glide_evdw>  (252) 
-25.4932

>  <r_i_glide_ecoul>  (252) 
-6.49482

>  <r_i_glide_erotb>  (252) 
1.01837

>  <r_i_glide_esite>  (252) 
0

>  <r_i_glide_emodel>  (252) 
-36.3289

>  <r_i_glide_energy>  (252) 
-31.988

>  <r_i_glide_einternal>  (252) 
5.03202

>  <r_i_glide_intrahb_reward>  (252) 
-0

>  <i_i_glide_confnum>  (252) 
2

>  <i_i_glide_posenum>  (252) 
19

>  <r_i_glide_eff_state_penalty>  (252) 
0

>  <ligand_id>  (252) 
66

>  <original_smiles>  (252) 
COCCN1CC(OCC2CCOCC2)C2OCCCC21

>  <smiles>  (252) 
[H]C([H])([H])OC([H])([H])C([H])([H])[N+]1([H])C([H])([H])C([H])(OC([H])([H])C2([H])C([H])([H])C([H])([H])OC([H])([H])C2([H])[H])C2([H])OC([H])([H])C([H])([H])C([H])([H])C21[H]

$$$$
66:0:2
     RDKit          3D

 51 53  0  0  1  0  0  0  0  0999 V2000
    3.2759    0.1220   -4.8981 C   0  0  0  0  0  0  0  0  0  0  0  0
    4.1140   -0.4725   -3.9278 O   0  0  0  0  0  0  0  0  0  0  0  0
    3.3824   -1.0222   -2.8476 C   0  0  0  0  0  0  0  0  0  0  0  0
    4.3892   -1.5336   -1.8116 C   0  0  0  0  0  0  0  0  0  0  0  0
    3.7106   -1.9858   -0.5739 N   0  0  2  0  0  0  0  0  0  0  0  0
    3.4894   -0.9358    0.4659 C   0  0  0  0  0  0  0  0  0  0  0  0
    3.4207   -1.6636    1.8267 C   0  0  1  0  0  0  0  0  0  0  0  0
    2.1504   -1.4189    2.4093 O   0  0  0  0  0  0  0  0  0  0  0  0
    2.1169   -1.7146    3.7935 C   0  0  0  0  0  0  0  0  0  0  0  0
    0.6546   -1.7473    4.2589 C   0  0  0  0  0  0  0  0  0  0  0  0
   -0.0253   -0.3726    4.1392 C   0  0  0  0  0  0  0  0  0  0  0  0
   -1.4466   -0.4035    4.7251 C   0  0  0  0  0  0  0  0  0  0  0  0
   -1.4090   -0.8497    6.0822 O   0  0  0  0  0  0  0  0  0  0  0  0
   -0.8943   -2.1711    6.2150 C   0  0  0  0  0  0  0  0  0  0  0  0
    0.5531   -2.2339    5.7111 C   0  0  0  0  0  0  0  0  0  0  0  0
    3.5935   -3.1427    1.4608 C   0  0  2  0  0  0  0  0  0  0  0  0
    4.3235   -3.9631    2.3600 O   0  0  0  0  0  0  0  0  0  0  0  0
    4.4066   -5.3156    1.8934 C   0  0  0  0  0  0  0  0  0  0  0  0
    5.0973   -5.3961    0.5220 C   0  0  0  0  0  0  0  0  0  0  0  0
    4.4319   -4.4528   -0.4894 C   0  0  0  0  0  0  0  0  0  0  0  0
    4.3808   -3.0705    0.1654 C   0  0  1  0  0  0  0  0  0  0  0  0
    3.8667    0.5250   -5.7185 H   0  0  0  0  0  0  0  0  0  0  0  0
    2.6895    0.9376   -4.4795 H   0  0  0  0  0  0  0  0  0  0  0  0
    2.5979   -0.6208   -5.3042 H   0  0  0  0  0  0  0  0  0  0  0  0
    2.7256   -0.2856   -2.4056 H   0  0  0  0  0  0  0  0  0  0  0  0
    2.7506   -1.8426   -3.1938 H   0  0  0  0  0  0  0  0  0  0  0  0
    4.9534   -2.3424   -2.2815 H   0  0  0  0  0  0  0  0  0  0  0  0
    5.1380   -0.7678   -1.5925 H   0  0  0  0  0  0  0  0  0  0  0  0
    4.3255   -0.2387    0.4849 H   0  0  0  0  0  0  0  0  0  0  0  0
    2.6037   -0.3401    0.2507 H   0  0  0  0  0  0  0  0  0  0  0  0
    4.2369   -1.2831    2.4507 H   0  0  0  0  0  0  0  0  0  0  0  0
    2.5782   -2.6851    3.9903 H   0  0  0  0  0  0  0  0  0  0  0  0
    2.6888   -0.9642    4.3452 H   0  0  0  0  0  0  0  0  0  0  0  0
    0.1085   -2.4555    3.6332 H   0  0  0  0  0  0  0  0  0  0  0  0
    0.5644    0.3775    4.6671 H   0  0  0  0  0  0  0  0  0  0  0  0
   -0.0652   -0.0584    3.0956 H   0  0  0  0  0  0  0  0  0  0  0  0
   -1.8842    0.5942    4.6920 H   0  0  0  0  0  0  0  0  0  0  0  0
   -2.0969   -1.0532    4.1368 H   0  0  0  0  0  0  0  0  0  0  0  0
   -0.9221   -2.4609    7.2639 H   0  0  0  0  0  0  0  0  0  0  0  0
   -1.5289   -2.8752    5.6824 H   0  0  0  0  0  0  0  0  0  0  0  0
    0.9270   -3.2547    5.7927 H   0  0  0  0  0  0  0  0  0  0  0  0
    1.1847   -1.6172    6.3513 H   0  0  0  0  0  0  0  0  0  0  0  0
    2.6120   -3.5816    1.2895 H   0  0  0  0  0  0  0  0  0  0  0  0
    4.9722   -5.8893    2.6195 H   0  0  0  0  0  0  0  0  0  0  0  0
    3.4162   -5.7562    1.8400 H   0  0  0  0  0  0  0  0  0  0  0  0
    6.1452   -5.1177    0.6290 H   0  0  0  0  0  0  0  0  0  0  0  0
    5.0901   -6.4131    0.1353 H   0  0  0  0  0  0  0  0  0  0  0  0
    4.9982   -4.4368   -1.4212 H   0  0  0  0  0  0  0  0  0  0  0  0
    3.4223   -4.7992   -0.7222 H   0  0  0  0  0  0  0  0  0  0  0  0
    5.3967   -2.7385    0.3903 H   0  0  0  0  0  0  0  0  0  0  0  0
    2.7805   -2.3290   -0.8083 H   0  0  0  0  0  0  0  0  0  0  0  0
  1  2  1  0
  1 22  1  0
  1 23  1  0
  1 24  1  0
  2  3  1  0
  3  4  1  0
  3 25  1  0
  3 26  1  0
  4  5  1  0
  4 27  1  0
  4 28  1  0
  5 21  1  0
  5  6  1  0
  5 51  1  6
  6  7  1  0
  6 29  1  0
  6 30  1  0
  7  8  1  0
  7 16  1  0
  7 31  1  1
  8  9  1  0
  9 10  1  0
  9 32  1  0
  9 33  1  0
 10 15  1  0
 10 11  1  0
 10 34  1  0
 11 12  1  0
 11 35  1  0
 11 36  1  0
 12 13  1  0
 12 37  1  0
 12 38  1  0
 13 14  1  0
 14 15  1  0
 14 39  1  0
 14 40  1  0
 15 41  1  0
 15 42  1  0
 16 21  1  0
 16 17  1  0
 16 43  1  6
 17 18  1  0
 18 19  1  0
 18 44  1  0
 18 45  1  0
 19 20  1  0
 19 46  1  0
 19 47  1  0
 20 21  1  0
 20 48  1  0
 20 49  1  0
 21 50  1  1
M  CHG  1   5   1
M  END
>  <i_m_ct_stereo_status>  (253) 
1

>  <s_m_source_file>  (253) 
/var/tmp/pbs.5076255.sched01/tmpegbcst3k/90u3quomt0.sdf

>  <i_m_source_file_index>  (253) 
9

>  <i_lp_mmshare_version>  (253) 
48012

>  <i_f3d_flags>  (253) 
0

>  <s_epik_input>  (253) 
TzFbQ0gyXVtDSDJdW0NIMl1bQ0BIXShbQ0BASF0xMilOKFtDSDJdW0NIMl1PW0NIM10pW0NIMl1bQ0BIXTJPW0NIMl1bQ0hdM1tDSDJdW0NIMl1PW0NIMl1bQ0gyXTM=

>  <s_epik_cmdline>  (253) 
J2VwaWtfcHl0aG9uJywgJy1waHQnLCAnMi4wJywgJy1waCcsICc3LjAnLCAnLXRuJywgJzgnLCAnLW1hJywgJzIwMCcsICctaW1hZScsICc8aW5maWxlLm1hZT4nLCAnLW9tYWUnLCAnPG91dGZpbGUubWFlPic=

>  <r_epik_Ionization_Penalty>  (253) 
0.126193

>  <r_epik_Ionization_Penalty_Charging>  (253) 
0.126193

>  <r_epik_Ionization_Penalty_Neutral>  (253) 
2.6421e-11

>  <r_epik_State_Penalty>  (253) 
0.115647

>  <r_epik_Charging_Adjusted_Penalty>  (253) 
0.241839

>  <i_epik_Tot_Q>  (253) 
1

>  <i_epik_Tot_abs_Q>  (253) 
1

>  <s_lp_Force_Field>  (253) 
OPLS3e

>  <r_lp_Energy>  (253) 
28.9879

>  <b_lp_Chiralities_Consistent>  (253) 
1

>  <s_lp_Variant>  (253) 
66:0-1

>  <s_i_glide_gridfile>  (253) 
pfpi4k_grid

>  <i_i_glide_lignum>  (253) 
9

>  <i_i_glide_rotatable_bonds>  (253) 
6

>  <r_i_docking_score>  (253) 
-2.59845

>  <r_i_glide_ligand_efficiency>  (253) 
-0.123735

>  <r_i_glide_ligand_efficiency_sa>  (253) 
-0.341377

>  <r_i_glide_ligand_efficiency_ln>  (253) 
-0.64246

>  <r_i_glide_gscore>  (253) 
-2.59845

>  <r_i_glide_lipo>  (253) 
-0.251965

>  <r_i_glide_hbond>  (253) 
-0.0714186

>  <r_i_glide_metal>  (253) 
-0

>  <r_i_glide_rewards>  (253) 
-1.36082

>  <r_i_glide_evdw>  (253) 
-19.5508

>  <r_i_glide_ecoul>  (253) 
-5.95327

>  <r_i_glide_erotb>  (253) 
1.01837

>  <r_i_glide_esite>  (253) 
-0.0620918

>  <r_i_glide_emodel>  (253) 
-29.4191

>  <r_i_glide_energy>  (253) 
-25.504

>  <r_i_glide_einternal>  (253) 
1.94711

>  <r_i_glide_intrahb_reward>  (253) 
-0

>  <i_i_glide_confnum>  (253) 
2

>  <i_i_glide_posenum>  (253) 
1

>  <r_i_glide_eff_state_penalty>  (253) 
0

>  <ligand_id>  (253) 
66

>  <original_smiles>  (253) 
COCCN1CC(OCC2CCOCC2)C2OCCCC21

>  <smiles>  (253) 
[H]C([H])([H])OC([H])([H])C([H])([H])[N+]1([H])C([H])([H])C([H])(OC([H])([H])C2([H])C([H])([H])C([H])([H])OC([H])([H])C2([H])[H])C2([H])OC([H])([H])C([H])([H])C([H])([H])C21[H]

$$$$
66:1:0
     RDKit          3D

 50 52  0  0  1  0  0  0  0  0999 V2000
    3.2625   -0.8101   -4.5173 C   0  0  0  0  0  0  0  0  0  0  0  0
    4.2170   -1.7976   -4.1980 O   0  0  0  0  0  0  0  0  0  0  0  0
    4.0127   -2.4396   -2.9489 C   0  0  0  0  0  0  0  0  0  0  0  0
    4.1437   -1.4936   -1.7315 C   0  0  0  0  0  0  0  0  0  0  0  0
    3.8629   -2.1038   -0.4313 N   0  0  0  0  0  0  0  0  0  0  0  0
    3.4955   -1.1194    0.5918 C   0  0  0  0  0  0  0  0  0  0  0  0
    3.7758   -1.7330    1.9723 C   0  0  1  0  0  0  0  0  0  0  0  0
    2.5882   -1.9446    2.7266 O   0  0  0  0  0  0  0  0  0  0  0  0
    1.9362   -0.7544    3.1578 C   0  0  0  0  0  0  0  0  0  0  0  0
    0.6597   -1.1489    3.9183 C   0  0  0  0  0  0  0  0  0  0  0  0
   -0.2660    0.0602    4.1255 C   0  0  0  0  0  0  0  0  0  0  0  0
   -1.4775   -0.2996    4.9991 C   0  0  0  0  0  0  0  0  0  0  0  0
   -1.0365   -0.8412    6.2409 O   0  0  0  0  0  0  0  0  0  0  0  0
   -0.3010   -2.0508    6.0824 C   0  0  0  0  0  0  0  0  0  0  0  0
    0.9796   -1.7898    5.2770 C   0  0  0  0  0  0  0  0  0  0  0  0
    4.4129   -3.0880    1.6078 C   0  0  2  0  0  0  0  0  0  0  0  0
    5.4882   -3.5282    2.4087 O   0  0  0  0  0  0  0  0  0  0  0  0
    5.9569   -4.8016    1.9712 C   0  0  0  0  0  0  0  0  0  0  0  0
    6.4615   -4.7502    0.5177 C   0  0  0  0  0  0  0  0  0  0  0  0
    5.4163   -4.1504   -0.4130 C   0  0  0  0  0  0  0  0  0  0  0  0
    4.9323   -2.8321    0.1951 C   0  0  1  0  0  0  0  0  0  0  0  0
    3.3818   -0.5416   -5.5664 H   0  0  0  0  0  0  0  0  0  0  0  0
    3.4161    0.0914   -3.9255 H   0  0  0  0  0  0  0  0  0  0  0  0
    2.2455   -1.1718   -4.3630 H   0  0  0  0  0  0  0  0  0  0  0  0
    3.0381   -2.9297   -2.9299 H   0  0  0  0  0  0  0  0  0  0  0  0
    4.7571   -3.2324   -2.9361 H   0  0  0  0  0  0  0  0  0  0  0  0
    5.1254   -1.0213   -1.7200 H   0  0  0  0  0  0  0  0  0  0  0  0
    3.4320   -0.6841   -1.8600 H   0  0  0  0  0  0  0  0  0  0  0  0
    4.0788   -0.2033    0.4767 H   0  0  0  0  0  0  0  0  0  0  0  0
    2.4447   -0.8558    0.4762 H   0  0  0  0  0  0  0  0  0  0  0  0
    4.4879   -1.1155    2.5309 H   0  0  0  0  0  0  0  0  0  0  0  0
    2.6044   -0.1590    3.7837 H   0  0  0  0  0  0  0  0  0  0  0  0
    1.6640   -0.1264    2.3093 H   0  0  0  0  0  0  0  0  0  0  0  0
    0.1149   -1.8826    3.3222 H   0  0  0  0  0  0  0  0  0  0  0  0
    0.2890    0.8737    4.5965 H   0  0  0  0  0  0  0  0  0  0  0  0
   -0.6151    0.4342    3.1615 H   0  0  0  0  0  0  0  0  0  0  0  0
   -2.0696    0.5959    5.1954 H   0  0  0  0  0  0  0  0  0  0  0  0
   -2.1346   -1.0132    4.4956 H   0  0  0  0  0  0  0  0  0  0  0  0
   -0.0356   -2.4227    7.0728 H   0  0  0  0  0  0  0  0  0  0  0  0
   -0.9246   -2.8122    5.6066 H   0  0  0  0  0  0  0  0  0  0  0  0
    1.5267   -2.7228    5.1344 H   0  0  0  0  0  0  0  0  0  0  0  0
    1.6314   -1.1307    5.8520 H   0  0  0  0  0  0  0  0  0  0  0  0
    3.6292   -3.8573    1.5930 H   0  0  0  0  0  0  0  0  0  0  0  0
    6.7677   -5.1060    2.6249 H   0  0  0  0  0  0  0  0  0  0  0  0
    5.1641   -5.5487    2.0579 H   0  0  0  0  0  0  0  0  0  0  0  0
    7.3515   -4.1257    0.4816 H   0  0  0  0  0  0  0  0  0  0  0  0
    6.7446   -5.7301    0.1650 H   0  0  0  0  0  0  0  0  0  0  0  0
    5.8845   -4.0042   -1.3850 H   0  0  0  0  0  0  0  0  0  0  0  0
    4.5722   -4.8281   -0.5340 H   0  0  0  0  0  0  0  0  0  0  0  0
    5.7932   -2.1648    0.2885 H   0  0  0  0  0  0  0  0  0  0  0  0
  1  2  1  0
  1 22  1  0
  1 23  1  0
  1 24  1  0
  2  3  1  0
  3  4  1  0
  3 25  1  0
  3 26  1  0
  4  5  1  0
  4 27  1  0
  4 28  1  0
  5 21  1  0
  5  6  1  0
  6  7  1  0
  6 29  1  0
  6 30  1  0
  7  8  1  0
  7 16  1  0
  7 31  1  1
  8  9  1  0
  9 10  1  0
  9 32  1  0
  9 33  1  0
 10 15  1  0
 10 11  1  0
 10 34  1  0
 11 12  1  0
 11 35  1  0
 11 36  1  0
 12 13  1  0
 12 37  1  0
 12 38  1  0
 13 14  1  0
 14 15  1  0
 14 39  1  0
 14 40  1  0
 15 41  1  0
 15 42  1  0
 16 21  1  0
 16 17  1  0
 16 43  1  6
 17 18  1  0
 18 19  1  0
 18 44  1  0
 18 45  1  0
 19 20  1  0
 19 46  1  0
 19 47  1  0
 20 21  1  0
 20 48  1  0
 20 49  1  0
 21 50  1  1
M  END
>  <i_m_ct_stereo_status>  (254) 
1

>  <s_m_source_file>  (254) 
/var/tmp/pbs.5076255.sched01/tmpegbcst3k/90u3quomt0.sdf

>  <i_m_source_file_index>  (254) 
10

>  <i_lp_mmshare_version>  (254) 
48012

>  <i_f3d_flags>  (254) 
0

>  <s_epik_input>  (254) 
TzFbQ0gyXVtDSDJdW0NIMl1bQ0BIXShbQ0BASF0xMilOKFtDSDJdW0NIMl1PW0NIM10pW0NIMl1bQ0BIXTJPW0NIMl1bQ0hdM1tDSDJdW0NIMl1PW0NIMl1bQ0gyXTM=

>  <s_epik_cmdline>  (254) 
J2VwaWtfcHl0aG9uJywgJy1waHQnLCAnMi4wJywgJy1waCcsICc3LjAnLCAnLXRuJywgJzgnLCAnLW1hJywgJzIwMCcsICctaW1hZScsICc8aW5maWxlLm1hZT4nLCAnLW9tYWUnLCAnPG91dGZpbGUubWFlPic=

>  <r_epik_Ionization_Penalty>  (254) 
0.978266

>  <r_epik_Ionization_Penalty_Charging>  (254) 
0

>  <r_epik_Ionization_Penalty_Neutral>  (254) 
0.978266

>  <r_epik_State_Penalty>  (254) 
1.02488

>  <r_epik_Charging_Adjusted_Penalty>  (254) 
1.02488

>  <i_epik_Tot_Q>  (254) 
0

>  <i_epik_Tot_abs_Q>  (254) 
0

>  <s_lp_Force_Field>  (254) 
OPLS3e

>  <r_lp_Energy>  (254) 
38.1995

>  <b_lp_Chiralities_Consistent>  (254) 
1

>  <s_lp_Variant>  (254) 
66:0-2

>  <s_i_glide_gridfile>  (254) 
pfpi4k_grid

>  <i_i_glide_lignum>  (254) 
10

>  <i_i_glide_rotatable_bonds>  (254) 
6

>  <r_i_docking_score>  (254) 
-2.85605

>  <r_i_glide_ligand_efficiency>  (254) 
-0.136002

>  <r_i_glide_ligand_efficiency_sa>  (254) 
-0.375221

>  <r_i_glide_ligand_efficiency_ln>  (254) 
-0.706153

>  <r_i_glide_gscore>  (254) 
-2.85605

>  <r_i_glide_lipo>  (254) 
-0.4989

>  <r_i_glide_hbond>  (254) 
-0.358376

>  <r_i_glide_metal>  (254) 
-0

>  <r_i_glide_rewards>  (254) 
-1.36769

>  <r_i_glide_evdw>  (254) 
-20.1467

>  <r_i_glide_ecoul>  (254) 
-4.32089

>  <r_i_glide_erotb>  (254) 
1.02438

>  <r_i_glide_esite>  (254) 
0

>  <r_i_glide_emodel>  (254) 
-27.7792

>  <r_i_glide_energy>  (254) 
-24.4676

>  <r_i_glide_einternal>  (254) 
2.25222

>  <r_i_glide_intrahb_reward>  (254) 
-0

>  <i_i_glide_confnum>  (254) 
4

>  <i_i_glide_posenum>  (254) 
17

>  <r_i_glide_eff_state_penalty>  (254) 
0

>  <ligand_id>  (254) 
66

>  <original_smiles>  (254) 
COCCN1CC(OCC2CCOCC2)C2OCCCC21

>  <smiles>  (254) 
[H]C([H])([H])OC([H])([H])C([H])([H])N1C([H])([H])C([H])(OC([H])([H])C2([H])C([H])([H])C([H])([H])OC([H])([H])C2([H])[H])C2([H])OC([H])([H])C([H])([H])C([H])([H])C12[H]

$$$$
66:1:1
     RDKit          3D

 50 52  0  0  1  0  0  0  0  0999 V2000
    3.6409   -0.6695   -3.8832 C   0  0  0  0  0  0  0  0  0  0  0  0
    3.8970   -2.0355   -4.1751 O   0  0  0  0  0  0  0  0  0  0  0  0
    3.4860   -2.9351   -3.1530 C   0  0  0  0  0  0  0  0  0  0  0  0
    4.3562   -2.8339   -1.8846 C   0  0  0  0  0  0  0  0  0  0  0  0
    4.0213   -3.8036   -0.8395 N   0  0  0  0  0  0  0  0  0  0  0  0
    2.7293   -3.5544   -0.1969 C   0  0  0  0  0  0  0  0  0  0  0  0
    2.7809   -4.1553    1.2201 C   0  0  1  0  0  0  0  0  0  0  0  0
    1.8156   -5.1722    1.3411 O   0  0  0  0  0  0  0  0  0  0  0  0
    1.5395   -5.4996    2.6945 C   0  0  0  0  0  0  0  0  0  0  0  0
    0.6148   -6.7232    2.7414 C   0  0  0  0  0  0  0  0  0  0  0  0
    0.1020   -6.9757    4.1701 C   0  0  0  0  0  0  0  0  0  0  0  0
   -0.6976   -8.2859    4.2557 C   0  0  0  0  0  0  0  0  0  0  0  0
    0.1126   -9.3562    3.7910 O   0  0  0  0  0  0  0  0  0  0  0  0
    0.4503   -9.2288    2.4190 C   0  0  0  0  0  0  0  0  0  0  0  0
    1.3251   -7.9839    2.2204 C   0  0  0  0  0  0  0  0  0  0  0  0
    4.2090   -4.7101    1.3035 C   0  0  2  0  0  0  0  0  0  0  0  0
    4.8805   -4.5903    2.5358 O   0  0  0  0  0  0  0  0  0  0  0  0
    6.1755   -5.1796    2.4755 C   0  0  0  0  0  0  0  0  0  0  0  0
    7.0430   -4.4819    1.4072 C   0  0  0  0  0  0  0  0  0  0  0  0
    6.3239   -4.4445    0.0586 C   0  0  0  0  0  0  0  0  0  0  0  0
    4.9313   -3.8564    0.2744 C   0  0  1  0  0  0  0  0  0  0  0  0
    3.7942   -0.0749   -4.7828 H   0  0  0  0  0  0  0  0  0  0  0  0
    4.3212   -0.2943   -3.1194 H   0  0  0  0  0  0  0  0  0  0  0  0
    2.6149   -0.5014   -3.5459 H   0  0  0  0  0  0  0  0  0  0  0  0
    2.4291   -2.7878   -2.9250 H   0  0  0  0  0  0  0  0  0  0  0  0
    3.5753   -3.9413   -3.5647 H   0  0  0  0  0  0  0  0  0  0  0  0
    5.3880   -2.9968   -2.1947 H   0  0  0  0  0  0  0  0  0  0  0  0
    4.3173   -1.8285   -1.4641 H   0  0  0  0  0  0  0  0  0  0  0  0
    2.5573   -2.4790   -0.1242 H   0  0  0  0  0  0  0  0  0  0  0  0
    1.9215   -3.9798   -0.7958 H   0  0  0  0  0  0  0  0  0  0  0  0
    2.6123   -3.3346    1.9302 H   0  0  0  0  0  0  0  0  0  0  0  0
    2.4635   -5.7076    3.2410 H   0  0  0  0  0  0  0  0  0  0  0  0
    1.0680   -4.6407    3.1742 H   0  0  0  0  0  0  0  0  0  0  0  0
   -0.2544   -6.5526    2.1049 H   0  0  0  0  0  0  0  0  0  0  0  0
    0.9481   -7.0354    4.8558 H   0  0  0  0  0  0  0  0  0  0  0  0
   -0.5159   -6.1419    4.5047 H   0  0  0  0  0  0  0  0  0  0  0  0
   -0.9798   -8.4882    5.2881 H   0  0  0  0  0  0  0  0  0  0  0  0
   -1.6220   -8.2280    3.6776 H   0  0  0  0  0  0  0  0  0  0  0  0
    0.9974  -10.1186    2.1078 H   0  0  0  0  0  0  0  0  0  0  0  0
   -0.4584   -9.1731    1.8159 H   0  0  0  0  0  0  0  0  0  0  0  0
    1.5769   -7.8737    1.1646 H   0  0  0  0  0  0  0  0  0  0  0  0
    2.2663   -8.1273    2.7521 H   0  0  0  0  0  0  0  0  0  0  0  0
    4.1971   -5.7565    0.9941 H   0  0  0  0  0  0  0  0  0  0  0  0
    6.6251   -5.0801    3.4541 H   0  0  0  0  0  0  0  0  0  0  0  0
    6.1008   -6.2460    2.2681 H   0  0  0  0  0  0  0  0  0  0  0  0
    7.2449   -3.4507    1.6964 H   0  0  0  0  0  0  0  0  0  0  0  0
    8.0015   -4.9768    1.3122 H   0  0  0  0  0  0  0  0  0  0  0  0
    6.8909   -3.8601   -0.6715 H   0  0  0  0  0  0  0  0  0  0  0  0
    6.2179   -5.4591   -0.3188 H   0  0  0  0  0  0  0  0  0  0  0  0
    5.0364   -2.8469    0.6867 H   0  0  0  0  0  0  0  0  0  0  0  0
  1  2  1  0
  1 22  1  0
  1 23  1  0
  1 24  1  0
  2  3  1  0
  3  4  1  0
  3 25  1  0
  3 26  1  0
  4  5  1  0
  4 27  1  0
  4 28  1  0
  5 21  1  0
  5  6  1  0
  6  7  1  0
  6 29  1  0
  6 30  1  0
  7  8  1  0
  7 16  1  0
  7 31  1  1
  8  9  1  0
  9 10  1  0
  9 32  1  0
  9 33  1  0
 10 15  1  0
 10 11  1  0
 10 34  1  0
 11 12  1  0
 11 35  1  0
 11 36  1  0
 12 13  1  0
 12 37  1  0
 12 38  1  0
 13 14  1  0
 14 15  1  0
 14 39  1  0
 14 40  1  0
 15 41  1  0
 15 42  1  0
 16 21  1  0
 16 17  1  0
 16 43  1  6
 17 18  1  0
 18 19  1  0
 18 44  1  0
 18 45  1  0
 19 20  1  0
 19 46  1  0
 19 47  1  0
 20 21  1  0
 20 48  1  0
 20 49  1  0
 21 50  1  1
M  END
>  <i_m_ct_stereo_status>  (255) 
1

>  <s_m_source_file>  (255) 
/var/tmp/pbs.5076255.sched01/tmpegbcst3k/90u3quomt0.sdf

>  <i_m_source_file_index>  (255) 
10

>  <i_lp_mmshare_version>  (255) 
48012

>  <i_f3d_flags>  (255) 
0

>  <s_epik_input>  (255) 
TzFbQ0gyXVtDSDJdW0NIMl1bQ0BIXShbQ0BASF0xMilOKFtDSDJdW0NIMl1PW0NIM10pW0NIMl1bQ0BIXTJPW0NIMl1bQ0hdM1tDSDJdW0NIMl1PW0NIMl1bQ0gyXTM=

>  <s_epik_cmdline>  (255) 
J2VwaWtfcHl0aG9uJywgJy1waHQnLCAnMi4wJywgJy1waCcsICc3LjAnLCAnLXRuJywgJzgnLCAnLW1hJywgJzIwMCcsICctaW1hZScsICc8aW5maWxlLm1hZT4nLCAnLW9tYWUnLCAnPG91dGZpbGUubWFlPic=

>  <r_epik_Ionization_Penalty>  (255) 
0.978266

>  <r_epik_Ionization_Penalty_Charging>  (255) 
0

>  <r_epik_Ionization_Penalty_Neutral>  (255) 
0.978266

>  <r_epik_State_Penalty>  (255) 
1.02488

>  <r_epik_Charging_Adjusted_Penalty>  (255) 
1.02488

>  <i_epik_Tot_Q>  (255) 
0

>  <i_epik_Tot_abs_Q>  (255) 
0

>  <s_lp_Force_Field>  (255) 
OPLS3e

>  <r_lp_Energy>  (255) 
38.1995

>  <b_lp_Chiralities_Consistent>  (255) 
1

>  <s_lp_Variant>  (255) 
66:0-2

>  <s_i_glide_gridfile>  (255) 
pfpi4k_grid

>  <i_i_glide_lignum>  (255) 
10

>  <i_i_glide_rotatable_bonds>  (255) 
6

>  <r_i_docking_score>  (255) 
-2.74578

>  <r_i_glide_ligand_efficiency>  (255) 
-0.130752

>  <r_i_glide_ligand_efficiency_sa>  (255) 
-0.360734

>  <r_i_glide_ligand_efficiency_ln>  (255) 
-0.678889

>  <r_i_glide_gscore>  (255) 
-2.74578

>  <r_i_glide_lipo>  (255) 
-0.587006

>  <r_i_glide_hbond>  (255) 
-0.393594

>  <r_i_glide_metal>  (255) 
-0

>  <r_i_glide_rewards>  (255) 
-1.36769

>  <r_i_glide_evdw>  (255) 
-21.5246

>  <r_i_glide_ecoul>  (255) 
-2.3043

>  <r_i_glide_erotb>  (255) 
1.02438

>  <r_i_glide_esite>  (255) 
0

>  <r_i_glide_emodel>  (255) 
-27.8884

>  <r_i_glide_energy>  (255) 
-23.8289

>  <r_i_glide_einternal>  (255) 
0.594609

>  <r_i_glide_intrahb_reward>  (255) 
-0

>  <i_i_glide_confnum>  (255) 
3

>  <i_i_glide_posenum>  (255) 
19

>  <r_i_glide_eff_state_penalty>  (255) 
0

>  <ligand_id>  (255) 
66

>  <original_smiles>  (255) 
COCCN1CC(OCC2CCOCC2)C2OCCCC21

>  <smiles>  (255) 
[H]C([H])([H])OC([H])([H])C([H])([H])N1C([H])([H])C([H])(OC([H])([H])C2([H])C([H])([H])C([H])([H])OC([H])([H])C2([H])[H])C2([H])OC([H])([H])C([H])([H])C([H])([H])C12[H]

$$$$
66:1:2
     RDKit          3D

 50 52  0  0  1  0  0  0  0  0999 V2000
    3.6226   -0.4053   -3.6617 C   0  0  0  0  0  0  0  0  0  0  0  0
    3.7950   -1.7778   -3.9851 O   0  0  0  0  0  0  0  0  0  0  0  0
    3.3333   -2.6730   -2.9795 C   0  0  0  0  0  0  0  0  0  0  0  0
    4.2230   -2.6457   -1.7232 C   0  0  0  0  0  0  0  0  0  0  0  0
    3.9312   -3.6998   -0.7542 N   0  0  0  0  0  0  0  0  0  0  0  0
    2.6702   -3.5152   -0.0308 C   0  0  0  0  0  0  0  0  0  0  0  0
    2.8016   -4.2485    1.3150 C   0  0  1  0  0  0  0  0  0  0  0  0
    1.8087   -5.2492    1.4234 O   0  0  0  0  0  0  0  0  0  0  0  0
    1.9081   -5.9958    2.6237 C   0  0  0  0  0  0  0  0  0  0  0  0
    0.5655   -6.6787    2.8948 C   0  0  0  0  0  0  0  0  0  0  0  0
    0.6124   -7.4852    4.2027 C   0  0  0  0  0  0  0  0  0  0  0  0
   -0.6857   -8.2788    4.4156 C   0  0  0  0  0  0  0  0  0  0  0  0
   -0.9291   -9.1017    3.2817 O   0  0  0  0  0  0  0  0  0  0  0  0
   -1.1440   -8.3662    2.0900 C   0  0  0  0  0  0  0  0  0  0  0  0
    0.1324   -7.5921    1.7352 C   0  0  0  0  0  0  0  0  0  0  0  0
    4.2246   -4.8142    1.2714 C   0  0  2  0  0  0  0  0  0  0  0  0
    4.9475   -4.8225    2.4775 O   0  0  0  0  0  0  0  0  0  0  0  0
    6.2286   -5.4104    2.3041 C   0  0  0  0  0  0  0  0  0  0  0  0
    7.0554   -4.6145    1.2694 C   0  0  0  0  0  0  0  0  0  0  0  0
    6.2672   -4.4316   -0.0334 C   0  0  0  0  0  0  0  0  0  0  0  0
    4.8964   -3.8589    0.3013 C   0  0  1  0  0  0  0  0  0  0  0  0
    3.8025    0.2008   -4.5494 H   0  0  0  0  0  0  0  0  0  0  0  0
    4.3311   -0.0868   -2.8964 H   0  0  0  0  0  0  0  0  0  0  0  0
    2.6153   -0.1877   -3.3110 H   0  0  0  0  0  0  0  0  0  0  0  0
    2.2894   -2.4699   -2.7325 H   0  0  0  0  0  0  0  0  0  0  0  0
    3.3584   -3.6753   -3.4108 H   0  0  0  0  0  0  0  0  0  0  0  0
    5.2520   -2.7601   -2.0646 H   0  0  0  0  0  0  0  0  0  0  0  0
    4.1692   -1.6737   -1.2305 H   0  0  0  0  0  0  0  0  0  0  0  0
    2.5063   -2.4506    0.1567 H   0  0  0  0  0  0  0  0  0  0  0  0
    1.8341   -3.8801   -0.6320 H   0  0  0  0  0  0  0  0  0  0  0  0
    2.6821   -3.5110    2.1179 H   0  0  0  0  0  0  0  0  0  0  0  0
    2.7057   -6.7345    2.5333 H   0  0  0  0  0  0  0  0  0  0  0  0
    2.1576   -5.3488    3.4683 H   0  0  0  0  0  0  0  0  0  0  0  0
   -0.1884   -5.9038    3.0231 H   0  0  0  0  0  0  0  0  0  0  0  0
    1.4515   -8.1808    4.1759 H   0  0  0  0  0  0  0  0  0  0  0  0
    0.7846   -6.8194    5.0497 H   0  0  0  0  0  0  0  0  0  0  0  0
   -0.5918   -8.9114    5.2993 H   0  0  0  0  0  0  0  0  0  0  0  0
   -1.5344   -7.6128    4.5851 H   0  0  0  0  0  0  0  0  0  0  0  0
   -1.3962   -9.0622    1.2934 H   0  0  0  0  0  0  0  0  0  0  0  0
   -1.9986   -7.6994    2.2134 H   0  0  0  0  0  0  0  0  0  0  0  0
   -0.0310   -7.0211    0.8204 H   0  0  0  0  0  0  0  0  0  0  0  0
    0.9304   -8.3019    1.5139 H   0  0  0  0  0  0  0  0  0  0  0  0
    4.1944   -5.8240    0.8481 H   0  0  0  0  0  0  0  0  0  0  0  0
    6.7355   -5.4097    3.2611 H   0  0  0  0  0  0  0  0  0  0  0  0
    6.1344   -6.4522    1.9952 H   0  0  0  0  0  0  0  0  0  0  0  0
    7.2872   -3.6297    1.6784 H   0  0  0  0  0  0  0  0  0  0  0  0
    7.9972   -5.1101    1.0730 H   0  0  0  0  0  0  0  0  0  0  0  0
    6.8081   -3.7940   -0.7394 H   0  0  0  0  0  0  0  0  0  0  0  0
    6.1130   -5.4041   -0.4944 H   0  0  0  0  0  0  0  0  0  0  0  0
    5.0266   -2.8952    0.8073 H   0  0  0  0  0  0  0  0  0  0  0  0
  1  2  1  0
  1 22  1  0
  1 23  1  0
  1 24  1  0
  2  3  1  0
  3  4  1  0
  3 25  1  0
  3 26  1  0
  4  5  1  0
  4 27  1  0
  4 28  1  0
  5 21  1  0
  5  6  1  0
  6  7  1  0
  6 29  1  0
  6 30  1  0
  7  8  1  0
  7 16  1  0
  7 31  1  1
  8  9  1  0
  9 10  1  0
  9 32  1  0
  9 33  1  0
 10 15  1  0
 10 11  1  0
 10 34  1  0
 11 12  1  0
 11 35  1  0
 11 36  1  0
 12 13  1  0
 12 37  1  0
 12 38  1  0
 13 14  1  0
 14 15  1  0
 14 39  1  0
 14 40  1  0
 15 41  1  0
 15 42  1  0
 16 21  1  0
 16 17  1  0
 16 43  1  6
 17 18  1  0
 18 19  1  0
 18 44  1  0
 18 45  1  0
 19 20  1  0
 19 46  1  0
 19 47  1  0
 20 21  1  0
 20 48  1  0
 20 49  1  0
 21 50  1  1
M  END
>  <i_m_ct_stereo_status>  (256) 
1

>  <s_m_source_file>  (256) 
/var/tmp/pbs.5076255.sched01/tmpegbcst3k/90u3quomt0.sdf

>  <i_m_source_file_index>  (256) 
10

>  <i_lp_mmshare_version>  (256) 
48012

>  <i_f3d_flags>  (256) 
0

>  <s_epik_input>  (256) 
TzFbQ0gyXVtDSDJdW0NIMl1bQ0BIXShbQ0BASF0xMilOKFtDSDJdW0NIMl1PW0NIM10pW0NIMl1bQ0BIXTJPW0NIMl1bQ0hdM1tDSDJdW0NIMl1PW0NIMl1bQ0gyXTM=

>  <s_epik_cmdline>  (256) 
J2VwaWtfcHl0aG9uJywgJy1waHQnLCAnMi4wJywgJy1waCcsICc3LjAnLCAnLXRuJywgJzgnLCAnLW1hJywgJzIwMCcsICctaW1hZScsICc8aW5maWxlLm1hZT4nLCAnLW9tYWUnLCAnPG91dGZpbGUubWFlPic=

>  <r_epik_Ionization_Penalty>  (256) 
0.978266

>  <r_epik_Ionization_Penalty_Charging>  (256) 
0

>  <r_epik_Ionization_Penalty_Neutral>  (256) 
0.978266

>  <r_epik_State_Penalty>  (256) 
1.02488

>  <r_epik_Charging_Adjusted_Penalty>  (256) 
1.02488

>  <i_epik_Tot_Q>  (256) 
0

>  <i_epik_Tot_abs_Q>  (256) 
0

>  <s_lp_Force_Field>  (256) 
OPLS3e

>  <r_lp_Energy>  (256) 
38.1995

>  <b_lp_Chiralities_Consistent>  (256) 
1

>  <s_lp_Variant>  (256) 
66:0-2

>  <s_i_glide_gridfile>  (256) 
pfpi4k_grid

>  <i_i_glide_lignum>  (256) 
10

>  <i_i_glide_rotatable_bonds>  (256) 
6

>  <r_i_docking_score>  (256) 
-2.41479

>  <r_i_glide_ligand_efficiency>  (256) 
-0.11499

>  <r_i_glide_ligand_efficiency_sa>  (256) 
-0.317249

>  <r_i_glide_ligand_efficiency_ln>  (256) 
-0.597052

>  <r_i_glide_gscore>  (256) 
-2.41479

>  <r_i_glide_lipo>  (256) 
-0.561667

>  <r_i_glide_hbond>  (256) 
-0.18848

>  <r_i_glide_metal>  (256) 
-0

>  <r_i_glide_rewards>  (256) 
-1.36769

>  <r_i_glide_evdw>  (256) 
-22.7458

>  <r_i_glide_ecoul>  (256) 
-1.22698

>  <r_i_glide_erotb>  (256) 
1.02438

>  <r_i_glide_esite>  (256) 
0

>  <r_i_glide_emodel>  (256) 
-26.6151

>  <r_i_glide_energy>  (256) 
-23.9728

>  <r_i_glide_einternal>  (256) 
2.20981

>  <r_i_glide_intrahb_reward>  (256) 
-0

>  <i_i_glide_confnum>  (256) 
3

>  <i_i_glide_posenum>  (256) 
5

>  <r_i_glide_eff_state_penalty>  (256) 
0

>  <ligand_id>  (256) 
66

>  <original_smiles>  (256) 
COCCN1CC(OCC2CCOCC2)C2OCCCC21

>  <smiles>  (256) 
[H]C([H])([H])OC([H])([H])C([H])([H])N1C([H])([H])C([H])(OC([H])([H])C2([H])C([H])([H])C([H])([H])OC([H])([H])C2([H])[H])C2([H])OC([H])([H])C([H])([H])C([H])([H])C12[H]

$$$$
67:0:0
     RDKit          3D

 68 72  0  0  1  0  0  0  0  0999 V2000
    1.0186   -1.2626    2.6143 C   0  0  0  0  0  0  0  0  0  0  0  0
    1.7046   -0.1609    3.4098 C   0  0  0  0  0  0  0  0  0  0  0  0
    0.9738    0.7266    4.1446 C   0  0  0  0  0  0  0  0  0  0  0  0
   -0.5899    0.6859    4.2278 C   0  0  0  0  0  0  0  0  0  0  0  0
   -0.9119    0.5784    5.7197 C   0  0  2  0  0  0  0  0  0  0  0  0
   -0.3388   -0.6837    6.0417 O   0  0  0  0  0  0  0  0  0  0  0  0
   -2.1572    0.7025    6.4520 O   0  0  0  0  0  0  0  0  0  0  0  0
   -1.3824    1.3955    7.5093 C   0  0  1  0  0  0  0  0  0  0  0  0
   -2.2887    2.3118    8.3404 C   0  0  0  0  0  0  0  0  0  0  0  0
   -0.6455    0.5476    8.4017 O   0  0  0  0  0  0  0  0  0  0  0  0
    0.7242    0.8124    8.5989 C   0  0  0  0  0  0  0  0  0  0  0  0
    0.9131    2.0846    9.4593 C   0  0  0  0  0  0  0  0  0  0  0  0
    1.2750   -0.4146    9.3353 C   0  0  0  0  0  0  0  0  0  0  0  0
    1.4525    0.9222    7.3970 O   0  0  0  0  0  0  0  0  0  0  0  0
    1.0377    1.9562    6.5040 C   0  0  1  0  0  0  0  0  0  0  0  0
    1.6487    1.8078    5.0658 C   0  0  1  0  0  0  0  0  0  0  0  0
    3.1941    1.7752    5.1005 C   0  0  0  0  0  0  0  0  0  0  0  0
    3.7315    0.3647    4.8639 C   0  0  2  0  0  0  0  0  0  0  0  0
    5.2214    0.3050    4.5812 C   0  0  0  0  0  0  0  0  0  0  0  0
    6.0848    0.8342    5.2773 O   0  0  0  0  0  0  0  0  0  0  0  0
    5.5067   -0.4922    3.3268 C   0  0  0  0  0  0  0  0  0  0  0  0
    4.1219   -0.6005    2.7237 C   0  0  0  0  0  0  0  0  0  0  0  0
    3.9231   -1.0623    1.3610 C   0  0  0  0  0  0  0  0  0  0  0  0
    4.9107   -1.5212    0.5628 C   0  0  0  0  0  0  0  0  0  0  0  0
    4.7013   -1.9735   -0.7966 C   0  0  0  0  0  0  0  0  0  0  0  0
    3.7597   -1.4977   -1.6370 C   0  0  0  0  0  0  0  0  0  0  0  0
    3.4947   -1.9593   -3.0646 C   0  0  0  0  0  0  0  0  0  0  0  0
    4.3779   -3.1400   -3.5016 C   0  0  0  0  0  0  0  0  0  0  0  0
    3.6081   -0.7831   -4.0477 C   0  0  0  0  0  0  0  0  0  0  0  0
    3.1624   -0.1614    3.5710 C   0  0  0  0  0  0  0  0  0  0  0  0
   -0.4729    1.8933    6.4000 C   0  0  1  0  0  0  0  0  0  0  0  0
   -0.9944    3.2281    5.8179 C   0  0  0  0  0  0  0  0  0  0  0  0
    1.6975   -2.0776    2.3774 H   0  0  0  0  0  0  0  0  0  0  0  0
    0.6157   -0.8598    1.6836 H   0  0  0  0  0  0  0  0  0  0  0  0
    0.2228   -1.7246    3.1907 H   0  0  0  0  0  0  0  0  0  0  0  0
   -0.9777    1.6032    3.7902 H   0  0  0  0  0  0  0  0  0  0  0  0
   -1.0623   -0.1101    3.6542 H   0  0  0  0  0  0  0  0  0  0  0  0
    0.5694   -0.6409    5.7736 H   0  0  0  0  0  0  0  0  0  0  0  0
   -2.7697    1.7527    9.1441 H   0  0  0  0  0  0  0  0  0  0  0  0
   -3.0755    2.7690    7.7405 H   0  0  0  0  0  0  0  0  0  0  0  0
   -1.7223    3.1145    8.8138 H   0  0  0  0  0  0  0  0  0  0  0  0
    0.5153    2.9674    8.9646 H   0  0  0  0  0  0  0  0  0  0  0  0
    1.9732    2.2496    9.6439 H   0  0  0  0  0  0  0  0  0  0  0  0
    0.3994    1.9721   10.4137 H   0  0  0  0  0  0  0  0  0  0  0  0
    1.1258   -1.3087    8.7271 H   0  0  0  0  0  0  0  0  0  0  0  0
    0.7492   -0.5493   10.2804 H   0  0  0  0  0  0  0  0  0  0  0  0
    2.3383   -0.2955    9.5345 H   0  0  0  0  0  0  0  0  0  0  0  0
    1.3603    2.9152    6.9085 H   0  0  0  0  0  0  0  0  0  0  0  0
    1.4234    2.7414    4.5543 H   0  0  0  0  0  0  0  0  0  0  0  0
    3.5758    2.4303    4.3161 H   0  0  0  0  0  0  0  0  0  0  0  0
    3.5785    2.1860    6.0360 H   0  0  0  0  0  0  0  0  0  0  0  0
    3.4813   -0.3027    5.6881 H   0  0  0  0  0  0  0  0  0  0  0  0
    6.2153    0.0075    2.6696 H   0  0  0  0  0  0  0  0  0  0  0  0
    5.8815   -1.4819    3.5851 H   0  0  0  0  0  0  0  0  0  0  0  0
    2.9320   -1.0289    0.9476 H   0  0  0  0  0  0  0  0  0  0  0  0
    5.9248   -1.5646    0.9340 H   0  0  0  0  0  0  0  0  0  0  0  0
    5.3625   -2.7592   -1.1277 H   0  0  0  0  0  0  0  0  0  0  0  0
    3.0969   -0.7125   -1.3014 H   0  0  0  0  0  0  0  0  0  0  0  0
    2.4580   -2.2963   -3.0789 H   0  0  0  0  0  0  0  0  0  0  0  0
    4.2238   -3.9927   -2.8407 H   0  0  0  0  0  0  0  0  0  0  0  0
    5.4346   -2.8751   -3.4708 H   0  0  0  0  0  0  0  0  0  0  0  0
    4.1461   -3.4729   -4.5124 H   0  0  0  0  0  0  0  0  0  0  0  0
    2.9124    0.0195   -3.7901 H   0  0  0  0  0  0  0  0  0  0  0  0
    3.3844   -1.0920   -5.0711 H   0  0  0  0  0  0  0  0  0  0  0  0
    4.6106   -0.3605   -4.0419 H   0  0  0  0  0  0  0  0  0  0  0  0
   -0.8612    4.0489    6.5246 H   0  0  0  0  0  0  0  0  0  0  0  0
   -2.0627    3.1647    5.5995 H   0  0  0  0  0  0  0  0  0  0  0  0
   -0.5157    3.5198    4.8842 H   0  0  0  0  0  0  0  0  0  0  0  0
  1  2  1  0
  1 33  1  0
  1 34  1  0
  1 35  1  0
  2 30  1  0
  2  3  2  0
  3 16  1  0
  3  4  1  0
  4  5  1  0
  4 36  1  0
  4 37  1  0
  5 31  1  0
  5  6  1  1
  5  7  1  0
  6 38  1  0
  7  8  1  0
  8 31  1  0
  8  9  1  1
  8 10  1  0
  9 39  1  0
  9 40  1  0
  9 41  1  0
 10 11  1  0
 11 12  1  0
 11 13  1  0
 11 14  1  0
 12 42  1  0
 12 43  1  0
 12 44  1  0
 13 45  1  0
 13 46  1  0
 13 47  1  0
 14 15  1  0
 15 16  1  0
 15 31  1  0
 15 48  1  1
 16 17  1  0
 16 49  1  6
 17 18  1  0
 17 50  1  0
 17 51  1  0
 18 30  1  0
 18 19  1  0
 18 52  1  1
 19 20  2  0
 19 21  1  0
 21 22  1  0
 21 53  1  0
 21 54  1  0
 22 23  1  0
 22 30  2  0
 23 24  2  3
 23 55  1  0
 24 25  1  0
 24 56  1  0
 25 26  2  3
 25 57  1  0
 26 27  1  0
 26 58  1  0
 27 28  1  0
 27 29  1  0
 27 59  1  0
 28 60  1  0
 28 61  1  0
 28 62  1  0
 29 63  1  0
 29 64  1  0
 29 65  1  0
 31 32  1  6
 32 66  1  0
 32 67  1  0
 32 68  1  0
M  END
>  <i_m_ct_stereo_status>  (257) 
1

>  <s_m_source_file>  (257) 
/var/tmp/pbs.5076255.sched01/tmpegbcst3k/90u3quomt0.sdf

>  <i_m_source_file_index>  (257) 
11

>  <i_lp_mmshare_version>  (257) 
48012

>  <i_f3d_flags>  (257) 
0

>  <s_epik_input>  (257) 
W09IXVtDQEBdMTJbQ0BAXTMoW0NIM10pW0NAXShPMikoW0NIM10pT0MoW0NIM10pKFtDSDNdKU9bQ0BIXTNbQ0BASF00QyhbQ0gyXTEpPUMoW0NIM10pQzVbQ0BIXShbQ0gyXTQpQyg9TylbQ0gyXUM9NS9bQ0hdPVtDSF0vW0NIXT1bQ0hdL1tDSF0oW0NIM10pW0NIM10=

>  <s_epik_cmdline>  (257) 
J2VwaWtfcHl0aG9uJywgJy1waHQnLCAnMi4wJywgJy1waCcsICc3LjAnLCAnLXRuJywgJzgnLCAnLW1hJywgJzIwMCcsICctaW1hZScsICc8aW5maWxlLm1hZT4nLCAnLW9tYWUnLCAnPG91dGZpbGUubWFlPic=

>  <r_lp_tautomer_probability>  (257) 
1

>  <r_epik_Ionization_Penalty>  (257) 
4.49328e-05

>  <r_epik_Ionization_Penalty_Charging>  (257) 
0

>  <r_epik_Ionization_Penalty_Neutral>  (257) 
4.49328e-05

>  <r_epik_State_Penalty>  (257) 
-0

>  <r_epik_Charging_Adjusted_Penalty>  (257) 
0

>  <i_epik_Tot_Q>  (257) 
0

>  <i_epik_Tot_abs_Q>  (257) 
0

>  <s_lp_Force_Field>  (257) 
OPLS3e

>  <r_lp_Energy>  (257) 
45.5573

>  <b_lp_Chiralities_Consistent>  (257) 
1

>  <s_lp_Variant>  (257) 
67:0-1

>  <s_i_glide_gridfile>  (257) 
pfpi4k_grid

>  <i_i_glide_lignum>  (257) 
11

>  <i_i_glide_rotatable_bonds>  (257) 
4

>  <r_i_docking_score>  (257) 
-3.2375

>  <r_i_glide_ligand_efficiency>  (257) 
-0.101172

>  <r_i_glide_ligand_efficiency_sa>  (257) 
-0.3212

>  <r_i_glide_ligand_efficiency_ln>  (257) 
-0.724964

>  <r_i_glide_gscore>  (257) 
-3.2375

>  <r_i_glide_lipo>  (257) 
-0.648731

>  <r_i_glide_hbond>  (257) 
-0.172519

>  <r_i_glide_metal>  (257) 
-0

>  <r_i_glide_rewards>  (257) 
-0.532215

>  <r_i_glide_evdw>  (257) 
-24.9027

>  <r_i_glide_ecoul>  (257) 
-5.68328

>  <r_i_glide_erotb>  (257) 
0.308615

>  <r_i_glide_esite>  (257) 
-0.0950196

>  <r_i_glide_emodel>  (257) 
-34.7249

>  <r_i_glide_energy>  (257) 
-30.586

>  <r_i_glide_einternal>  (257) 
5.09263

>  <r_i_glide_intrahb_reward>  (257) 
-0

>  <i_i_glide_confnum>  (257) 
5

>  <i_i_glide_posenum>  (257) 
6

>  <r_i_glide_eff_state_penalty>  (257) 
0

>  <ligand_id>  (257) 
67

>  <original_smiles>  (257) 
CC1=C2CC3(O)OC4(C)OC(C)(C)OC(C2CC2C(=O)CC(C=CC=CC(C)C)=C12)C34C

>  <smiles>  (257) 
[H]OC12OC3(C([H])([H])[H])OC(C([H])([H])[H])(C([H])([H])[H])OC([H])(C4([H])C(=C(C([H])([H])[H])C5=C(C([H])=C([H])C([H])=C([H])C([H])(C([H])([H])[H])C([H])([H])[H])C([H])([H])C(=O)C5([H])C4([H])[H])C1([H])[H])C32C([H])([H])[H]

$$$$
67:0:1
     RDKit          3D

 68 72  0  0  1  0  0  0  0  0999 V2000
    0.9729   -1.2140    2.9682 C   0  0  0  0  0  0  0  0  0  0  0  0
    1.6239   -0.0583    3.7166 C   0  0  0  0  0  0  0  0  0  0  0  0
    0.8595    0.8683    4.3657 C   0  0  0  0  0  0  0  0  0  0  0  0
   -0.7060    0.8186    4.3960 C   0  0  0  0  0  0  0  0  0  0  0  0
   -1.0769    0.8043    5.8798 C   0  0  2  0  0  0  0  0  0  0  0  0
   -0.5066   -0.4297    6.3046 O   0  0  0  0  0  0  0  0  0  0  0  0
   -2.3471    0.9623    6.5546 O   0  0  0  0  0  0  0  0  0  0  0  0
   -1.6246    1.7301    7.5940 C   0  0  1  0  0  0  0  0  0  0  0  0
   -2.5697    2.6849    8.3325 C   0  0  0  0  0  0  0  0  0  0  0  0
   -0.9208    0.9467    8.5655 O   0  0  0  0  0  0  0  0  0  0  0  0
    0.4401    1.2381    8.7944 C   0  0  0  0  0  0  0  0  0  0  0  0
    0.5895    2.5656    9.5764 C   0  0  0  0  0  0  0  0  0  0  0  0
    0.9764    0.0677    9.6279 C   0  0  0  0  0  0  0  0  0  0  0  0
    1.2113    1.2780    7.6145 O   0  0  0  0  0  0  0  0  0  0  0  0
    0.8260    2.2506    6.6423 C   0  0  1  0  0  0  0  0  0  0  0  0
    1.4897    2.0145    5.2386 C   0  0  1  0  0  0  0  0  0  0  0  0
    3.0327    2.0005    5.3294 C   0  0  0  0  0  0  0  0  0  0  0  0
    3.5923    0.5842    5.2015 C   0  0  2  0  0  0  0  0  0  0  0  0
    5.0920    0.5295    4.9764 C   0  0  0  0  0  0  0  0  0  0  0  0
    5.9217    1.1065    5.6747 O   0  0  0  0  0  0  0  0  0  0  0  0
    5.4358   -0.3431    3.7869 C   0  0  0  0  0  0  0  0  0  0  0  0
    4.0737   -0.5099    3.1401 C   0  0  0  0  0  0  0  0  0  0  0  0
    3.9296   -1.0658    1.8032 C   0  0  0  0  0  0  0  0  0  0  0  0
    4.9509   -1.5075    1.0347 C   0  0  0  0  0  0  0  0  0  0  0  0
    4.7814   -2.0461   -0.3049 C   0  0  0  0  0  0  0  0  0  0  0  0
    3.7760   -1.7247   -1.1411 C   0  0  0  0  0  0  0  0  0  0  0  0
    3.5823   -2.2829   -2.5386 C   0  0  0  0  0  0  0  0  0  0  0  0
    3.4994   -1.1467   -3.5689 C   0  0  0  0  0  0  0  0  0  0  0  0
    2.3325   -3.1751   -2.5963 C   0  0  0  0  0  0  0  0  0  0  0  0
    3.0769   -0.0332    3.9259 C   0  0  0  0  0  0  0  0  0  0  0  0
   -0.6781    2.1657    6.4892 C   0  0  1  0  0  0  0  0  0  0  0  0
   -1.1908    3.4541    5.8026 C   0  0  0  0  0  0  0  0  0  0  0  0
    1.6593   -2.0431    2.8209 H   0  0  0  0  0  0  0  0  0  0  0  0
    0.6151   -0.8768    1.9949 H   0  0  0  0  0  0  0  0  0  0  0  0
    0.1481   -1.6415    3.5324 H   0  0  0  0  0  0  0  0  0  0  0  0
   -1.0870    1.7021    3.8879 H   0  0  0  0  0  0  0  0  0  0  0  0
   -1.1545   -0.0154    3.8586 H   0  0  0  0  0  0  0  0  0  0  0  0
    0.4116   -0.3941    6.0710 H   0  0  0  0  0  0  0  0  0  0  0  0
   -3.0721    2.1704    9.1532 H   0  0  0  0  0  0  0  0  0  0  0  0
   -3.3389    3.0942    7.6778 H   0  0  0  0  0  0  0  0  0  0  0  0
   -2.0292    3.5230    8.7734 H   0  0  0  0  0  0  0  0  0  0  0  0
    0.2041    3.4115    9.0118 H   0  0  0  0  0  0  0  0  0  0  0  0
    1.6416    2.7525    9.7861 H   0  0  0  0  0  0  0  0  0  0  0  0
    0.0443    2.5111   10.5184 H   0  0  0  0  0  0  0  0  0  0  0  0
    0.8592   -0.8650    9.0737 H   0  0  0  0  0  0  0  0  0  0  0  0
    0.4192   -0.0121   10.5613 H   0  0  0  0  0  0  0  0  0  0  0  0
    2.0311    0.2130    9.8550 H   0  0  0  0  0  0  0  0  0  0  0  0
    1.1269    3.2363    6.9964 H   0  0  0  0  0  0  0  0  0  0  0  0
    1.2748    2.9110    4.6604 H   0  0  0  0  0  0  0  0  0  0  0  0
    3.4358    2.6093    4.5190 H   0  0  0  0  0  0  0  0  0  0  0  0
    3.3788    2.4746    6.2499 H   0  0  0  0  0  0  0  0  0  0  0  0
    3.3195   -0.0303    6.0593 H   0  0  0  0  0  0  0  0  0  0  0  0
    6.1732    0.1214    3.1315 H   0  0  0  0  0  0  0  0  0  0  0  0
    5.8134   -1.3059    4.1314 H   0  0  0  0  0  0  0  0  0  0  0  0
    2.9442   -1.1198    1.3824 H   0  0  0  0  0  0  0  0  0  0  0  0
    5.9606   -1.4581    1.4178 H   0  0  0  0  0  0  0  0  0  0  0  0
    5.5151   -2.7623   -0.6468 H   0  0  0  0  0  0  0  0  0  0  0  0
    3.0205   -1.0176   -0.8324 H   0  0  0  0  0  0  0  0  0  0  0  0
    4.4447   -2.9044   -2.7859 H   0  0  0  0  0  0  0  0  0  0  0  0
    4.4112   -0.5491   -3.5698 H   0  0  0  0  0  0  0  0  0  0  0  0
    2.6648   -0.4754   -3.3574 H   0  0  0  0  0  0  0  0  0  0  0  0
    3.3563   -1.5392   -4.5762 H   0  0  0  0  0  0  0  0  0  0  0  0
    2.4159   -3.9991   -1.8907 H   0  0  0  0  0  0  0  0  0  0  0  0
    2.1971   -3.5982   -3.5928 H   0  0  0  0  0  0  0  0  0  0  0  0
    1.4188   -2.6436   -2.3382 H   0  0  0  0  0  0  0  0  0  0  0  0
   -1.0909    4.3202    6.4586 H   0  0  0  0  0  0  0  0  0  0  0  0
   -2.2502    3.3642    5.5522 H   0  0  0  0  0  0  0  0  0  0  0  0
   -0.6829    3.6906    4.8689 H   0  0  0  0  0  0  0  0  0  0  0  0
  1  2  1  0
  1 33  1  0
  1 34  1  0
  1 35  1  0
  2 30  1  0
  2  3  2  0
  3 16  1  0
  3  4  1  0
  4  5  1  0
  4 36  1  0
  4 37  1  0
  5 31  1  0
  5  6  1  1
  5  7  1  0
  6 38  1  0
  7  8  1  0
  8 31  1  0
  8  9  1  1
  8 10  1  0
  9 39  1  0
  9 40  1  0
  9 41  1  0
 10 11  1  0
 11 12  1  0
 11 13  1  0
 11 14  1  0
 12 42  1  0
 12 43  1  0
 12 44  1  0
 13 45  1  0
 13 46  1  0
 13 47  1  0
 14 15  1  0
 15 16  1  0
 15 31  1  0
 15 48  1  1
 16 17  1  0
 16 49  1  6
 17 18  1  0
 17 50  1  0
 17 51  1  0
 18 30  1  0
 18 19  1  0
 18 52  1  1
 19 20  2  0
 19 21  1  0
 21 22  1  0
 21 53  1  0
 21 54  1  0
 22 23  1  0
 22 30  2  0
 23 24  2  3
 23 55  1  0
 24 25  1  0
 24 56  1  0
 25 26  2  3
 25 57  1  0
 26 27  1  0
 26 58  1  0
 27 28  1  0
 27 29  1  0
 27 59  1  0
 28 60  1  0
 28 61  1  0
 28 62  1  0
 29 63  1  0
 29 64  1  0
 29 65  1  0
 31 32  1  6
 32 66  1  0
 32 67  1  0
 32 68  1  0
M  END
>  <i_m_ct_stereo_status>  (258) 
1

>  <s_m_source_file>  (258) 
/var/tmp/pbs.5076255.sched01/tmpegbcst3k/90u3quomt0.sdf

>  <i_m_source_file_index>  (258) 
11

>  <i_lp_mmshare_version>  (258) 
48012

>  <i_f3d_flags>  (258) 
0

>  <s_epik_input>  (258) 
W09IXVtDQEBdMTJbQ0BAXTMoW0NIM10pW0NAXShPMikoW0NIM10pT0MoW0NIM10pKFtDSDNdKU9bQ0BIXTNbQ0BASF00QyhbQ0gyXTEpPUMoW0NIM10pQzVbQ0BIXShbQ0gyXTQpQyg9TylbQ0gyXUM9NS9bQ0hdPVtDSF0vW0NIXT1bQ0hdL1tDSF0oW0NIM10pW0NIM10=

>  <s_epik_cmdline>  (258) 
J2VwaWtfcHl0aG9uJywgJy1waHQnLCAnMi4wJywgJy1waCcsICc3LjAnLCAnLXRuJywgJzgnLCAnLW1hJywgJzIwMCcsICctaW1hZScsICc8aW5maWxlLm1hZT4nLCAnLW9tYWUnLCAnPG91dGZpbGUubWFlPic=

>  <r_lp_tautomer_probability>  (258) 
1

>  <r_epik_Ionization_Penalty>  (258) 
4.49328e-05

>  <r_epik_Ionization_Penalty_Charging>  (258) 
0

>  <r_epik_Ionization_Penalty_Neutral>  (258) 
4.49328e-05

>  <r_epik_State_Penalty>  (258) 
-0

>  <r_epik_Charging_Adjusted_Penalty>  (258) 
0

>  <i_epik_Tot_Q>  (258) 
0

>  <i_epik_Tot_abs_Q>  (258) 
0

>  <s_lp_Force_Field>  (258) 
OPLS3e

>  <r_lp_Energy>  (258) 
45.5573

>  <b_lp_Chiralities_Consistent>  (258) 
1

>  <s_lp_Variant>  (258) 
67:0-1

>  <s_i_glide_gridfile>  (258) 
pfpi4k_grid

>  <i_i_glide_lignum>  (258) 
11

>  <i_i_glide_rotatable_bonds>  (258) 
4

>  <r_i_docking_score>  (258) 
-3.09725

>  <r_i_glide_ligand_efficiency>  (258) 
-0.0967891

>  <r_i_glide_ligand_efficiency_sa>  (258) 
-0.307286

>  <r_i_glide_ligand_efficiency_ln>  (258) 
-0.693559

>  <r_i_glide_gscore>  (258) 
-3.09725

>  <r_i_glide_lipo>  (258) 
-0.616743

>  <r_i_glide_hbond>  (258) 
-0.166749

>  <r_i_glide_metal>  (258) 
-0

>  <r_i_glide_rewards>  (258) 
-0.499365

>  <r_i_glide_evdw>  (258) 
-23.6536

>  <r_i_glide_ecoul>  (258) 
-5.71621

>  <r_i_glide_erotb>  (258) 
0.308615

>  <r_i_glide_esite>  (258) 
-0.0828995

>  <r_i_glide_emodel>  (258) 
-33.492

>  <r_i_glide_energy>  (258) 
-29.3698

>  <r_i_glide_einternal>  (258) 
4.4587

>  <r_i_glide_intrahb_reward>  (258) 
-0

>  <i_i_glide_confnum>  (258) 
5

>  <i_i_glide_posenum>  (258) 
1

>  <r_i_glide_eff_state_penalty>  (258) 
0

>  <ligand_id>  (258) 
67

>  <original_smiles>  (258) 
CC1=C2CC3(O)OC4(C)OC(C)(C)OC(C2CC2C(=O)CC(C=CC=CC(C)C)=C12)C34C

>  <smiles>  (258) 
[H]OC12OC3(C([H])([H])[H])OC(C([H])([H])[H])(C([H])([H])[H])OC([H])(C4([H])C(=C(C([H])([H])[H])C5=C(C([H])=C([H])C([H])=C([H])C([H])(C([H])([H])[H])C([H])([H])[H])C([H])([H])C(=O)C5([H])C4([H])[H])C1([H])[H])C32C([H])([H])[H]

$$$$
67:0:2
     RDKit          3D

 68 72  0  0  1  0  0  0  0  0999 V2000
    2.0524    2.9053    2.5722 C   0  0  0  0  0  0  0  0  0  0  0  0
    1.2701    1.6883    3.0296 C   0  0  0  0  0  0  0  0  0  0  0  0
    1.7168    0.4247    2.7248 C   0  0  0  0  0  0  0  0  0  0  0  0
    3.0215    0.1710    1.8975 C   0  0  0  0  0  0  0  0  0  0  0  0
    3.8878   -0.7318    2.7835 C   0  0  2  0  0  0  0  0  0  0  0  0
    4.0998    0.1658    3.9017 O   0  0  0  0  0  0  0  0  0  0  0  0
    5.1075   -1.4407    2.5013 O   0  0  0  0  0  0  0  0  0  0  0  0
    4.5783   -2.5094    3.3801 C   0  0  1  0  0  0  0  0  0  0  0  0
    5.1946   -3.8789    3.0364 C   0  0  0  0  0  0  0  0  0  0  0  0
    4.7184   -2.3074    4.8065 O   0  0  0  0  0  0  0  0  0  0  0  0
    3.5732   -2.4252    5.6057 C   0  0  0  0  0  0  0  0  0  0  0  0
    3.1615   -3.9196    5.7607 C   0  0  0  0  0  0  0  0  0  0  0  0
    3.9674   -1.8616    6.9831 C   0  0  0  0  0  0  0  0  0  0  0  0
    2.4692   -1.6868    5.1641 O   0  0  0  0  0  0  0  0  0  0  0  0
    1.9914   -1.9768    3.8428 C   0  0  1  0  0  0  0  0  0  0  0  0
    1.0360   -0.8674    3.2788 C   0  0  1  0  0  0  0  0  0  0  0  0
   -0.1792   -0.6363    4.2103 C   0  0  0  0  0  0  0  0  0  0  0  0
   -0.0493    0.6812    4.9714 C   0  0  2  0  0  0  0  0  0  0  0  0
   -1.3368    1.1319    5.6421 C   0  0  0  0  0  0  0  0  0  0  0  0
   -2.0144    0.4187    6.3979 O   0  0  0  0  0  0  0  0  0  0  0  0
   -1.7022    2.5651    5.2960 C   0  0  0  0  0  0  0  0  0  0  0  0
   -0.7684    2.7904    4.1136 C   0  0  0  0  0  0  0  0  0  0  0  0
   -0.9114    3.9881    3.2788 C   0  0  0  0  0  0  0  0  0  0  0  0
   -2.0899    4.5619    2.9567 C   0  0  0  0  0  0  0  0  0  0  0  0
   -2.1903    5.7412    2.0985 C   0  0  0  0  0  0  0  0  0  0  0  0
   -3.3666    6.2387    1.6840 C   0  0  0  0  0  0  0  0  0  0  0  0
   -3.5240    7.4655    0.7967 C   0  0  0  0  0  0  0  0  0  0  0  0
   -4.3468    8.5479    1.5086 C   0  0  0  0  0  0  0  0  0  0  0  0
   -4.1460    7.0928   -0.5557 C   0  0  0  0  0  0  0  0  0  0  0  0
    0.1565    1.8111    3.9844 C   0  0  0  0  0  0  0  0  0  0  0  0
    3.2056   -2.0801    2.9490 C   0  0  1  0  0  0  0  0  0  0  0  0
    2.7836   -2.8350    1.6499 C   0  0  0  0  0  0  0  0  0  0  0  0
    1.8493    3.7789    3.1777 H   0  0  0  0  0  0  0  0  0  0  0  0
    1.8502    3.1187    1.5238 H   0  0  0  0  0  0  0  0  0  0  0  0
    3.1216    2.7684    2.6938 H   0  0  0  0  0  0  0  0  0  0  0  0
    2.7431   -0.3305    0.9667 H   0  0  0  0  0  0  0  0  0  0  0  0
    3.5485    1.0584    1.5706 H   0  0  0  0  0  0  0  0  0  0  0  0
    4.4921    0.9381    3.5579 H   0  0  0  0  0  0  0  0  0  0  0  0
    6.1324   -4.0468    3.5595 H   0  0  0  0  0  0  0  0  0  0  0  0
    5.3936   -3.9886    1.9700 H   0  0  0  0  0  0  0  0  0  0  0  0
    4.5440   -4.7043    3.3357 H   0  0  0  0  0  0  0  0  0  0  0  0
    2.8838   -4.3517    4.7997 H   0  0  0  0  0  0  0  0  0  0  0  0
    2.2998   -3.9971    6.4201 H   0  0  0  0  0  0  0  0  0  0  0  0
    3.9829   -4.5022    6.1708 H   0  0  0  0  0  0  0  0  0  0  0  0
    4.2678   -0.8173    6.8645 H   0  0  0  0  0  0  0  0  0  0  0  0
    4.8097   -2.4162    7.3888 H   0  0  0  0  0  0  0  0  0  0  0  0
    3.1320   -1.9128    7.6747 H   0  0  0  0  0  0  0  0  0  0  0  0
    1.4480   -2.9146    3.8832 H   0  0  0  0  0  0  0  0  0  0  0  0
    0.6123   -1.3119    2.3791 H   0  0  0  0  0  0  0  0  0  0  0  0
   -1.0827   -0.5882    3.6076 H   0  0  0  0  0  0  0  0  0  0  0  0
   -0.3213   -1.4751    4.8895 H   0  0  0  0  0  0  0  0  0  0  0  0
    0.7669    0.6491    5.6923 H   0  0  0  0  0  0  0  0  0  0  0  0
   -2.7502    2.6802    5.0526 H   0  0  0  0  0  0  0  0  0  0  0  0
   -1.4379    3.2127    6.1303 H   0  0  0  0  0  0  0  0  0  0  0  0
   -0.0473    4.4840    2.8855 H   0  0  0  0  0  0  0  0  0  0  0  0
   -2.9995    4.1074    3.3246 H   0  0  0  0  0  0  0  0  0  0  0  0
   -1.2765    6.2314    1.7780 H   0  0  0  0  0  0  0  0  0  0  0  0
   -4.2825    5.7478    1.9730 H   0  0  0  0  0  0  0  0  0  0  0  0
   -2.5347    7.8749    0.6065 H   0  0  0  0  0  0  0  0  0  0  0  0
   -3.8640    8.8709    2.4303 H   0  0  0  0  0  0  0  0  0  0  0  0
   -5.3518    8.1961    1.7403 H   0  0  0  0  0  0  0  0  0  0  0  0
   -4.4473    9.4348    0.8798 H   0  0  0  0  0  0  0  0  0  0  0  0
   -3.5231    6.3743   -1.0883 H   0  0  0  0  0  0  0  0  0  0  0  0
   -4.2424    7.9725   -1.1942 H   0  0  0  0  0  0  0  0  0  0  0  0
   -5.1396    6.6596   -0.4422 H   0  0  0  0  0  0  0  0  0  0  0  0
    2.5695   -3.8851    1.8474 H   0  0  0  0  0  0  0  0  0  0  0  0
    3.5908   -2.8126    0.9116 H   0  0  0  0  0  0  0  0  0  0  0  0
    1.9208   -2.4060    1.1467 H   0  0  0  0  0  0  0  0  0  0  0  0
  1  2  1  0
  1 33  1  0
  1 34  1  0
  1 35  1  0
  2 30  1  0
  2  3  2  0
  3 16  1  0
  3  4  1  0
  4  5  1  0
  4 36  1  0
  4 37  1  0
  5 31  1  0
  5  6  1  1
  5  7  1  0
  6 38  1  0
  7  8  1  0
  8 31  1  0
  8  9  1  6
  8 10  1  0
  9 39  1  0
  9 40  1  0
  9 41  1  0
 10 11  1  0
 11 12  1  0
 11 13  1  0
 11 14  1  0
 12 42  1  0
 12 43  1  0
 12 44  1  0
 13 45  1  0
 13 46  1  0
 13 47  1  0
 14 15  1  0
 15 16  1  0
 15 31  1  0
 15 48  1  1
 16 17  1  0
 16 49  1  6
 17 18  1  0
 17 50  1  0
 17 51  1  0
 18 30  1  0
 18 19  1  0
 18 52  1  1
 19 20  2  0
 19 21  1  0
 21 22  1  0
 21 53  1  0
 21 54  1  0
 22 23  1  0
 22 30  2  0
 23 24  2  3
 23 55  1  0
 24 25  1  0
 24 56  1  0
 25 26  2  3
 25 57  1  0
 26 27  1  0
 26 58  1  0
 27 28  1  0
 27 29  1  0
 27 59  1  0
 28 60  1  0
 28 61  1  0
 28 62  1  0
 29 63  1  0
 29 64  1  0
 29 65  1  0
 31 32  1  6
 32 66  1  0
 32 67  1  0
 32 68  1  0
M  END
>  <i_m_ct_stereo_status>  (259) 
1

>  <s_m_source_file>  (259) 
/var/tmp/pbs.5076255.sched01/tmpegbcst3k/90u3quomt0.sdf

>  <i_m_source_file_index>  (259) 
11

>  <i_lp_mmshare_version>  (259) 
48012

>  <i_f3d_flags>  (259) 
0

>  <s_epik_input>  (259) 
W09IXVtDQEBdMTJbQ0BAXTMoW0NIM10pW0NAXShPMikoW0NIM10pT0MoW0NIM10pKFtDSDNdKU9bQ0BIXTNbQ0BASF00QyhbQ0gyXTEpPUMoW0NIM10pQzVbQ0BIXShbQ0gyXTQpQyg9TylbQ0gyXUM9NS9bQ0hdPVtDSF0vW0NIXT1bQ0hdL1tDSF0oW0NIM10pW0NIM10=

>  <s_epik_cmdline>  (259) 
J2VwaWtfcHl0aG9uJywgJy1waHQnLCAnMi4wJywgJy1waCcsICc3LjAnLCAnLXRuJywgJzgnLCAnLW1hJywgJzIwMCcsICctaW1hZScsICc8aW5maWxlLm1hZT4nLCAnLW9tYWUnLCAnPG91dGZpbGUubWFlPic=

>  <r_lp_tautomer_probability>  (259) 
1

>  <r_epik_Ionization_Penalty>  (259) 
4.49328e-05

>  <r_epik_Ionization_Penalty_Charging>  (259) 
0

>  <r_epik_Ionization_Penalty_Neutral>  (259) 
4.49328e-05

>  <r_epik_State_Penalty>  (259) 
-0

>  <r_epik_Charging_Adjusted_Penalty>  (259) 
0

>  <i_epik_Tot_Q>  (259) 
0

>  <i_epik_Tot_abs_Q>  (259) 
0

>  <s_lp_Force_Field>  (259) 
OPLS3e

>  <r_lp_Energy>  (259) 
45.5573

>  <b_lp_Chiralities_Consistent>  (259) 
1

>  <s_lp_Variant>  (259) 
67:0-1

>  <s_i_glide_gridfile>  (259) 
pfpi4k_grid

>  <i_i_glide_lignum>  (259) 
11

>  <i_i_glide_rotatable_bonds>  (259) 
4

>  <r_i_docking_score>  (259) 
-2.99518

>  <r_i_glide_ligand_efficiency>  (259) 
-0.0935994

>  <r_i_glide_ligand_efficiency_sa>  (259) 
-0.29716

>  <r_i_glide_ligand_efficiency_ln>  (259) 
-0.670703

>  <r_i_glide_gscore>  (259) 
-2.99518

>  <r_i_glide_lipo>  (259) 
-0.374875

>  <r_i_glide_hbond>  (259) 
-0.16

>  <r_i_glide_metal>  (259) 
-0

>  <r_i_glide_rewards>  (259) 
-0.472634

>  <r_i_glide_evdw>  (259) 
-23.4764

>  <r_i_glide_ecoul>  (259) 
-7.28925

>  <r_i_glide_erotb>  (259) 
0.308615

>  <r_i_glide_esite>  (259) 
-0.0290784

>  <r_i_glide_emodel>  (259) 
-34.1102

>  <r_i_glide_energy>  (259) 
-30.7657

>  <r_i_glide_einternal>  (259) 
4.56514

>  <r_i_glide_intrahb_reward>  (259) 
-0

>  <i_i_glide_confnum>  (259) 
3

>  <i_i_glide_posenum>  (259) 
12

>  <r_i_glide_eff_state_penalty>  (259) 
0

>  <ligand_id>  (259) 
67

>  <original_smiles>  (259) 
CC1=C2CC3(O)OC4(C)OC(C)(C)OC(C2CC2C(=O)CC(C=CC=CC(C)C)=C12)C34C

>  <smiles>  (259) 
[H]OC12OC3(C([H])([H])[H])OC(C([H])([H])[H])(C([H])([H])[H])OC([H])(C4([H])C(=C(C([H])([H])[H])C5=C(C([H])=C([H])C([H])=C([H])C([H])(C([H])([H])[H])C([H])([H])[H])C([H])([H])C(=O)C5([H])C4([H])[H])C1([H])[H])C32C([H])([H])[H]

$$$$
67:1:0
     RDKit          3D

 68 72  0  0  1  0  0  0  0  0999 V2000
    1.9315    0.7109    1.5917 C   0  0  0  0  0  0  0  0  0  0  0  0
    1.8728    0.5848    3.1001 C   0  0  0  0  0  0  0  0  0  0  0  0
    2.0130    1.6967    3.8822 C   0  0  0  0  0  0  0  0  0  0  0  0
    2.2555    3.1266    3.2916 C   0  0  0  0  0  0  0  0  0  0  0  0
    1.1390    3.9975    3.8656 C   0  0  2  0  0  0  0  0  0  0  0  0
   -0.0107    3.3961    3.2793 O   0  0  0  0  0  0  0  0  0  0  0  0
    0.9570    5.4295    3.8717 O   0  0  0  0  0  0  0  0  0  0  0  0
    0.3971    5.2820    5.2348 C   0  0  1  0  0  0  0  0  0  0  0  0
    0.5329    6.5904    6.0246 C   0  0  0  0  0  0  0  0  0  0  0  0
   -0.9627    4.8311    5.3261 O   0  0  0  0  0  0  0  0  0  0  0  0
   -1.2434    3.7263    6.1633 C   0  0  0  0  0  0  0  0  0  0  0  0
   -1.1464    4.1256    7.6553 C   0  0  0  0  0  0  0  0  0  0  0  0
   -2.6751    3.3043    5.8266 C   0  0  0  0  0  0  0  0  0  0  0  0
   -0.4279    2.6073    5.9194 O   0  0  0  0  0  0  0  0  0  0  0  0
    0.9769    2.8011    6.0741 C   0  0  1  0  0  0  0  0  0  0  0  0
    1.8347    1.6498    5.4403 C   0  0  1  0  0  0  0  0  0  0  0  0
    1.4619    0.2692    6.0226 C   0  0  0  0  0  0  0  0  0  0  0  0
    0.6715   -0.5748    5.0197 C   0  0  2  0  0  0  0  0  0  0  0  0
    0.5689   -2.0333    5.4021 C   0  0  0  0  0  0  0  0  0  0  0  0
    0.2192   -2.4388    6.5058 O   0  0  0  0  0  0  0  0  0  0  0  0
    0.9327   -2.9289    4.2407 C   0  0  0  0  0  0  0  0  0  0  0  0
    1.6060   -1.9485    3.2992 C   0  0  0  0  0  0  0  0  0  0  0  0
    2.4392   -2.3612    2.1664 C   0  0  0  0  0  0  0  0  0  0  0  0
    2.6024   -3.5768    1.5950 C   0  0  0  0  0  0  0  0  0  0  0  0
    1.9736   -4.8325    1.9596 C   0  0  0  0  0  0  0  0  0  0  0  0
    2.1485   -5.9901    1.2876 C   0  0  0  0  0  0  0  0  0  0  0  0
    1.5025   -7.3270    1.6443 C   0  0  0  0  0  0  0  0  0  0  0  0
    0.5959   -7.2648    2.8887 C   0  0  0  0  0  0  0  0  0  0  0  0
    2.5615   -8.4312    1.7957 C   0  0  0  0  0  0  0  0  0  0  0  0
    1.4418   -0.6678    3.7258 C   0  0  0  0  0  0  0  0  0  0  0  0
    1.3385    4.1033    5.3923 C   0  0  1  0  0  0  0  0  0  0  0  0
    2.7211    4.5701    5.9122 C   0  0  0  0  0  0  0  0  0  0  0  0
    1.4736   -0.1472    1.1164 H   0  0  0  0  0  0  0  0  0  0  0  0
    2.9583    0.8125    1.2414 H   0  0  0  0  0  0  0  0  0  0  0  0
    1.3380    1.5604    1.2696 H   0  0  0  0  0  0  0  0  0  0  0  0
    3.2418    3.4628    3.6108 H   0  0  0  0  0  0  0  0  0  0  0  0
    2.2880    3.1881    2.2038 H   0  0  0  0  0  0  0  0  0  0  0  0
   -0.0373    3.6959    2.3655 H   0  0  0  0  0  0  0  0  0  0  0  0
   -0.2956    7.2654    5.8082 H   0  0  0  0  0  0  0  0  0  0  0  0
    1.4536    7.1276    5.7854 H   0  0  0  0  0  0  0  0  0  0  0  0
    0.5255    6.4164    7.1009 H   0  0  0  0  0  0  0  0  0  0  0  0
   -0.1370    4.4335    7.9255 H   0  0  0  0  0  0  0  0  0  0  0  0
   -1.4095    3.2720    8.2811 H   0  0  0  0  0  0  0  0  0  0  0  0
   -1.8233    4.9494    7.8813 H   0  0  0  0  0  0  0  0  0  0  0  0
   -2.7477    3.0565    4.7653 H   0  0  0  0  0  0  0  0  0  0  0  0
   -3.3579    4.1200    6.0436 H   0  0  0  0  0  0  0  0  0  0  0  0
   -2.9707    2.4426    6.4196 H   0  0  0  0  0  0  0  0  0  0  0  0
    1.2055    2.8408    7.1362 H   0  0  0  0  0  0  0  0  0  0  0  0
    2.8481    1.8137    5.7973 H   0  0  0  0  0  0  0  0  0  0  0  0
    2.3792   -0.2611    6.2742 H   0  0  0  0  0  0  0  0  0  0  0  0
    0.9153    0.3728    6.9625 H   0  0  0  0  0  0  0  0  0  0  0  0
   -0.3235   -0.1602    4.8436 H   0  0  0  0  0  0  0  0  0  0  0  0
    1.5811   -3.7472    4.5618 H   0  0  0  0  0  0  0  0  0  0  0  0
    0.0221   -3.3317    3.7965 H   0  0  0  0  0  0  0  0  0  0  0  0
    3.0448   -1.5936    1.7143 H   0  0  0  0  0  0  0  0  0  0  0  0
    3.2923   -3.6161    0.7637 H   0  0  0  0  0  0  0  0  0  0  0  0
    1.3359   -4.8487    2.8146 H   0  0  0  0  0  0  0  0  0  0  0  0
    2.7921   -6.0051    0.4190 H   0  0  0  0  0  0  0  0  0  0  0  0
    0.8735   -7.5969    0.7951 H   0  0  0  0  0  0  0  0  0  0  0  0
   -0.2095   -6.5462    2.7485 H   0  0  0  0  0  0  0  0  0  0  0  0
    1.1634   -6.9698    3.7716 H   0  0  0  0  0  0  0  0  0  0  0  0
    0.1307   -8.2268    3.1083 H   0  0  0  0  0  0  0  0  0  0  0  0
    3.1415   -8.5625    0.8816 H   0  0  0  0  0  0  0  0  0  0  0  0
    2.0959   -9.3927    2.0179 H   0  0  0  0  0  0  0  0  0  0  0  0
    3.2583   -8.2076    2.6042 H   0  0  0  0  0  0  0  0  0  0  0  0
    2.6716    4.8765    6.9579 H   0  0  0  0  0  0  0  0  0  0  0  0
    3.0714    5.4353    5.3442 H   0  0  0  0  0  0  0  0  0  0  0  0
    3.5030    3.8204    5.8207 H   0  0  0  0  0  0  0  0  0  0  0  0
  1  2  1  0
  1 33  1  0
  1 34  1  0
  1 35  1  0
  2 30  1  0
  2  3  2  0
  3 16  1  0
  3  4  1  0
  4  5  1  0
  4 36  1  0
  4 37  1  0
  5 31  1  0
  5  6  1  1
  5  7  1  0
  6 38  1  0
  7  8  1  0
  8 31  1  0
  8  9  1  1
  8 10  1  0
  9 39  1  0
  9 40  1  0
  9 41  1  0
 10 11  1  0
 11 12  1  0
 11 13  1  0
 11 14  1  0
 12 42  1  0
 12 43  1  0
 12 44  1  0
 13 45  1  0
 13 46  1  0
 13 47  1  0
 14 15  1  0
 15 16  1  0
 15 31  1  0
 15 48  1  1
 16 17  1  0
 16 49  1  1
 17 18  1  0
 17 50  1  0
 17 51  1  0
 18 30  1  0
 18 19  1  0
 18 52  1  6
 19 20  2  0
 19 21  1  0
 21 22  1  0
 21 53  1  0
 21 54  1  0
 22 23  1  0
 22 30  2  0
 23 24  2  3
 23 55  1  0
 24 25  1  0
 24 56  1  0
 25 26  2  3
 25 57  1  0
 26 27  1  0
 26 58  1  0
 27 28  1  0
 27 29  1  0
 27 59  1  0
 28 60  1  0
 28 61  1  0
 28 62  1  0
 29 63  1  0
 29 64  1  0
 29 65  1  0
 31 32  1  6
 32 66  1  0
 32 67  1  0
 32 68  1  0
M  END
>  <i_m_ct_stereo_status>  (260) 
1

>  <s_m_source_file>  (260) 
/var/tmp/pbs.5076255.sched01/tmpegbcst3k/90u3quomt0.sdf

>  <i_m_source_file_index>  (260) 
12

>  <i_lp_mmshare_version>  (260) 
48012

>  <i_f3d_flags>  (260) 
0

>  <s_epik_input>  (260) 
W09IXVtDQEBdMTJbQ0BAXTMoW0NIM10pW0NAXShPMikoW0NIM10pT0MoW0NIM10pKFtDSDNdKU9bQ0BIXTNbQ0BASF00QyhbQ0gyXTEpPUMoW0NIM10pQzVbQ0BIXShbQ0gyXTQpQyg9TylbQ0gyXUM9NS9bQ0hdPVtDSF0vW0NIXT1bQ0hdL1tDSF0oW0NIM10pW0NIM10=

>  <s_epik_cmdline>  (260) 
J2VwaWtfcHl0aG9uJywgJy1waHQnLCAnMi4wJywgJy1waCcsICc3LjAnLCAnLXRuJywgJzgnLCAnLW1hJywgJzIwMCcsICctaW1hZScsICc8aW5maWxlLm1hZT4nLCAnLW9tYWUnLCAnPG91dGZpbGUubWFlPic=

>  <r_lp_tautomer_probability>  (260) 
1

>  <r_epik_Ionization_Penalty>  (260) 
4.49328e-05

>  <r_epik_Ionization_Penalty_Charging>  (260) 
0

>  <r_epik_Ionization_Penalty_Neutral>  (260) 
4.49328e-05

>  <r_epik_State_Penalty>  (260) 
-0

>  <r_epik_Charging_Adjusted_Penalty>  (260) 
0

>  <i_epik_Tot_Q>  (260) 
0

>  <i_epik_Tot_abs_Q>  (260) 
0

>  <s_lp_Force_Field>  (260) 
OPLS3e

>  <r_lp_Energy>  (260) 
49.5613

>  <b_lp_Chiralities_Consistent>  (260) 
1

>  <s_lp_Variant>  (260) 
67:0-2

>  <s_i_glide_gridfile>  (260) 
pfpi4k_grid

>  <i_i_glide_lignum>  (260) 
12

>  <i_i_glide_rotatable_bonds>  (260) 
4

>  <r_i_docking_score>  (260) 
-2.16712

>  <r_i_glide_ligand_efficiency>  (260) 
-0.0677226

>  <r_i_glide_ligand_efficiency_sa>  (260) 
-0.215006

>  <r_i_glide_ligand_efficiency_ln>  (260) 
-0.485278

>  <r_i_glide_gscore>  (260) 
-2.16712

>  <r_i_glide_lipo>  (260) 
-0.0687526

>  <r_i_glide_hbond>  (260) 
0

>  <r_i_glide_metal>  (260) 
-0

>  <r_i_glide_rewards>  (260) 
-0.409435

>  <r_i_glide_evdw>  (260) 
-19.9321

>  <r_i_glide_ecoul>  (260) 
-6.05307

>  <r_i_glide_erotb>  (260) 
0.308615

>  <r_i_glide_esite>  (260) 
-0.0929855

>  <r_i_glide_emodel>  (260) 
-28.8499

>  <r_i_glide_energy>  (260) 
-25.9852

>  <r_i_glide_einternal>  (260) 
1.53855

>  <r_i_glide_intrahb_reward>  (260) 
-0

>  <i_i_glide_confnum>  (260) 
4

>  <i_i_glide_posenum>  (260) 
1

>  <r_i_glide_eff_state_penalty>  (260) 
0

>  <ligand_id>  (260) 
67

>  <original_smiles>  (260) 
CC1=C2CC3(O)OC4(C)OC(C)(C)OC(C2CC2C(=O)CC(C=CC=CC(C)C)=C12)C34C

>  <smiles>  (260) 
[H]OC12OC3(C([H])([H])[H])OC(C([H])([H])[H])(C([H])([H])[H])OC([H])(C4([H])C(=C(C([H])([H])[H])C5=C(C([H])=C([H])C([H])=C([H])C([H])(C([H])([H])[H])C([H])([H])[H])C([H])([H])C(=O)C5([H])C4([H])[H])C1([H])[H])C32C([H])([H])[H]

$$$$
67:1:1
     RDKit          3D

 68 72  0  0  1  0  0  0  0  0999 V2000
    1.8863    0.5703    1.6552 C   0  0  0  0  0  0  0  0  0  0  0  0
    1.8452    0.4948    3.1693 C   0  0  0  0  0  0  0  0  0  0  0  0
    1.9926    1.6287    3.9118 C   0  0  0  0  0  0  0  0  0  0  0  0
    2.2297    3.0390    3.2747 C   0  0  0  0  0  0  0  0  0  0  0  0
    1.1199    3.9283    3.8362 C   0  0  2  0  0  0  0  0  0  0  0  0
   -0.0394    3.3131    3.2784 O   0  0  0  0  0  0  0  0  0  0  0  0
    0.9408    5.3606    3.7986 O   0  0  0  0  0  0  0  0  0  0  0  0
    0.3923    5.2560    5.1724 C   0  0  1  0  0  0  0  0  0  0  0  0
    0.5406    6.5893    5.9169 C   0  0  0  0  0  0  0  0  0  0  0  0
   -0.9667    4.8097    5.2912 O   0  0  0  0  0  0  0  0  0  0  0  0
   -1.2385    3.7308    6.1643 C   0  0  0  0  0  0  0  0  0  0  0  0
   -1.1236    4.1762    7.6431 C   0  0  0  0  0  0  0  0  0  0  0  0
   -2.6741    3.2984    5.8562 C   0  0  0  0  0  0  0  0  0  0  0  0
   -0.4253    2.6030    5.9462 O   0  0  0  0  0  0  0  0  0  0  0  0
    0.9803    2.8008    6.0792 C   0  0  1  0  0  0  0  0  0  0  0  0
    1.8326    1.6301    5.4735 C   0  0  1  0  0  0  0  0  0  0  0  0
    1.4649    0.2675    6.1020 C   0  0  0  0  0  0  0  0  0  0  0  0
    0.6642   -0.6066    5.1358 C   0  0  2  0  0  0  0  0  0  0  0  0
    0.5628   -2.0539    5.5649 C   0  0  0  0  0  0  0  0  0  0  0  0
    0.2238   -2.4234    6.6845 O   0  0  0  0  0  0  0  0  0  0  0  0
    0.9126   -2.9869    4.4283 C   0  0  0  0  0  0  0  0  0  0  0  0
    1.5750   -2.0341    3.4495 C   0  0  0  0  0  0  0  0  0  0  0  0
    2.3945   -2.4867    2.3233 C   0  0  0  0  0  0  0  0  0  0  0  0
    2.5139   -3.7137    1.7709 C   0  0  0  0  0  0  0  0  0  0  0  0
    1.8541   -4.9516    2.1527 C   0  0  0  0  0  0  0  0  0  0  0  0
    1.9026   -6.0793    1.4174 C   0  0  0  0  0  0  0  0  0  0  0  0
    1.2374   -7.3928    1.8033 C   0  0  0  0  0  0  0  0  0  0  0  0
   -0.2138   -7.4361    1.3073 C   0  0  0  0  0  0  0  0  0  0  0  0
    1.3239   -7.7000    3.3101 C   0  0  0  0  0  0  0  0  0  0  0  0
    1.4212   -0.7412    3.8381 C   0  0  0  0  0  0  0  0  0  0  0  0
    1.3386    4.0825    5.3537 C   0  0  1  0  0  0  0  0  0  0  0  0
    2.7248    4.5630    5.8432 C   0  0  0  0  0  0  0  0  0  0  0  0
    1.4152   -0.3118    1.2430 H   0  0  0  0  0  0  0  0  0  0  0  0
    2.9085    0.6509    1.2842 H   0  0  0  0  0  0  0  0  0  0  0  0
    1.2961    1.4054    1.2841 H   0  0  0  0  0  0  0  0  0  0  0  0
    3.2195    3.3828    3.5717 H   0  0  0  0  0  0  0  0  0  0  0  0
    2.2488    3.0642    2.1862 H   0  0  0  0  0  0  0  0  0  0  0  0
   -0.0953    3.6214    2.3712 H   0  0  0  0  0  0  0  0  0  0  0  0
   -0.2896    7.2559    5.6865 H   0  0  0  0  0  0  0  0  0  0  0  0
    1.4568    7.1138    5.6487 H   0  0  0  0  0  0  0  0  0  0  0  0
    0.5441    6.4471    6.9966 H   0  0  0  0  0  0  0  0  0  0  0  0
   -0.1123    4.4918    7.8901 H   0  0  0  0  0  0  0  0  0  0  0  0
   -1.3798    3.3427    8.2963 H   0  0  0  0  0  0  0  0  0  0  0  0
   -1.7979    5.0060    7.8490 H   0  0  0  0  0  0  0  0  0  0  0  0
   -2.7569    3.0169    4.8034 H   0  0  0  0  0  0  0  0  0  0  0  0
   -3.3538    4.1219    6.0529 H   0  0  0  0  0  0  0  0  0  0  0  0
   -2.9663    2.4558    6.4786 H   0  0  0  0  0  0  0  0  0  0  0  0
    1.2215    2.8739    7.1382 H   0  0  0  0  0  0  0  0  0  0  0  0
    2.8493    1.8034    5.8142 H   0  0  0  0  0  0  0  0  0  0  0  0
    2.3856   -0.2548    6.3616 H   0  0  0  0  0  0  0  0  0  0  0  0
    0.9290    0.4012    7.0442 H   0  0  0  0  0  0  0  0  0  0  0  0
   -0.3311   -0.1976    4.9567 H   0  0  0  0  0  0  0  0  0  0  0  0
    1.5663   -3.7928    4.7650 H   0  0  0  0  0  0  0  0  0  0  0  0
   -0.0035   -3.4058    4.0096 H   0  0  0  0  0  0  0  0  0  0  0  0
    3.0216   -1.7410    1.8626 H   0  0  0  0  0  0  0  0  0  0  0  0
    3.2017   -3.7838    0.9392 H   0  0  0  0  0  0  0  0  0  0  0  0
    1.3046   -4.9952    3.0696 H   0  0  0  0  0  0  0  0  0  0  0  0
    2.4455   -6.0865    0.4823 H   0  0  0  0  0  0  0  0  0  0  0  0
    1.7887   -8.1803    1.2874 H   0  0  0  0  0  0  0  0  0  0  0  0
   -0.2709   -7.3164    0.2261 H   0  0  0  0  0  0  0  0  0  0  0  0
   -0.8168   -6.6556    1.7668 H   0  0  0  0  0  0  0  0  0  0  0  0
   -0.6841   -8.3879    1.5556 H   0  0  0  0  0  0  0  0  0  0  0  0
    2.3638   -7.7423    3.6340 H   0  0  0  0  0  0  0  0  0  0  0  0
    0.8695   -8.6639    3.5437 H   0  0  0  0  0  0  0  0  0  0  0  0
    0.8105   -6.9577    3.9200 H   0  0  0  0  0  0  0  0  0  0  0  0
    2.6877    4.9016    6.8795 H   0  0  0  0  0  0  0  0  0  0  0  0
    3.0704    5.4089    5.2439 H   0  0  0  0  0  0  0  0  0  0  0  0
    3.5060    3.8090    5.7670 H   0  0  0  0  0  0  0  0  0  0  0  0
  1  2  1  0
  1 33  1  0
  1 34  1  0
  1 35  1  0
  2 30  1  0
  2  3  2  0
  3 16  1  0
  3  4  1  0
  4  5  1  0
  4 36  1  0
  4 37  1  0
  5 31  1  0
  5  6  1  1
  5  7  1  0
  6 38  1  0
  7  8  1  0
  8 31  1  0
  8  9  1  1
  8 10  1  0
  9 39  1  0
  9 40  1  0
  9 41  1  0
 10 11  1  0
 11 12  1  0
 11 13  1  0
 11 14  1  0
 12 42  1  0
 12 43  1  0
 12 44  1  0
 13 45  1  0
 13 46  1  0
 13 47  1  0
 14 15  1  0
 15 16  1  0
 15 31  1  0
 15 48  1  1
 16 17  1  0
 16 49  1  1
 17 18  1  0
 17 50  1  0
 17 51  1  0
 18 30  1  0
 18 19  1  0
 18 52  1  6
 19 20  2  0
 19 21  1  0
 21 22  1  0
 21 53  1  0
 21 54  1  0
 22 23  1  0
 22 30  2  0
 23 24  2  3
 23 55  1  0
 24 25  1  0
 24 56  1  0
 25 26  2  3
 25 57  1  0
 26 27  1  0
 26 58  1  0
 27 28  1  0
 27 29  1  0
 27 59  1  0
 28 60  1  0
 28 61  1  0
 28 62  1  0
 29 63  1  0
 29 64  1  0
 29 65  1  0
 31 32  1  6
 32 66  1  0
 32 67  1  0
 32 68  1  0
M  END
>  <i_m_ct_stereo_status>  (261) 
1

>  <s_m_source_file>  (261) 
/var/tmp/pbs.5076255.sched01/tmpegbcst3k/90u3quomt0.sdf

>  <i_m_source_file_index>  (261) 
12

>  <i_lp_mmshare_version>  (261) 
48012

>  <i_f3d_flags>  (261) 
0

>  <s_epik_input>  (261) 
W09IXVtDQEBdMTJbQ0BAXTMoW0NIM10pW0NAXShPMikoW0NIM10pT0MoW0NIM10pKFtDSDNdKU9bQ0BIXTNbQ0BASF00QyhbQ0gyXTEpPUMoW0NIM10pQzVbQ0BIXShbQ0gyXTQpQyg9TylbQ0gyXUM9NS9bQ0hdPVtDSF0vW0NIXT1bQ0hdL1tDSF0oW0NIM10pW0NIM10=

>  <s_epik_cmdline>  (261) 
J2VwaWtfcHl0aG9uJywgJy1waHQnLCAnMi4wJywgJy1waCcsICc3LjAnLCAnLXRuJywgJzgnLCAnLW1hJywgJzIwMCcsICctaW1hZScsICc8aW5maWxlLm1hZT4nLCAnLW9tYWUnLCAnPG91dGZpbGUubWFlPic=

>  <r_lp_tautomer_probability>  (261) 
1

>  <r_epik_Ionization_Penalty>  (261) 
4.49328e-05

>  <r_epik_Ionization_Penalty_Charging>  (261) 
0

>  <r_epik_Ionization_Penalty_Neutral>  (261) 
4.49328e-05

>  <r_epik_State_Penalty>  (261) 
-0

>  <r_epik_Charging_Adjusted_Penalty>  (261) 
0

>  <i_epik_Tot_Q>  (261) 
0

>  <i_epik_Tot_abs_Q>  (261) 
0

>  <s_lp_Force_Field>  (261) 
OPLS3e

>  <r_lp_Energy>  (261) 
49.5613

>  <b_lp_Chiralities_Consistent>  (261) 
1

>  <s_lp_Variant>  (261) 
67:0-2

>  <s_i_glide_gridfile>  (261) 
pfpi4k_grid

>  <i_i_glide_lignum>  (261) 
12

>  <i_i_glide_rotatable_bonds>  (261) 
4

>  <r_i_docking_score>  (261) 
-2.14203

>  <r_i_glide_ligand_efficiency>  (261) 
-0.0669386

>  <r_i_glide_ligand_efficiency_sa>  (261) 
-0.212517

>  <r_i_glide_ligand_efficiency_ln>  (261) 
-0.47966

>  <r_i_glide_gscore>  (261) 
-2.14203

>  <r_i_glide_lipo>  (261) 
-0.0796801

>  <r_i_glide_hbond>  (261) 
0

>  <r_i_glide_metal>  (261) 
-0

>  <r_i_glide_rewards>  (261) 
-0.408872

>  <r_i_glide_evdw>  (261) 
-20.8742

>  <r_i_glide_ecoul>  (261) 
-5.47125

>  <r_i_glide_erotb>  (261) 
0.308615

>  <r_i_glide_esite>  (261) 
-0.0976985

>  <r_i_glide_emodel>  (261) 
-28.2522

>  <r_i_glide_energy>  (261) 
-26.3455

>  <r_i_glide_einternal>  (261) 
3.441

>  <r_i_glide_intrahb_reward>  (261) 
-0

>  <i_i_glide_confnum>  (261) 
3

>  <i_i_glide_posenum>  (261) 
15

>  <r_i_glide_eff_state_penalty>  (261) 
0

>  <ligand_id>  (261) 
67

>  <original_smiles>  (261) 
CC1=C2CC3(O)OC4(C)OC(C)(C)OC(C2CC2C(=O)CC(C=CC=CC(C)C)=C12)C34C

>  <smiles>  (261) 
[H]OC12OC3(C([H])([H])[H])OC(C([H])([H])[H])(C([H])([H])[H])OC([H])(C4([H])C(=C(C([H])([H])[H])C5=C(C([H])=C([H])C([H])=C([H])C([H])(C([H])([H])[H])C([H])([H])[H])C([H])([H])C(=O)C5([H])C4([H])[H])C1([H])[H])C32C([H])([H])[H]

$$$$
67:1:2
     RDKit          3D

 68 72  0  0  1  0  0  0  0  0999 V2000
    2.3525   -0.7683    1.9301 C   0  0  0  0  0  0  0  0  0  0  0  0
    2.0982   -0.5803    3.4194 C   0  0  0  0  0  0  0  0  0  0  0  0
    2.3767    0.6110    4.0282 C   0  0  0  0  0  0  0  0  0  0  0  0
    2.9744    1.8387    3.2686 C   0  0  0  0  0  0  0  0  0  0  0  0
    2.0078    2.9939    3.5211 C   0  0  2  0  0  0  0  0  0  0  0  0
    0.8232    2.5298    2.8730 O   0  0  0  0  0  0  0  0  0  0  0  0
    2.1364    4.4117    3.2769 O   0  0  0  0  0  0  0  0  0  0  0  0
    1.4081    4.6299    4.5504 C   0  0  1  0  0  0  0  0  0  0  0  0
    1.7207    6.0156    5.1254 C   0  0  0  0  0  0  0  0  0  0  0  0
   -0.0182    4.4567    4.5203 O   0  0  0  0  0  0  0  0  0  0  0  0
   -0.6088    3.5941    5.4715 C   0  0  0  0  0  0  0  0  0  0  0  0
   -0.5891    4.2364    6.8801 C   0  0  0  0  0  0  0  0  0  0  0  0
   -2.0536    3.3832    4.9974 C   0  0  0  0  0  0  0  0  0  0  0  0
   -0.0191    2.3163    5.5258 O   0  0  0  0  0  0  0  0  0  0  0  0
    1.3711    2.2763    5.8460 C   0  0  1  0  0  0  0  0  0  0  0  0
    2.0384    0.8885    5.5360 C   0  0  1  0  0  0  0  0  0  0  0  0
    1.3337   -0.2678    6.2782 C   0  0  0  0  0  0  0  0  0  0  0  0
    0.5026   -1.1305    5.3297 C   0  0  2  0  0  0  0  0  0  0  0  0
    0.0705   -2.4548    5.9274 C   0  0  0  0  0  0  0  0  0  0  0  0
   -0.4835   -2.5803    7.0187 O   0  0  0  0  0  0  0  0  0  0  0  0
    0.3642   -3.5982    4.9822 C   0  0  0  0  0  0  0  0  0  0  0  0
    1.3047   -2.9407    3.9844 C   0  0  0  0  0  0  0  0  0  0  0  0
    2.1600   -3.6890    3.0656 C   0  0  0  0  0  0  0  0  0  0  0  0
    2.0218   -4.9569    2.5981 C   0  0  0  0  0  0  0  0  0  0  0  0
    0.9595   -5.9035    2.8808 C   0  0  0  0  0  0  0  0  0  0  0  0
    0.8311   -7.0928    2.2615 C   0  0  0  0  0  0  0  0  0  0  0  0
   -0.2654   -8.1250    2.5167 C   0  0  0  0  0  0  0  0  0  0  0  0
   -1.2917   -7.6772    3.5743 C   0  0  0  0  0  0  0  0  0  0  0  0
    0.3291   -9.4961    2.8774 C   0  0  0  0  0  0  0  0  0  0  0  0
    1.3647   -1.5967    4.1824 C   0  0  0  0  0  0  0  0  0  0  0  0
    2.0659    3.3462    5.0272 C   0  0  1  0  0  0  0  0  0  0  0  0
    3.4516    3.6407    5.6541 C   0  0  0  0  0  0  0  0  0  0  0  0
    1.7931   -1.6084    1.5263 H   0  0  0  0  0  0  0  0  0  0  0  0
    3.4133   -0.9226    1.7308 H   0  0  0  0  0  0  0  0  0  0  0  0
    2.0055    0.0921    1.3614 H   0  0  0  0  0  0  0  0  0  0  0  0
    3.9602    2.0332    3.6840 H   0  0  0  0  0  0  0  0  0  0  0  0
    3.1375    1.6835    2.2025 H   0  0  0  0  0  0  0  0  0  0  0  0
    0.5933    3.1790    2.2167 H   0  0  0  0  0  0  0  0  0  0  0  0
    1.0729    6.7685    4.6758 H   0  0  0  0  0  0  0  0  0  0  0  0
    2.7495    6.3146    4.9332 H   0  0  0  0  0  0  0  0  0  0  0  0
    1.5592    6.0468    6.2021 H   0  0  0  0  0  0  0  0  0  0  0  0
    0.4271    4.3947    7.2330 H   0  0  0  0  0  0  0  0  0  0  0  0
   -1.0918    3.5797    7.5887 H   0  0  0  0  0  0  0  0  0  0  0  0
   -1.0896    5.2010    6.8681 H   0  0  0  0  0  0  0  0  0  0  0  0
   -2.0527    2.9445    3.9975 H   0  0  0  0  0  0  0  0  0  0  0  0
   -2.5712    4.3368    4.9466 H   0  0  0  0  0  0  0  0  0  0  0  0
   -2.5874    2.7204    5.6770 H   0  0  0  0  0  0  0  0  0  0  0  0
    1.4865    2.4734    6.9115 H   0  0  0  0  0  0  0  0  0  0  0  0
    3.0194    0.9310    6.0034 H   0  0  0  0  0  0  0  0  0  0  0  0
    2.0934   -0.8944    6.7454 H   0  0  0  0  0  0  0  0  0  0  0  0
    0.7230    0.1089    7.1006 H   0  0  0  0  0  0  0  0  0  0  0  0
   -0.3592   -0.5830    4.9487 H   0  0  0  0  0  0  0  0  0  0  0  0
    0.8081   -4.4598    5.4942 H   0  0  0  0  0  0  0  0  0  0  0  0
   -0.5651   -3.8957    4.4995 H   0  0  0  0  0  0  0  0  0  0  0  0
    3.0436   -3.1806    2.7267 H   0  0  0  0  0  0  0  0  0  0  0  0
    2.8054   -5.2972    1.9362 H   0  0  0  0  0  0  0  0  0  0  0  0
    0.2429   -5.6480    3.6369 H   0  0  0  0  0  0  0  0  0  0  0  0
    1.5524   -7.3783    1.5053 H   0  0  0  0  0  0  0  0  0  0  0  0
   -0.7950   -8.2431    1.5717 H   0  0  0  0  0  0  0  0  0  0  0  0
   -1.7806   -6.7500    3.2803 H   0  0  0  0  0  0  0  0  0  0  0  0
   -0.8104   -7.5176    4.5393 H   0  0  0  0  0  0  0  0  0  0  0  0
   -2.0733   -8.4221    3.7235 H   0  0  0  0  0  0  0  0  0  0  0  0
    0.9704   -9.8754    2.0805 H   0  0  0  0  0  0  0  0  0  0  0  0
   -0.4566  -10.2371    3.0357 H   0  0  0  0  0  0  0  0  0  0  0  0
    0.9218   -9.4500    3.7911 H   0  0  0  0  0  0  0  0  0  0  0  0
    3.3508    4.1393    6.6205 H   0  0  0  0  0  0  0  0  0  0  0  0
    4.0314    4.3042    5.0075 H   0  0  0  0  0  0  0  0  0  0  0  0
    4.0667    2.7537    5.7997 H   0  0  0  0  0  0  0  0  0  0  0  0
  1  2  1  0
  1 33  1  0
  1 34  1  0
  1 35  1  0
  2 30  1  0
  2  3  2  0
  3 16  1  0
  3  4  1  0
  4  5  1  0
  4 36  1  0
  4 37  1  0
  5 31  1  0
  5  6  1  1
  5  7  1  0
  6 38  1  0
  7  8  1  0
  8 31  1  0
  8  9  1  1
  8 10  1  0
  9 39  1  0
  9 40  1  0
  9 41  1  0
 10 11  1  0
 11 12  1  0
 11 13  1  0
 11 14  1  0
 12 42  1  0
 12 43  1  0
 12 44  1  0
 13 45  1  0
 13 46  1  0
 13 47  1  0
 14 15  1  0
 15 16  1  0
 15 31  1  0
 15 48  1  1
 16 17  1  0
 16 49  1  1
 17 18  1  0
 17 50  1  0
 17 51  1  0
 18 30  1  0
 18 19  1  0
 18 52  1  6
 19 20  2  0
 19 21  1  0
 21 22  1  0
 21 53  1  0
 21 54  1  0
 22 23  1  0
 22 30  2  0
 23 24  2  3
 23 55  1  0
 24 25  1  0
 24 56  1  0
 25 26  2  3
 25 57  1  0
 26 27  1  0
 26 58  1  0
 27 28  1  0
 27 29  1  0
 27 59  1  0
 28 60  1  0
 28 61  1  0
 28 62  1  0
 29 63  1  0
 29 64  1  0
 29 65  1  0
 31 32  1  1
 32 66  1  0
 32 67  1  0
 32 68  1  0
M  END
>  <i_m_ct_stereo_status>  (262) 
1

>  <s_m_source_file>  (262) 
/var/tmp/pbs.5076255.sched01/tmpegbcst3k/90u3quomt0.sdf

>  <i_m_source_file_index>  (262) 
12

>  <i_lp_mmshare_version>  (262) 
48012

>  <i_f3d_flags>  (262) 
0

>  <s_epik_input>  (262) 
W09IXVtDQEBdMTJbQ0BAXTMoW0NIM10pW0NAXShPMikoW0NIM10pT0MoW0NIM10pKFtDSDNdKU9bQ0BIXTNbQ0BASF00QyhbQ0gyXTEpPUMoW0NIM10pQzVbQ0BIXShbQ0gyXTQpQyg9TylbQ0gyXUM9NS9bQ0hdPVtDSF0vW0NIXT1bQ0hdL1tDSF0oW0NIM10pW0NIM10=

>  <s_epik_cmdline>  (262) 
J2VwaWtfcHl0aG9uJywgJy1waHQnLCAnMi4wJywgJy1waCcsICc3LjAnLCAnLXRuJywgJzgnLCAnLW1hJywgJzIwMCcsICctaW1hZScsICc8aW5maWxlLm1hZT4nLCAnLW9tYWUnLCAnPG91dGZpbGUubWFlPic=

>  <r_lp_tautomer_probability>  (262) 
1

>  <r_epik_Ionization_Penalty>  (262) 
4.49328e-05

>  <r_epik_Ionization_Penalty_Charging>  (262) 
0

>  <r_epik_Ionization_Penalty_Neutral>  (262) 
4.49328e-05

>  <r_epik_State_Penalty>  (262) 
-0

>  <r_epik_Charging_Adjusted_Penalty>  (262) 
0

>  <i_epik_Tot_Q>  (262) 
0

>  <i_epik_Tot_abs_Q>  (262) 
0

>  <s_lp_Force_Field>  (262) 
OPLS3e

>  <r_lp_Energy>  (262) 
49.5613

>  <b_lp_Chiralities_Consistent>  (262) 
1

>  <s_lp_Variant>  (262) 
67:0-2

>  <s_i_glide_gridfile>  (262) 
pfpi4k_grid

>  <i_i_glide_lignum>  (262) 
12

>  <i_i_glide_rotatable_bonds>  (262) 
4

>  <r_i_docking_score>  (262) 
-1.93512

>  <r_i_glide_ligand_efficiency>  (262) 
-0.0604725

>  <r_i_glide_ligand_efficiency_sa>  (262) 
-0.191988

>  <r_i_glide_ligand_efficiency_ln>  (262) 
-0.433326

>  <r_i_glide_gscore>  (262) 
-1.93512

>  <r_i_glide_lipo>  (262) 
-0.0279577

>  <r_i_glide_hbond>  (262) 
-0.00255321

>  <r_i_glide_metal>  (262) 
-0

>  <r_i_glide_rewards>  (262) 
-0.405193

>  <r_i_glide_evdw>  (262) 
-22.1311

>  <r_i_glide_ecoul>  (262) 
-4.15551

>  <r_i_glide_erotb>  (262) 
0.308615

>  <r_i_glide_esite>  (262) 
-0.0781494

>  <r_i_glide_emodel>  (262) 
-28.3631

>  <r_i_glide_energy>  (262) 
-26.2866

>  <r_i_glide_einternal>  (262) 
2.39846

>  <r_i_glide_intrahb_reward>  (262) 
-0

>  <i_i_glide_confnum>  (262) 
4

>  <i_i_glide_posenum>  (262) 
35

>  <r_i_glide_eff_state_penalty>  (262) 
0

>  <ligand_id>  (262) 
67

>  <original_smiles>  (262) 
CC1=C2CC3(O)OC4(C)OC(C)(C)OC(C2CC2C(=O)CC(C=CC=CC(C)C)=C12)C34C

>  <smiles>  (262) 
[H]OC12OC3(C([H])([H])[H])OC(C([H])([H])[H])(C([H])([H])[H])OC([H])(C4([H])C(=C(C([H])([H])[H])C5=C(C([H])=C([H])C([H])=C([H])C([H])(C([H])([H])[H])C([H])([H])[H])C([H])([H])C(=O)C5([H])C4([H])[H])C1([H])[H])C32C([H])([H])[H]

$$$$
67:2:0
     RDKit          3D

 68 72  0  0  1  0  0  0  0  0999 V2000
    3.0268    0.5616    1.2823 C   0  0  0  0  0  0  0  0  0  0  0  0
    2.7952    0.3128    2.7623 C   0  0  0  0  0  0  0  0  0  0  0  0
    2.7259    1.3709    3.6310 C   0  0  0  0  0  0  0  0  0  0  0  0
    2.8940    2.8521    3.1739 C   0  0  0  0  0  0  0  0  0  0  0  0
    1.6481    3.5819    3.6530 C   0  0  2  0  0  0  0  0  0  0  0  0
    0.6218    2.9108    2.9692 O   0  0  0  0  0  0  0  0  0  0  0  0
    1.3379    4.9925    3.7051 O   0  0  0  0  0  0  0  0  0  0  0  0
    0.6457    4.7208    4.9805 C   0  0  1  0  0  0  0  0  0  0  0  0
    0.5786    5.9754    5.8382 C   0  0  0  0  0  0  0  0  0  0  0  0
   -0.6739    4.1617    4.8885 O   0  0  0  0  0  0  0  0  0  0  0  0
   -0.9492    2.9789    5.6161 C   0  0  0  0  0  0  0  0  0  0  0  0
   -1.0466    3.2810    7.1269 C   0  0  0  0  0  0  0  0  0  0  0  0
   -2.2890    2.4692    5.0822 C   0  0  0  0  0  0  0  0  0  0  0  0
   -0.0194    1.9416    5.4038 O   0  0  0  0  0  0  0  0  0  0  0  0
    1.3413    2.2384    5.7355 C   0  0  1  0  0  0  0  0  0  0  0  0
    2.3636    1.1967    5.1483 C   0  0  1  0  0  0  0  0  0  0  0  0
    2.0370   -0.2522    5.5869 C   0  0  0  0  0  0  0  0  0  0  0  0
    1.4644   -1.0852    4.4326 C   0  0  2  0  0  0  0  0  0  0  0  0
    1.4256   -2.5734    4.7134 C   0  0  0  0  0  0  0  0  0  0  0  0
    0.9259   -3.0807    5.7182 O   0  0  0  0  0  0  0  0  0  0  0  0
    2.0680   -3.3601    3.5899 C   0  0  0  0  0  0  0  0  0  0  0  0
    2.7585   -2.2523    2.8067 C   0  0  0  0  0  0  0  0  0  0  0  0
    3.7347   -2.5927    1.7743 C   0  0  0  0  0  0  0  0  0  0  0  0
    3.5636   -2.4209    0.4488 C   0  0  0  0  0  0  0  0  0  0  0  0
    4.6027   -2.6812   -0.5408 C   0  0  0  0  0  0  0  0  0  0  0  0
    4.5180   -2.4040   -1.8628 C   0  0  0  0  0  0  0  0  0  0  0  0
    3.3684   -1.7362   -2.6094 C   0  0  0  0  0  0  0  0  0  0  0  0
    2.6404   -2.7361   -3.5231 C   0  0  0  0  0  0  0  0  0  0  0  0
    3.8384   -0.5068   -3.4043 C   0  0  0  0  0  0  0  0  0  0  0  0
    2.4088   -1.0218    3.2488 C   0  0  0  0  0  0  0  0  0  0  0  0
    1.6703    3.6170    5.1924 C   0  0  1  0  0  0  0  0  0  0  0  0
    2.9484    4.1532    5.8772 C   0  0  0  0  0  0  0  0  0  0  0  0
    2.6068   -0.2027    0.6739 H   0  0  0  0  0  0  0  0  0  0  0  0
    4.0892    0.7331    1.0759 H   0  0  0  0  0  0  0  0  0  0  0  0
    2.4629    1.4383    0.9647 H   0  0  0  0  0  0  0  0  0  0  0  0
    3.8067    3.2539    3.6120 H   0  0  0  0  0  0  0  0  0  0  0  0
    3.0119    3.0034    2.1064 H   0  0  0  0  0  0  0  0  0  0  0  0
    0.4350    3.4476    2.1747 H   0  0  0  0  0  0  0  0  0  0  0  0
   -0.2845    6.5785    5.5657 H   0  0  0  0  0  0  0  0  0  0  0  0
    1.4680    6.5958    5.7117 H   0  0  0  0  0  0  0  0  0  0  0  0
    0.4881    5.7274    6.8926 H   0  0  0  0  0  0  0  0  0  0  0  0
   -0.1030    3.6566    7.5208 H   0  0  0  0  0  0  0  0  0  0  0  0
   -1.2930    2.3704    7.6720 H   0  0  0  0  0  0  0  0  0  0  0  0
   -1.8141    4.0302    7.3153 H   0  0  0  0  0  0  0  0  0  0  0  0
   -2.2107    2.2669    4.0120 H   0  0  0  0  0  0  0  0  0  0  0  0
   -3.0649    3.2173    5.2366 H   0  0  0  0  0  0  0  0  0  0  0  0
   -2.5680    1.5518    5.5941 H   0  0  0  0  0  0  0  0  0  0  0  0
    1.4359    2.2227    6.8210 H   0  0  0  0  0  0  0  0  0  0  0  0
    3.3074    1.4094    5.6475 H   0  0  0  0  0  0  0  0  0  0  0  0
    2.9553   -0.7266    5.9340 H   0  0  0  0  0  0  0  0  0  0  0  0
    1.3610   -0.2600    6.4501 H   0  0  0  0  0  0  0  0  0  0  0  0
    0.4664   -0.7339    4.1530 H   0  0  0  0  0  0  0  0  0  0  0  0
    2.7498   -4.1277    3.9708 H   0  0  0  0  0  0  0  0  0  0  0  0
    1.2916   -3.8407    2.9916 H   0  0  0  0  0  0  0  0  0  0  0  0
    4.6715   -2.9979    2.1249 H   0  0  0  0  0  0  0  0  0  0  0  0
    2.6038   -2.0669    0.1112 H   0  0  0  0  0  0  0  0  0  0  0  0
    5.5382   -3.1171   -0.2039 H   0  0  0  0  0  0  0  0  0  0  0  0
    5.3530   -2.6653   -2.4920 H   0  0  0  0  0  0  0  0  0  0  0  0
    2.6570   -1.3494   -1.8904 H   0  0  0  0  0  0  0  0  0  0  0  0
    2.2255   -3.5624   -2.9465 H   0  0  0  0  0  0  0  0  0  0  0  0
    3.3127   -3.1540   -4.2733 H   0  0  0  0  0  0  0  0  0  0  0  0
    1.8117   -2.2636   -4.0520 H   0  0  0  0  0  0  0  0  0  0  0  0
    4.2739    0.2451   -2.7431 H   0  0  0  0  0  0  0  0  0  0  0  0
    3.0058   -0.0244   -3.9229 H   0  0  0  0  0  0  0  0  0  0  0  0
    4.5842   -0.7734   -4.1554 H   0  0  0  0  0  0  0  0  0  0  0  0
    2.7558    4.3868    6.9218 H   0  0  0  0  0  0  0  0  0  0  0  0
    3.2834    5.0723    5.3954 H   0  0  0  0  0  0  0  0  0  0  0  0
    3.7920    3.4703    5.8356 H   0  0  0  0  0  0  0  0  0  0  0  0
  1  2  1  0
  1 33  1  0
  1 34  1  0
  1 35  1  0
  2 30  1  0
  2  3  2  0
  3 16  1  0
  3  4  1  0
  4  5  1  0
  4 36  1  0
  4 37  1  0
  5 31  1  0
  5  6  1  1
  5  7  1  0
  6 38  1  0
  7  8  1  0
  8 31  1  0
  8  9  1  1
  8 10  1  0
  9 39  1  0
  9 40  1  0
  9 41  1  0
 10 11  1  0
 11 12  1  0
 11 13  1  0
 11 14  1  0
 12 42  1  0
 12 43  1  0
 12 44  1  0
 13 45  1  0
 13 46  1  0
 13 47  1  0
 14 15  1  0
 15 16  1  0
 15 31  1  0
 15 48  1  1
 16 17  1  0
 16 49  1  1
 17 18  1  0
 17 50  1  0
 17 51  1  0
 18 30  1  0
 18 19  1  0
 18 52  1  6
 19 20  2  0
 19 21  1  0
 21 22  1  0
 21 53  1  0
 21 54  1  0
 22 23  1  0
 22 30  2  0
 23 24  2  3
 23 55  1  0
 24 25  1  0
 24 56  1  0
 25 26  2  3
 25 57  1  0
 26 27  1  0
 26 58  1  0
 27 28  1  0
 27 29  1  0
 27 59  1  0
 28 60  1  0
 28 61  1  0
 28 62  1  0
 29 63  1  0
 29 64  1  0
 29 65  1  0
 31 32  1  6
 32 66  1  0
 32 67  1  0
 32 68  1  0
M  END
>  <i_m_ct_stereo_status>  (263) 
1

>  <s_m_source_file>  (263) 
/var/tmp/pbs.5076255.sched01/tmpegbcst3k/90u3quomt0.sdf

>  <i_m_source_file_index>  (263) 
13

>  <i_lp_mmshare_version>  (263) 
48012

>  <i_f3d_flags>  (263) 
0

>  <s_epik_input>  (263) 
W09IXVtDQEBdMTJbQ0BAXTMoW0NIM10pW0NAXShPMikoW0NIM10pT0MoW0NIM10pKFtDSDNdKU9bQ0BIXTNbQ0BASF00QyhbQ0gyXTEpPUMoW0NIM10pQzVbQ0BIXShbQ0gyXTQpQyg9TylbQ0gyXUM9NS9bQ0hdPVtDSF0vW0NIXT1bQ0hdL1tDSF0oW0NIM10pW0NIM10=

>  <s_epik_cmdline>  (263) 
J2VwaWtfcHl0aG9uJywgJy1waHQnLCAnMi4wJywgJy1waCcsICc3LjAnLCAnLXRuJywgJzgnLCAnLW1hJywgJzIwMCcsICctaW1hZScsICc8aW5maWxlLm1hZT4nLCAnLW9tYWUnLCAnPG91dGZpbGUubWFlPic=

>  <r_lp_tautomer_probability>  (263) 
1

>  <r_epik_Ionization_Penalty>  (263) 
4.49328e-05

>  <r_epik_Ionization_Penalty_Charging>  (263) 
0

>  <r_epik_Ionization_Penalty_Neutral>  (263) 
4.49328e-05

>  <r_epik_State_Penalty>  (263) 
-0

>  <r_epik_Charging_Adjusted_Penalty>  (263) 
0

>  <i_epik_Tot_Q>  (263) 
0

>  <i_epik_Tot_abs_Q>  (263) 
0

>  <s_lp_Force_Field>  (263) 
OPLS3e

>  <r_lp_Energy>  (263) 
50.3219

>  <b_lp_Chiralities_Consistent>  (263) 
1

>  <s_lp_Variant>  (263) 
67:0-3

>  <s_i_glide_gridfile>  (263) 
pfpi4k_grid

>  <i_i_glide_lignum>  (263) 
13

>  <i_i_glide_rotatable_bonds>  (263) 
4

>  <r_i_docking_score>  (263) 
-2.61783

>  <r_i_glide_ligand_efficiency>  (263) 
-0.0818073

>  <r_i_glide_ligand_efficiency_sa>  (263) 
-0.259722

>  <r_i_glide_ligand_efficiency_ln>  (263) 
-0.586204

>  <r_i_glide_gscore>  (263) 
-2.61783

>  <r_i_glide_lipo>  (263) 
-0.604237

>  <r_i_glide_hbond>  (263) 
0

>  <r_i_glide_metal>  (263) 
-0

>  <r_i_glide_rewards>  (263) 
-0.408651

>  <r_i_glide_evdw>  (263) 
-22.7425

>  <r_i_glide_ecoul>  (263) 
-4.66617

>  <r_i_glide_erotb>  (263) 
0.308615

>  <r_i_glide_esite>  (263) 
-0.076508

>  <r_i_glide_emodel>  (263) 
-28.1285

>  <r_i_glide_energy>  (263) 
-27.4087

>  <r_i_glide_einternal>  (263) 
5.99988

>  <r_i_glide_intrahb_reward>  (263) 
-0

>  <i_i_glide_confnum>  (263) 
2

>  <i_i_glide_posenum>  (263) 
11

>  <r_i_glide_eff_state_penalty>  (263) 
0

>  <ligand_id>  (263) 
67

>  <original_smiles>  (263) 
CC1=C2CC3(O)OC4(C)OC(C)(C)OC(C2CC2C(=O)CC(C=CC=CC(C)C)=C12)C34C

>  <smiles>  (263) 
[H]OC12OC3(C([H])([H])[H])OC(C([H])([H])[H])(C([H])([H])[H])OC([H])(C4([H])C(=C(C([H])([H])[H])C5=C(C([H])=C([H])C([H])=C([H])C([H])(C([H])([H])[H])C([H])([H])[H])C([H])([H])C(=O)C5([H])C4([H])[H])C1([H])[H])C32C([H])([H])[H]

$$$$
67:2:1
     RDKit          3D

 68 72  0  0  1  0  0  0  0  0999 V2000
    2.8443   -0.1121    1.6778 C   0  0  0  0  0  0  0  0  0  0  0  0
    2.4672   -0.2045    3.1566 C   0  0  0  0  0  0  0  0  0  0  0  0
    2.5178    0.9242    3.9436 C   0  0  0  0  0  0  0  0  0  0  0  0
    2.9675    2.2969    3.3596 C   0  0  0  0  0  0  0  0  0  0  0  0
    1.8400    3.2591    3.6516 C   0  0  2  0  0  0  0  0  0  0  0  0
    0.7710    2.7078    2.8744 O   0  0  0  0  0  0  0  0  0  0  0  0
    1.7571    4.6981    3.5771 O   0  0  0  0  0  0  0  0  0  0  0  0
    0.9506    4.6652    4.8162 C   0  0  1  0  0  0  0  0  0  0  0  0
    1.0402    5.9937    5.5639 C   0  0  0  0  0  0  0  0  0  0  0  0
   -0.4376    4.3237    4.6536 O   0  0  0  0  0  0  0  0  0  0  0  0
   -0.9510    3.2798    5.4618 C   0  0  0  0  0  0  0  0  0  0  0  0
   -1.0926    3.7298    6.9395 C   0  0  0  0  0  0  0  0  0  0  0  0
   -2.3196    2.9511    4.8645 C   0  0  0  0  0  0  0  0  0  0  0  0
   -0.2055    2.0838    5.3952 O   0  0  0  0  0  0  0  0  0  0  0  0
    1.1556    2.1989    5.8231 C   0  0  1  0  0  0  0  0  0  0  0  0
    2.0184    0.9516    5.4328 C   0  0  1  0  0  0  0  0  0  0  0  0
    1.4267   -0.3880    5.9476 C   0  0  0  0  0  0  0  0  0  0  0  0
    0.7969   -1.2177    4.8202 C   0  0  2  0  0  0  0  0  0  0  0  0
    0.4940   -2.6468    5.2247 C   0  0  0  0  0  0  0  0  0  0  0  0
   -0.1597   -2.9666    6.2227 O   0  0  0  0  0  0  0  0  0  0  0  0
    1.0549   -3.6334    4.2233 C   0  0  0  0  0  0  0  0  0  0  0  0
    1.9779   -2.7345    3.4040 C   0  0  0  0  0  0  0  0  0  0  0  0
    2.9569   -3.3348    2.4802 C   0  0  0  0  0  0  0  0  0  0  0  0
    2.9774   -3.1630    1.1487 C   0  0  0  0  0  0  0  0  0  0  0  0
    4.0314   -3.6724    0.2843 C   0  0  0  0  0  0  0  0  0  0  0  0
    4.2098   -3.3335   -1.0187 C   0  0  0  0  0  0  0  0  0  0  0  0
    3.4359   -2.3142   -1.8643 C   0  0  0  0  0  0  0  0  0  0  0  0
    2.7564   -2.9869   -3.0703 C   0  0  0  0  0  0  0  0  0  0  0  0
    4.3081   -1.1282   -2.3080 C   0  0  0  0  0  0  0  0  0  0  0  0
    1.8265   -1.4223    3.7197 C   0  0  0  0  0  0  0  0  0  0  0  0
    1.7642    3.4331    5.1804 C   0  0  1  0  0  0  0  0  0  0  0  0
    3.0612    3.8231    5.9378 C   0  0  0  0  0  0  0  0  0  0  0  0
    2.2873   -0.8269    1.1157 H   0  0  0  0  0  0  0  0  0  0  0  0
    3.9361   -0.1785    1.5565 H   0  0  0  0  0  0  0  0  0  0  0  0
    2.4637    0.8192    1.2365 H   0  0  0  0  0  0  0  0  0  0  0  0
    3.8881    2.5828    3.8409 H   0  0  0  0  0  0  0  0  0  0  0  0
    3.2055    2.3052    2.3091 H   0  0  0  0  0  0  0  0  0  0  0  0
    0.5884    3.3107    2.1661 H   0  0  0  0  0  0  0  0  0  0  0  0
    0.3095    6.6971    5.1798 H   0  0  0  0  0  0  0  0  0  0  0  0
    2.0218    6.4413    5.4586 H   0  0  0  0  0  0  0  0  0  0  0  0
    0.8423    5.8592    6.6200 H   0  0  0  0  0  0  0  0  0  0  0  0
   -0.1301    3.9846    7.3685 H   0  0  0  0  0  0  0  0  0  0  0  0
   -1.5278    2.9295    7.5349 H   0  0  0  0  0  0  0  0  0  0  0  0
   -1.7318    4.6009    7.0098 H   0  0  0  0  0  0  0  0  0  0  0  0
   -2.2090    2.6393    3.8228 H   0  0  0  0  0  0  0  0  0  0  0  0
   -2.9747    3.8163    4.8957 H   0  0  0  0  0  0  0  0  0  0  0  0
   -2.7858    2.1452    5.4296 H   0  0  0  0  0  0  0  0  0  0  0  0
    1.1703    2.2602    6.9073 H   0  0  0  0  0  0  0  0  0  0  0  0
    2.9575    1.0481    5.9727 H   0  0  0  0  0  0  0  0  0  0  0  0
    2.2354   -0.9717    6.4041 H   0  0  0  0  0  0  0  0  0  0  0  0
    0.7061   -0.2001    6.7448 H   0  0  0  0  0  0  0  0  0  0  0  0
   -0.1063   -0.7395    4.4346 H   0  0  0  0  0  0  0  0  0  0  0  0
    1.5653   -4.4612    4.7221 H   0  0  0  0  0  0  0  0  0  0  0  0
    0.2455   -4.0209    3.6026 H   0  0  0  0  0  0  0  0  0  0  0  0
    3.7420   -3.9390    2.9445 H   0  0  0  0  0  0  0  0  0  0  0  0
    2.1751   -2.6293    0.6746 H   0  0  0  0  0  0  0  0  0  0  0  0
    4.7690   -4.3767    0.6957 H   0  0  0  0  0  0  0  0  0  0  0  0
    5.0118   -3.8054   -1.5686 H   0  0  0  0  0  0  0  0  0  0  0  0
    2.6706   -1.8590   -1.2433 H   0  0  0  0  0  0  0  0  0  0  0  0
    2.0622   -3.7647   -2.7488 H   0  0  0  0  0  0  0  0  0  0  0  0
    3.4928   -3.4476   -3.7255 H   0  0  0  0  0  0  0  0  0  0  0  0
    2.1846   -2.2711   -3.6652 H   0  0  0  0  0  0  0  0  0  0  0  0
    4.7072   -0.5947   -1.4451 H   0  0  0  0  0  0  0  0  0  0  0  0
    3.7315   -0.4047   -2.8929 H   0  0  0  0  0  0  0  0  0  0  0  0
    5.1351   -1.4698   -2.9184 H   0  0  0  0  0  0  0  0  0  0  0  0
    2.8516    4.1826    6.9394 H   0  0  0  0  0  0  0  0  0  0  0  0
    3.5830    4.6222    5.4244 H   0  0  0  0  0  0  0  0  0  0  0  0
    3.7801    3.0205    6.0294 H   0  0  0  0  0  0  0  0  0  0  0  0
  1  2  1  0
  1 33  1  0
  1 34  1  0
  1 35  1  0
  2 30  1  0
  2  3  2  0
  3 16  1  0
  3  4  1  0
  4  5  1  0
  4 36  1  0
  4 37  1  0
  5 31  1  0
  5  6  1  6
  5  7  1  0
  6 38  1  0
  7  8  1  0
  8 31  1  0
  8  9  1  1
  8 10  1  0
  9 39  1  0
  9 40  1  0
  9 41  1  0
 10 11  1  0
 11 12  1  0
 11 13  1  0
 11 14  1  0
 12 42  1  0
 12 43  1  0
 12 44  1  0
 13 45  1  0
 13 46  1  0
 13 47  1  0
 14 15  1  0
 15 16  1  0
 15 31  1  0
 15 48  1  1
 16 17  1  0
 16 49  1  1
 17 18  1  0
 17 50  1  0
 17 51  1  0
 18 30  1  0
 18 19  1  0
 18 52  1  6
 19 20  2  0
 19 21  1  0
 21 22  1  0
 21 53  1  0
 21 54  1  0
 22 23  1  0
 22 30  2  0
 23 24  2  3
 23 55  1  0
 24 25  1  0
 24 56  1  0
 25 26  2  3
 25 57  1  0
 26 27  1  0
 26 58  1  0
 27 28  1  0
 27 29  1  0
 27 59  1  0
 28 60  1  0
 28 61  1  0
 28 62  1  0
 29 63  1  0
 29 64  1  0
 29 65  1  0
 31 32  1  1
 32 66  1  0
 32 67  1  0
 32 68  1  0
M  END
>  <i_m_ct_stereo_status>  (264) 
1

>  <s_m_source_file>  (264) 
/var/tmp/pbs.5076255.sched01/tmpegbcst3k/90u3quomt0.sdf

>  <i_m_source_file_index>  (264) 
13

>  <i_lp_mmshare_version>  (264) 
48012

>  <i_f3d_flags>  (264) 
0

>  <s_epik_input>  (264) 
W09IXVtDQEBdMTJbQ0BAXTMoW0NIM10pW0NAXShPMikoW0NIM10pT0MoW0NIM10pKFtDSDNdKU9bQ0BIXTNbQ0BASF00QyhbQ0gyXTEpPUMoW0NIM10pQzVbQ0BIXShbQ0gyXTQpQyg9TylbQ0gyXUM9NS9bQ0hdPVtDSF0vW0NIXT1bQ0hdL1tDSF0oW0NIM10pW0NIM10=

>  <s_epik_cmdline>  (264) 
J2VwaWtfcHl0aG9uJywgJy1waHQnLCAnMi4wJywgJy1waCcsICc3LjAnLCAnLXRuJywgJzgnLCAnLW1hJywgJzIwMCcsICctaW1hZScsICc8aW5maWxlLm1hZT4nLCAnLW9tYWUnLCAnPG91dGZpbGUubWFlPic=

>  <r_lp_tautomer_probability>  (264) 
1

>  <r_epik_Ionization_Penalty>  (264) 
4.49328e-05

>  <r_epik_Ionization_Penalty_Charging>  (264) 
0

>  <r_epik_Ionization_Penalty_Neutral>  (264) 
4.49328e-05

>  <r_epik_State_Penalty>  (264) 
-0

>  <r_epik_Charging_Adjusted_Penalty>  (264) 
0

>  <i_epik_Tot_Q>  (264) 
0

>  <i_epik_Tot_abs_Q>  (264) 
0

>  <s_lp_Force_Field>  (264) 
OPLS3e

>  <r_lp_Energy>  (264) 
50.3219

>  <b_lp_Chiralities_Consistent>  (264) 
1

>  <s_lp_Variant>  (264) 
67:0-3

>  <s_i_glide_gridfile>  (264) 
pfpi4k_grid

>  <i_i_glide_lignum>  (264) 
13

>  <i_i_glide_rotatable_bonds>  (264) 
4

>  <r_i_docking_score>  (264) 
-2.09045

>  <r_i_glide_ligand_efficiency>  (264) 
-0.0653266

>  <r_i_glide_ligand_efficiency_sa>  (264) 
-0.207399

>  <r_i_glide_ligand_efficiency_ln>  (264) 
-0.468109

>  <r_i_glide_gscore>  (264) 
-2.09045

>  <r_i_glide_lipo>  (264) 
-0.146921

>  <r_i_glide_hbond>  (264) 
0

>  <r_i_glide_metal>  (264) 
-0

>  <r_i_glide_rewards>  (264) 
-0.405193

>  <r_i_glide_evdw>  (264) 
-21.6072

>  <r_i_glide_ecoul>  (264) 
-4.64821

>  <r_i_glide_erotb>  (264) 
0.308615

>  <r_i_glide_esite>  (264) 
-0.0693627

>  <r_i_glide_emodel>  (264) 
-25.1993

>  <r_i_glide_energy>  (264) 
-26.2554

>  <r_i_glide_einternal>  (264) 
6.15043

>  <r_i_glide_intrahb_reward>  (264) 
-0

>  <i_i_glide_confnum>  (264) 
2

>  <i_i_glide_posenum>  (264) 
14

>  <r_i_glide_eff_state_penalty>  (264) 
0

>  <ligand_id>  (264) 
67

>  <original_smiles>  (264) 
CC1=C2CC3(O)OC4(C)OC(C)(C)OC(C2CC2C(=O)CC(C=CC=CC(C)C)=C12)C34C

>  <smiles>  (264) 
[H]OC12OC3(C([H])([H])[H])OC(C([H])([H])[H])(C([H])([H])[H])OC([H])(C4([H])C(=C(C([H])([H])[H])C5=C(C([H])=C([H])C([H])=C([H])C([H])(C([H])([H])[H])C([H])([H])[H])C([H])([H])C(=O)C5([H])C4([H])[H])C1([H])[H])C32C([H])([H])[H]

$$$$
67:2:2
     RDKit          3D

 68 72  0  0  1  0  0  0  0  0999 V2000
    0.3537   -3.3471    5.3612 C   0  0  0  0  0  0  0  0  0  0  0  0
    1.4697   -4.3327    5.7702 C   0  0  0  0  0  0  0  0  0  0  0  0
    1.2745   -5.6934    5.6553 C   0  0  0  0  0  0  0  0  0  0  0  0
   -0.0766   -6.2718    5.1433 C   0  0  0  0  0  0  0  0  0  0  0  0
    0.2783   -7.1436    3.9622 C   0  0  2  0  0  0  0  0  0  0  0  0
    0.8298   -6.2072    3.0400 O   0  0  0  0  0  0  0  0  0  0  0  0
   -0.4960   -8.1129    3.2244 O   0  0  0  0  0  0  0  0  0  0  0  0
    0.7284   -8.9434    3.1492 C   0  0  1  0  0  0  0  0  0  0  0  0
    0.3859  -10.4154    2.9642 C   0  0  0  0  0  0  0  0  0  0  0  0
    1.6829   -8.5402    2.1517 O   0  0  0  0  0  0  0  0  0  0  0  0
    3.0323   -8.3768    2.5637 C   0  0  0  0  0  0  0  0  0  0  0  0
    3.7047   -9.7340    2.8996 C   0  0  0  0  0  0  0  0  0  0  0  0
    3.7303   -7.7101    1.3744 C   0  0  0  0  0  0  0  0  0  0  0  0
    3.1693   -7.4818    3.6493 O   0  0  0  0  0  0  0  0  0  0  0  0
    2.5036   -7.8920    4.8493 C   0  0  1  0  0  0  0  0  0  0  0  0
    2.4190   -6.7413    5.9049 C   0  0  1  0  0  0  0  0  0  0  0  0
    3.7998   -6.1274    6.2609 C   0  0  0  0  0  0  0  0  0  0  0  0
    4.0005   -4.7341    5.6409 C   0  0  2  0  0  0  0  0  0  0  0  0
    5.1865   -3.9850    6.2175 C   0  0  0  0  0  0  0  0  0  0  0  0
    6.3258   -4.4375    6.2982 O   0  0  0  0  0  0  0  0  0  0  0  0
    4.7990   -2.5882    6.6485 C   0  0  0  0  0  0  0  0  0  0  0  0
    3.2769   -2.6723    6.6158 C   0  0  0  0  0  0  0  0  0  0  0  0
    2.4692   -1.6146    7.2405 C   0  0  0  0  0  0  0  0  0  0  0  0
    1.5793   -0.8342    6.5898 C   0  0  0  0  0  0  0  0  0  0  0  0
    0.7140    0.1216    7.2814 C   0  0  0  0  0  0  0  0  0  0  0  0
   -0.3953    0.6842    6.7318 C   0  0  0  0  0  0  0  0  0  0  0  0
   -1.0202    0.4296    5.3484 C   0  0  0  0  0  0  0  0  0  0  0  0
   -1.5127    1.7467    4.7162 C   0  0  0  0  0  0  0  0  0  0  0  0
   -2.1785   -0.5873    5.4266 C   0  0  0  0  0  0  0  0  0  0  0  0
    2.8413   -3.8430    6.0520 C   0  0  0  0  0  0  0  0  0  0  0  0
    1.0916   -8.3366    4.5024 C   0  0  1  0  0  0  0  0  0  0  0  0
    0.5050   -9.1604    5.6718 C   0  0  0  0  0  0  0  0  0  0  0  0
    0.7776   -2.4537    4.9954 H   0  0  0  0  0  0  0  0  0  0  0  0
   -0.3582   -3.2549    6.2115 H   0  0  0  0  0  0  0  0  0  0  0  0
   -0.1804   -3.7401    4.4739 H   0  0  0  0  0  0  0  0  0  0  0  0
   -0.5358   -6.8153    5.9482 H   0  0  0  0  0  0  0  0  0  0  0  0
   -0.8301   -5.5523    4.8715 H   0  0  0  0  0  0  0  0  0  0  0  0
    1.3543   -6.7121    2.4278 H   0  0  0  0  0  0  0  0  0  0  0  0
    0.2386  -10.6511    1.9179 H   0  0  0  0  0  0  0  0  0  0  0  0
   -0.5285  -10.6543    3.4934 H   0  0  0  0  0  0  0  0  0  0  0  0
    1.1724  -11.0628    3.3333 H   0  0  0  0  0  0  0  0  0  0  0  0
    3.2173  -10.2304    3.7307 H   0  0  0  0  0  0  0  0  0  0  0  0
    4.7473   -9.5732    3.1739 H   0  0  0  0  0  0  0  0  0  0  0  0
    3.6660  -10.4034    2.0440 H   0  0  0  0  0  0  0  0  0  0  0  0
    3.2340   -6.7668    1.1381 H   0  0  0  0  0  0  0  0  0  0  0  0
    3.6859   -8.3548    0.4953 H   0  0  0  0  0  0  0  0  0  0  0  0
    4.7768   -7.5057    1.6024 H   0  0  0  0  0  0  0  0  0  0  0  0
    3.0790   -8.6913    5.3098 H   0  0  0  0  0  0  0  0  0  0  0  0
    2.0871   -7.1952    6.8333 H   0  0  0  0  0  0  0  0  0  0  0  0
    3.8694   -6.0367    7.3521 H   0  0  0  0  0  0  0  0  0  0  0  0
    4.6015   -6.8070    5.9639 H   0  0  0  0  0  0  0  0  0  0  0  0
    4.0886   -4.7982    4.5519 H   0  0  0  0  0  0  0  0  0  0  0  0
    5.2149   -2.3512    7.6372 H   0  0  0  0  0  0  0  0  0  0  0  0
    5.1635   -1.8626    5.9135 H   0  0  0  0  0  0  0  0  0  0  0  0
    2.5910   -1.5090    8.3293 H   0  0  0  0  0  0  0  0  0  0  0  0
    1.4976   -0.8950    5.5282 H   0  0  0  0  0  0  0  0  0  0  0  0
    0.9344    0.4124    8.3268 H   0  0  0  0  0  0  0  0  0  0  0  0
   -0.9488    1.4073    7.3281 H   0  0  0  0  0  0  0  0  0  0  0  0
   -0.2735    0.0132    4.6688 H   0  0  0  0  0  0  0  0  0  0  0  0
   -0.6891    2.4478    4.5830 H   0  0  0  0  0  0  0  0  0  0  0  0
   -2.2674    2.2378    5.3315 H   0  0  0  0  0  0  0  0  0  0  0  0
   -1.9576    1.5843    3.7319 H   0  0  0  0  0  0  0  0  0  0  0  0
   -1.8304   -1.5508    5.7946 H   0  0  0  0  0  0  0  0  0  0  0  0
   -2.6165   -0.7654    4.4433 H   0  0  0  0  0  0  0  0  0  0  0  0
   -2.9795   -0.2419    6.0794 H   0  0  0  0  0  0  0  0  0  0  0  0
    1.0074  -10.1137    5.7881 H   0  0  0  0  0  0  0  0  0  0  0  0
   -0.5382   -9.3839    5.5001 H   0  0  0  0  0  0  0  0  0  0  0  0
    0.5429   -8.6613    6.6282 H   0  0  0  0  0  0  0  0  0  0  0  0
  1  2  1  0
  1 33  1  0
  1 34  1  0
  1 35  1  0
  2 30  1  0
  2  3  2  0
  3 16  1  0
  3  4  1  0
  4  5  1  0
  4 36  1  0
  4 37  1  0
  5 31  1  0
  5  6  1  6
  5  7  1  0
  6 38  1  0
  7  8  1  0
  8 31  1  0
  8  9  1  1
  8 10  1  0
  9 39  1  0
  9 40  1  0
  9 41  1  0
 10 11  1  0
 11 12  1  0
 11 13  1  0
 11 14  1  0
 12 42  1  0
 12 43  1  0
 12 44  1  0
 13 45  1  0
 13 46  1  0
 13 47  1  0
 14 15  1  0
 15 16  1  0
 15 31  1  0
 15 48  1  1
 16 17  1  0
 16 49  1  1
 17 18  1  0
 17 50  1  0
 17 51  1  0
 18 30  1  0
 18 19  1  0
 18 52  1  6
 19 20  2  0
 19 21  1  0
 21 22  1  0
 21 53  1  0
 21 54  1  0
 22 23  1  0
 22 30  2  0
 23 24  2  3
 23 55  1  0
 24 25  1  0
 24 56  1  0
 25 26  2  3
 25 57  1  0
 26 27  1  0
 26 58  1  0
 27 28  1  0
 27 29  1  0
 27 59  1  0
 28 60  1  0
 28 61  1  0
 28 62  1  0
 29 63  1  0
 29 64  1  0
 29 65  1  0
 31 32  1  1
 32 66  1  0
 32 67  1  0
 32 68  1  0
M  END
>  <i_m_ct_stereo_status>  (265) 
1

>  <s_m_source_file>  (265) 
/var/tmp/pbs.5076255.sched01/tmpegbcst3k/90u3quomt0.sdf

>  <i_m_source_file_index>  (265) 
13

>  <i_lp_mmshare_version>  (265) 
48012

>  <i_f3d_flags>  (265) 
0

>  <s_epik_input>  (265) 
W09IXVtDQEBdMTJbQ0BAXTMoW0NIM10pW0NAXShPMikoW0NIM10pT0MoW0NIM10pKFtDSDNdKU9bQ0BIXTNbQ0BASF00QyhbQ0gyXTEpPUMoW0NIM10pQzVbQ0BIXShbQ0gyXTQpQyg9TylbQ0gyXUM9NS9bQ0hdPVtDSF0vW0NIXT1bQ0hdL1tDSF0oW0NIM10pW0NIM10=

>  <s_epik_cmdline>  (265) 
J2VwaWtfcHl0aG9uJywgJy1waHQnLCAnMi4wJywgJy1waCcsICc3LjAnLCAnLXRuJywgJzgnLCAnLW1hJywgJzIwMCcsICctaW1hZScsICc8aW5maWxlLm1hZT4nLCAnLW9tYWUnLCAnPG91dGZpbGUubWFlPic=

>  <r_lp_tautomer_probability>  (265) 
1

>  <r_epik_Ionization_Penalty>  (265) 
4.49328e-05

>  <r_epik_Ionization_Penalty_Charging>  (265) 
0

>  <r_epik_Ionization_Penalty_Neutral>  (265) 
4.49328e-05

>  <r_epik_State_Penalty>  (265) 
-0

>  <r_epik_Charging_Adjusted_Penalty>  (265) 
0

>  <i_epik_Tot_Q>  (265) 
0

>  <i_epik_Tot_abs_Q>  (265) 
0

>  <s_lp_Force_Field>  (265) 
OPLS3e

>  <r_lp_Energy>  (265) 
50.3219

>  <b_lp_Chiralities_Consistent>  (265) 
1

>  <s_lp_Variant>  (265) 
67:0-3

>  <s_i_glide_gridfile>  (265) 
pfpi4k_grid

>  <i_i_glide_lignum>  (265) 
13

>  <i_i_glide_rotatable_bonds>  (265) 
4

>  <r_i_docking_score>  (265) 
-1.94985

>  <r_i_glide_ligand_efficiency>  (265) 
-0.0609328

>  <r_i_glide_ligand_efficiency_sa>  (265) 
-0.19345

>  <r_i_glide_ligand_efficiency_ln>  (265) 
-0.436624

>  <r_i_glide_gscore>  (265) 
-1.94985

>  <r_i_glide_lipo>  (265) 
-0.09912

>  <r_i_glide_hbond>  (265) 
0

>  <r_i_glide_metal>  (265) 
-0

>  <r_i_glide_rewards>  (265) 
-0.907543

>  <r_i_glide_evdw>  (265) 
-19.6387

>  <r_i_glide_ecoul>  (265) 
-1.41608

>  <r_i_glide_erotb>  (265) 
0.308615

>  <r_i_glide_esite>  (265) 
-0.0574553

>  <r_i_glide_emodel>  (265) 
-24.4826

>  <r_i_glide_energy>  (265) 
-21.0548

>  <r_i_glide_einternal>  (265) 
6.56666

>  <r_i_glide_intrahb_reward>  (265) 
-0.5

>  <i_i_glide_confnum>  (265) 
2

>  <i_i_glide_posenum>  (265) 
26

>  <r_i_glide_eff_state_penalty>  (265) 
0

>  <ligand_id>  (265) 
67

>  <original_smiles>  (265) 
CC1=C2CC3(O)OC4(C)OC(C)(C)OC(C2CC2C(=O)CC(C=CC=CC(C)C)=C12)C34C

>  <smiles>  (265) 
[H]OC12OC3(C([H])([H])[H])OC(C([H])([H])[H])(C([H])([H])[H])OC([H])(C4([H])C(=C(C([H])([H])[H])C5=C(C([H])=C([H])C([H])=C([H])C([H])(C([H])([H])[H])C([H])([H])[H])C([H])([H])C(=O)C5([H])C4([H])[H])C1([H])[H])C32C([H])([H])[H]

$$$$
67:3:0
     RDKit          3D

 68 72  0  0  1  0  0  0  0  0999 V2000
    0.0419   -0.2279    2.8879 C   0  0  0  0  0  0  0  0  0  0  0  0
    0.9249    0.6584    3.7648 C   0  0  0  0  0  0  0  0  0  0  0  0
    0.3717    1.5124    4.6632 C   0  0  0  0  0  0  0  0  0  0  0  0
   -1.1657    1.6624    4.8669 C   0  0  0  0  0  0  0  0  0  0  0  0
   -1.4088    1.3777    6.3486 C   0  0  2  0  0  0  0  0  0  0  0  0
   -1.0042    0.0107    6.4680 O   0  0  0  0  0  0  0  0  0  0  0  0
   -2.5690    1.5748    7.1976 O   0  0  0  0  0  0  0  0  0  0  0  0
   -1.6452    2.0013    8.2742 C   0  0  1  0  0  0  0  0  0  0  0  0
   -2.3539    2.8957    9.2899 C   0  0  0  0  0  0  0  0  0  0  0  0
   -0.9864    0.9440    8.9818 O   0  0  0  0  0  0  0  0  0  0  0  0
    0.4202    1.0006    9.1019 C   0  0  0  0  0  0  0  0  0  0  0  0
    0.8464    2.1166   10.0943 C   0  0  0  0  0  0  0  0  0  0  0  0
    0.8374   -0.3789    9.6281 C   0  0  0  0  0  0  0  0  0  0  0  0
    1.0776    1.1615    7.8608 O   0  0  0  0  0  0  0  0  0  0  0  0
    0.7548    2.3630    7.1479 C   0  0  1  0  0  0  0  0  0  0  0  0
    1.2527    2.3424    5.6606 C   0  0  1  0  0  0  0  0  0  0  0  0
    2.7840    2.1127    5.5542 C   0  0  0  0  0  0  0  0  0  0  0  0
    3.1218    0.7060    5.0927 C   0  0  2  0  0  0  0  0  0  0  0  0
    4.5653    0.5341    4.6502 C   0  0  0  0  0  0  0  0  0  0  0  0
    5.5461    0.8964    5.2844 O   0  0  0  0  0  0  0  0  0  0  0  0
    4.6487   -0.1655    3.3273 C   0  0  0  0  0  0  0  0  0  0  0  0
    3.2138    0.0042    2.8466 C   0  0  0  0  0  0  0  0  0  0  0  0
    2.8380   -0.1816    1.4451 C   0  0  0  0  0  0  0  0  0  0  0  0
    3.5190   -0.7069    0.4319 C   0  0  0  0  0  0  0  0  0  0  0  0
    4.8665   -1.2872    0.3958 C   0  0  0  0  0  0  0  0  0  0  0  0
    5.4880   -1.8628   -0.6601 C   0  0  0  0  0  0  0  0  0  0  0  0
    4.9938   -2.0769   -2.1043 C   0  0  0  0  0  0  0  0  0  0  0  0
    3.4658   -2.0068   -2.2985 C   0  0  0  0  0  0  0  0  0  0  0  0
    5.5180   -3.4081   -2.6872 C   0  0  0  0  0  0  0  0  0  0  0  0
    2.3829    0.4444    3.8157 C   0  0  0  0  0  0  0  0  0  0  0  0
   -0.7568    2.5268    7.1559 C   0  0  1  0  0  0  0  0  0  0  0  0
   -1.1227    3.9950    6.7944 C   0  0  0  0  0  0  0  0  0  0  0  0
    0.5814   -1.0789    2.4701 H   0  0  0  0  0  0  0  0  0  0  0  0
   -0.3898    0.3527    2.0696 H   0  0  0  0  0  0  0  0  0  0  0  0
   -0.7667   -0.6604    3.4749 H   0  0  0  0  0  0  0  0  0  0  0  0
   -1.4575    2.6701    4.5964 H   0  0  0  0  0  0  0  0  0  0  0  0
   -1.7791    1.0292    4.2406 H   0  0  0  0  0  0  0  0  0  0  0  0
   -0.1322   -0.0450    6.1005 H   0  0  0  0  0  0  0  0  0  0  0  0
   -2.8636    2.3006   10.0404 H   0  0  0  0  0  0  0  0  0  0  0  0
   -3.0878    3.5336    8.8127 H   0  0  0  0  0  0  0  0  0  0  0  0
   -1.6491    3.5319    9.8120 H   0  0  0  0  0  0  0  0  0  0  0  0
    0.5426    3.0974    9.7447 H   0  0  0  0  0  0  0  0  0  0  0  0
    1.9283    2.1217   10.2076 H   0  0  0  0  0  0  0  0  0  0  0  0
    0.3882    1.9528   11.0670 H   0  0  0  0  0  0  0  0  0  0  0  0
    0.5245   -1.1487    8.9189 H   0  0  0  0  0  0  0  0  0  0  0  0
    0.3618   -0.5826   10.5884 H   0  0  0  0  0  0  0  0  0  0  0  0
    1.9194   -0.4357    9.7474 H   0  0  0  0  0  0  0  0  0  0  0  0
    1.2482    3.1929    7.6579 H   0  0  0  0  0  0  0  0  0  0  0  0
    1.1334    3.3628    5.3058 H   0  0  0  0  0  0  0  0  0  0  0  0
    3.2004    2.8315    4.8393 H   0  0  0  0  0  0  0  0  0  0  0  0
    3.2827    2.3100    6.5046 H   0  0  0  0  0  0  0  0  0  0  0  0
    2.8680   -0.0567    5.8183 H   0  0  0  0  0  0  0  0  0  0  0  0
    5.3833    0.3001    2.6675 H   0  0  0  0  0  0  0  0  0  0  0  0
    4.8708   -1.2269    3.4612 H   0  0  0  0  0  0  0  0  0  0  0  0
    1.8759    0.1664    1.1416 H   0  0  0  0  0  0  0  0  0  0  0  0
    2.9282   -0.6743   -0.4055 H   0  0  0  0  0  0  0  0  0  0  0  0
    5.4930   -1.2892    1.3040 H   0  0  0  0  0  0  0  0  0  0  0  0
    6.5023   -2.2406   -0.4936 H   0  0  0  0  0  0  0  0  0  0  0  0
    5.4242   -1.2737   -2.7102 H   0  0  0  0  0  0  0  0  0  0  0  0
    3.1415   -0.9950   -2.1954 H   0  0  0  0  0  0  0  0  0  0  0  0
    2.9702   -2.6831   -1.5923 H   0  0  0  0  0  0  0  0  0  0  0  0
    3.1480   -2.2450   -3.3116 H   0  0  0  0  0  0  0  0  0  0  0  0
    6.6113   -3.4420   -2.7049 H   0  0  0  0  0  0  0  0  0  0  0  0
    5.1684   -3.5321   -3.7126 H   0  0  0  0  0  0  0  0  0  0  0  0
    5.1529   -4.2585   -2.1092 H   0  0  0  0  0  0  0  0  0  0  0  0
   -0.8351    4.6913    7.5765 H   0  0  0  0  0  0  0  0  0  0  0  0
   -2.1932    4.1093    6.6625 H   0  0  0  0  0  0  0  0  0  0  0  0
   -0.6779    4.3547    5.8758 H   0  0  0  0  0  0  0  0  0  0  0  0
  1  2  1  0
  1 33  1  0
  1 34  1  0
  1 35  1  0
  2 30  1  0
  2  3  2  0
  3 16  1  0
  3  4  1  0
  4  5  1  0
  4 36  1  0
  4 37  1  0
  5 31  1  0
  5  6  1  1
  5  7  1  0
  6 38  1  0
  7  8  1  0
  8 31  1  0
  8  9  1  1
  8 10  1  0
  9 39  1  0
  9 40  1  0
  9 41  1  0
 10 11  1  0
 11 12  1  0
 11 13  1  0
 11 14  1  0
 12 42  1  0
 12 43  1  0
 12 44  1  0
 13 45  1  0
 13 46  1  0
 13 47  1  0
 14 15  1  0
 15 16  1  0
 15 31  1  0
 15 48  1  1
 16 17  1  0
 16 49  1  6
 17 18  1  0
 17 50  1  0
 17 51  1  0
 18 30  1  0
 18 19  1  0
 18 52  1  1
 19 20  2  0
 19 21  1  0
 21 22  1  0
 21 53  1  0
 21 54  1  0
 22 23  1  0
 22 30  2  0
 23 24  2  3
 23 55  1  0
 24 25  1  0
 24 56  1  0
 25 26  2  3
 25 57  1  0
 26 27  1  0
 26 58  1  0
 27 28  1  0
 27 29  1  0
 27 59  1  0
 28 60  1  0
 28 61  1  0
 28 62  1  0
 29 63  1  0
 29 64  1  0
 29 65  1  0
 31 32  1  6
 32 66  1  0
 32 67  1  0
 32 68  1  0
M  END
>  <i_m_ct_stereo_status>  (266) 
1

>  <s_m_source_file>  (266) 
/var/tmp/pbs.5076255.sched01/tmpegbcst3k/90u3quomt0.sdf

>  <i_m_source_file_index>  (266) 
14

>  <i_lp_mmshare_version>  (266) 
48012

>  <i_f3d_flags>  (266) 
0

>  <s_epik_input>  (266) 
W09IXVtDQEBdMTJbQ0BAXTMoW0NIM10pW0NAXShPMikoW0NIM10pT0MoW0NIM10pKFtDSDNdKU9bQ0BIXTNbQ0BASF00QyhbQ0gyXTEpPUMoW0NIM10pQzVbQ0BIXShbQ0gyXTQpQyg9TylbQ0gyXUM9NS9bQ0hdPVtDSF0vW0NIXT1bQ0hdL1tDSF0oW0NIM10pW0NIM10=

>  <s_epik_cmdline>  (266) 
J2VwaWtfcHl0aG9uJywgJy1waHQnLCAnMi4wJywgJy1waCcsICc3LjAnLCAnLXRuJywgJzgnLCAnLW1hJywgJzIwMCcsICctaW1hZScsICc8aW5maWxlLm1hZT4nLCAnLW9tYWUnLCAnPG91dGZpbGUubWFlPic=

>  <r_lp_tautomer_probability>  (266) 
1

>  <r_epik_Ionization_Penalty>  (266) 
4.49328e-05

>  <r_epik_Ionization_Penalty_Charging>  (266) 
0

>  <r_epik_Ionization_Penalty_Neutral>  (266) 
4.49328e-05

>  <r_epik_State_Penalty>  (266) 
-0

>  <r_epik_Charging_Adjusted_Penalty>  (266) 
0

>  <i_epik_Tot_Q>  (266) 
0

>  <i_epik_Tot_abs_Q>  (266) 
0

>  <s_lp_Force_Field>  (266) 
OPLS3e

>  <r_lp_Energy>  (266) 
51.2221

>  <b_lp_Chiralities_Consistent>  (266) 
1

>  <s_lp_Variant>  (266) 
67:0-4

>  <s_i_glide_gridfile>  (266) 
pfpi4k_grid

>  <i_i_glide_lignum>  (266) 
14

>  <i_i_glide_rotatable_bonds>  (266) 
4

>  <r_i_docking_score>  (266) 
-2.71126

>  <r_i_glide_ligand_efficiency>  (266) 
-0.0847268

>  <r_i_glide_ligand_efficiency_sa>  (266) 
-0.268991

>  <r_i_glide_ligand_efficiency_ln>  (266) 
-0.607125

>  <r_i_glide_gscore>  (266) 
-2.71126

>  <r_i_glide_lipo>  (266) 
-0.365611

>  <r_i_glide_hbond>  (266) 
-0.0675202

>  <r_i_glide_metal>  (266) 
-0

>  <r_i_glide_rewards>  (266) 
-0.464035

>  <r_i_glide_evdw>  (266) 
-23.4562

>  <r_i_glide_ecoul>  (266) 
-5.78887

>  <r_i_glide_erotb>  (266) 
0.308615

>  <r_i_glide_esite>  (266) 
-0.0815639

>  <r_i_glide_emodel>  (266) 
-32.7374

>  <r_i_glide_energy>  (266) 
-29.2451

>  <r_i_glide_einternal>  (266) 
2.01155

>  <r_i_glide_intrahb_reward>  (266) 
-0

>  <i_i_glide_confnum>  (266) 
1

>  <i_i_glide_posenum>  (266) 
9

>  <r_i_glide_eff_state_penalty>  (266) 
0

>  <ligand_id>  (266) 
67

>  <original_smiles>  (266) 
CC1=C2CC3(O)OC4(C)OC(C)(C)OC(C2CC2C(=O)CC(C=CC=CC(C)C)=C12)C34C

>  <smiles>  (266) 
[H]OC12OC3(C([H])([H])[H])OC(C([H])([H])[H])(C([H])([H])[H])OC([H])(C4([H])C(=C(C([H])([H])[H])C5=C(C([H])=C([H])C([H])=C([H])C([H])(C([H])([H])[H])C([H])([H])[H])C([H])([H])C(=O)C5([H])C4([H])[H])C1([H])[H])C32C([H])([H])[H]

$$$$
67:3:1
     RDKit          3D

 68 72  0  0  1  0  0  0  0  0999 V2000
    3.7735    0.7414    4.2929 C   0  0  0  0  0  0  0  0  0  0  0  0
    2.9848   -0.4217    3.7300 C   0  0  0  0  0  0  0  0  0  0  0  0
    3.2453   -0.9077    2.4722 C   0  0  0  0  0  0  0  0  0  0  0  0
    4.3400   -0.2965    1.5386 C   0  0  0  0  0  0  0  0  0  0  0  0
    5.2588   -1.4623    1.1615 C   0  0  2  0  0  0  0  0  0  0  0  0
    5.7903   -1.8092    2.4575 O   0  0  0  0  0  0  0  0  0  0  0  0
    6.3129   -1.5443    0.1879 O   0  0  0  0  0  0  0  0  0  0  0  0
    5.8568   -2.9368   -0.0365 C   0  0  1  0  0  0  0  0  0  0  0  0
    6.2718   -3.4032   -1.4378 C   0  0  0  0  0  0  0  0  0  0  0  0
    6.2785   -3.9250    0.9346 O   0  0  0  0  0  0  0  0  0  0  0  0
    5.2966   -4.7498    1.5085 C   0  0  0  0  0  0  0  0  0  0  0  0
    4.7679   -5.7972    0.4921 C   0  0  0  0  0  0  0  0  0  0  0  0
    5.9916   -5.4745    2.6754 C   0  0  0  0  0  0  0  0  0  0  0  0
    4.2141   -4.0442    2.0580 O   0  0  0  0  0  0  0  0  0  0  0  0
    3.4721   -3.2175    1.1592 C   0  0  1  0  0  0  0  0  0  0  0  0
    2.5457   -2.1850    1.8972 C   0  0  1  0  0  0  0  0  0  0  0  0
    1.5655   -2.8894    2.8624 C   0  0  0  0  0  0  0  0  0  0  0  0
    1.9434   -2.6799    4.3170 C   0  0  2  0  0  0  0  0  0  0  0  0
    0.8392   -3.0339    5.2894 C   0  0  0  0  0  0  0  0  0  0  0  0
    0.1825   -4.0813    5.2543 O   0  0  0  0  0  0  0  0  0  0  0  0
    0.6119   -1.9473    6.3170 C   0  0  0  0  0  0  0  0  0  0  0  0
    1.3640   -0.7975    5.6662 C   0  0  0  0  0  0  0  0  0  0  0  0
    1.1632    0.5994    6.0653 C   0  0  0  0  0  0  0  0  0  0  0  0
    0.6097    1.1039    7.1986 C   0  0  0  0  0  0  0  0  0  0  0  0
    0.0923    0.3986    8.3615 C   0  0  0  0  0  0  0  0  0  0  0  0
   -0.5289    0.9497    9.4168 C   0  0  0  0  0  0  0  0  0  0  0  0
   -0.8559    2.4231    9.6646 C   0  0  0  0  0  0  0  0  0  0  0  0
   -0.1784    2.9046   10.9592 C   0  0  0  0  0  0  0  0  0  0  0  0
   -2.3735    2.6478    9.7240 C   0  0  0  0  0  0  0  0  0  0  0  0
    2.0829   -1.2039    4.5974 C   0  0  0  0  0  0  0  0  0  0  0  0
    4.4766   -2.4600    0.3130 C   0  0  1  0  0  0  0  0  0  0  0  0
    3.7627   -1.9180   -0.9470 C   0  0  0  0  0  0  0  0  0  0  0  0
    3.6976    0.7992    5.3770 H   0  0  0  0  0  0  0  0  0  0  0  0
    3.4295    1.6856    3.8638 H   0  0  0  0  0  0  0  0  0  0  0  0
    4.8378    0.6336    4.0943 H   0  0  0  0  0  0  0  0  0  0  0  0
    3.8492    0.1351    0.6674 H   0  0  0  0  0  0  0  0  0  0  0  0
    4.8951    0.5270    1.9807 H   0  0  0  0  0  0  0  0  0  0  0  0
    6.2920   -2.5903    2.3130 H   0  0  0  0  0  0  0  0  0  0  0  0
    7.3154   -3.7082   -1.4269 H   0  0  0  0  0  0  0  0  0  0  0  0
    6.1985   -2.6142   -2.1840 H   0  0  0  0  0  0  0  0  0  0  0  0
    5.6518   -4.2360   -1.7841 H   0  0  0  0  0  0  0  0  0  0  0  0
    4.2724   -5.3174   -0.3563 H   0  0  0  0  0  0  0  0  0  0  0  0
    4.0415   -6.4421    0.9749 H   0  0  0  0  0  0  0  0  0  0  0  0
    5.5863   -6.4013    0.1124 H   0  0  0  0  0  0  0  0  0  0  0  0
    6.3593   -4.7376    3.3906 H   0  0  0  0  0  0  0  0  0  0  0  0
    6.8327   -6.0562    2.3086 H   0  0  0  0  0  0  0  0  0  0  0  0
    5.2942   -6.1356    3.1902 H   0  0  0  0  0  0  0  0  0  0  0  0
    2.8448   -3.8570    0.5421 H   0  0  0  0  0  0  0  0  0  0  0  0
    1.9057   -1.7776    1.1189 H   0  0  0  0  0  0  0  0  0  0  0  0
    0.5838   -2.4487    2.7067 H   0  0  0  0  0  0  0  0  0  0  0  0
    1.4637   -3.9469    2.6240 H   0  0  0  0  0  0  0  0  0  0  0  0
    2.8599   -3.2053    4.5757 H   0  0  0  0  0  0  0  0  0  0  0  0
   -0.4334   -1.7441    6.4815 H   0  0  0  0  0  0  0  0  0  0  0  0
    1.0935   -2.2426    7.2493 H   0  0  0  0  0  0  0  0  0  0  0  0
    1.4721    1.3420    5.3502 H   0  0  0  0  0  0  0  0  0  0  0  0
    0.5711    2.1819    7.2132 H   0  0  0  0  0  0  0  0  0  0  0  0
    0.2224   -0.6726    8.4149 H   0  0  0  0  0  0  0  0  0  0  0  0
   -0.8470    0.2967   10.2138 H   0  0  0  0  0  0  0  0  0  0  0  0
   -0.4693    3.0287    8.8562 H   0  0  0  0  0  0  0  0  0  0  0  0
    0.9062    2.8008   10.8993 H   0  0  0  0  0  0  0  0  0  0  0  0
   -0.5214    2.3491   11.8327 H   0  0  0  0  0  0  0  0  0  0  0  0
   -0.3959    3.9590   11.1367 H   0  0  0  0  0  0  0  0  0  0  0  0
   -2.8517    2.3562    8.7918 H   0  0  0  0  0  0  0  0  0  0  0  0
   -2.5978    3.7058    9.8912 H   0  0  0  0  0  0  0  0  0  0  0  0
   -2.8420    2.1017   10.5409 H   0  0  0  0  0  0  0  0  0  0  0  0
    3.4597   -2.7289   -1.6200 H   0  0  0  0  0  0  0  0  0  0  0  0
    4.4213   -1.2457   -1.5130 H   0  0  0  0  0  0  0  0  0  0  0  0
    2.8922   -1.3241   -0.7172 H   0  0  0  0  0  0  0  0  0  0  0  0
  1  2  1  0
  1 33  1  0
  1 34  1  0
  1 35  1  0
  2 30  1  0
  2  3  2  0
  3 16  1  0
  3  4  1  0
  4  5  1  0
  4 36  1  0
  4 37  1  0
  5 31  1  0
  5  6  1  1
  5  7  1  0
  6 38  1  0
  7  8  1  0
  8 31  1  0
  8  9  1  6
  8 10  1  0
  9 39  1  0
  9 40  1  0
  9 41  1  0
 10 11  1  0
 11 12  1  0
 11 13  1  0
 11 14  1  0
 12 42  1  0
 12 43  1  0
 12 44  1  0
 13 45  1  0
 13 46  1  0
 13 47  1  0
 14 15  1  0
 15 16  1  0
 15 31  1  0
 15 48  1  6
 16 17  1  0
 16 49  1  6
 17 18  1  0
 17 50  1  0
 17 51  1  0
 18 30  1  0
 18 19  1  0
 18 52  1  1
 19 20  2  0
 19 21  1  0
 21 22  1  0
 21 53  1  0
 21 54  1  0
 22 23  1  0
 22 30  2  0
 23 24  2  3
 23 55  1  0
 24 25  1  0
 24 56  1  0
 25 26  2  3
 25 57  1  0
 26 27  1  0
 26 58  1  0
 27 28  1  0
 27 29  1  0
 27 59  1  0
 28 60  1  0
 28 61  1  0
 28 62  1  0
 29 63  1  0
 29 64  1  0
 29 65  1  0
 31 32  1  6
 32 66  1  0
 32 67  1  0
 32 68  1  0
M  END
>  <i_m_ct_stereo_status>  (267) 
1

>  <s_m_source_file>  (267) 
/var/tmp/pbs.5076255.sched01/tmpegbcst3k/90u3quomt0.sdf

>  <i_m_source_file_index>  (267) 
14

>  <i_lp_mmshare_version>  (267) 
48012

>  <i_f3d_flags>  (267) 
0

>  <s_epik_input>  (267) 
W09IXVtDQEBdMTJbQ0BAXTMoW0NIM10pW0NAXShPMikoW0NIM10pT0MoW0NIM10pKFtDSDNdKU9bQ0BIXTNbQ0BASF00QyhbQ0gyXTEpPUMoW0NIM10pQzVbQ0BIXShbQ0gyXTQpQyg9TylbQ0gyXUM9NS9bQ0hdPVtDSF0vW0NIXT1bQ0hdL1tDSF0oW0NIM10pW0NIM10=

>  <s_epik_cmdline>  (267) 
J2VwaWtfcHl0aG9uJywgJy1waHQnLCAnMi4wJywgJy1waCcsICc3LjAnLCAnLXRuJywgJzgnLCAnLW1hJywgJzIwMCcsICctaW1hZScsICc8aW5maWxlLm1hZT4nLCAnLW9tYWUnLCAnPG91dGZpbGUubWFlPic=

>  <r_lp_tautomer_probability>  (267) 
1

>  <r_epik_Ionization_Penalty>  (267) 
4.49328e-05

>  <r_epik_Ionization_Penalty_Charging>  (267) 
0

>  <r_epik_Ionization_Penalty_Neutral>  (267) 
4.49328e-05

>  <r_epik_State_Penalty>  (267) 
-0

>  <r_epik_Charging_Adjusted_Penalty>  (267) 
0

>  <i_epik_Tot_Q>  (267) 
0

>  <i_epik_Tot_abs_Q>  (267) 
0

>  <s_lp_Force_Field>  (267) 
OPLS3e

>  <r_lp_Energy>  (267) 
51.2221

>  <b_lp_Chiralities_Consistent>  (267) 
1

>  <s_lp_Variant>  (267) 
67:0-4

>  <s_i_glide_gridfile>  (267) 
pfpi4k_grid

>  <i_i_glide_lignum>  (267) 
14

>  <i_i_glide_rotatable_bonds>  (267) 
4

>  <r_i_docking_score>  (267) 
-2.51194

>  <r_i_glide_ligand_efficiency>  (267) 
-0.078498

>  <r_i_glide_ligand_efficiency_sa>  (267) 
-0.249216

>  <r_i_glide_ligand_efficiency_ln>  (267) 
-0.562491

>  <r_i_glide_gscore>  (267) 
-2.51194

>  <r_i_glide_lipo>  (267) 
-0.398684

>  <r_i_glide_hbond>  (267) 
0

>  <r_i_glide_metal>  (267) 
-0

>  <r_i_glide_rewards>  (267) 
-1.14641

>  <r_i_glide_evdw>  (267) 
-20.0504

>  <r_i_glide_ecoul>  (267) 
-1.81078

>  <r_i_glide_erotb>  (267) 
0.308615

>  <r_i_glide_esite>  (267) 
-0.00131997

>  <r_i_glide_emodel>  (267) 
-31.6653

>  <r_i_glide_energy>  (267) 
-21.8612

>  <r_i_glide_einternal>  (267) 
0.288762

>  <r_i_glide_intrahb_reward>  (267) 
-0.5

>  <i_i_glide_confnum>  (267) 
5

>  <i_i_glide_posenum>  (267) 
23

>  <r_i_glide_eff_state_penalty>  (267) 
0

>  <ligand_id>  (267) 
67

>  <original_smiles>  (267) 
CC1=C2CC3(O)OC4(C)OC(C)(C)OC(C2CC2C(=O)CC(C=CC=CC(C)C)=C12)C34C

>  <smiles>  (267) 
[H]OC12OC3(C([H])([H])[H])OC(C([H])([H])[H])(C([H])([H])[H])OC([H])(C4([H])C(=C(C([H])([H])[H])C5=C(C([H])=C([H])C([H])=C([H])C([H])(C([H])([H])[H])C([H])([H])[H])C([H])([H])C(=O)C5([H])C4([H])[H])C1([H])[H])C32C([H])([H])[H]

$$$$
67:3:2
     RDKit          3D

 68 72  0  0  1  0  0  0  0  0999 V2000
    4.3416    0.6190    4.1529 C   0  0  0  0  0  0  0  0  0  0  0  0
    3.4412   -0.4460    3.5423 C   0  0  0  0  0  0  0  0  0  0  0  0
    3.6070   -0.8287    2.2395 C   0  0  0  0  0  0  0  0  0  0  0  0
    4.6893   -0.2108    1.2978 C   0  0  0  0  0  0  0  0  0  0  0  0
    5.5067   -1.3893    0.7847 C   0  0  2  0  0  0  0  0  0  0  0  0
    6.0699   -1.8775    1.9935 O   0  0  0  0  0  0  0  0  0  0  0  0
    6.5029   -1.4757   -0.2627 O   0  0  0  0  0  0  0  0  0  0  0  0
    5.9418   -2.8122   -0.5805 C   0  0  1  0  0  0  0  0  0  0  0  0
    6.2354   -3.1918   -2.0350 C   0  0  0  0  0  0  0  0  0  0  0  0
    6.3418   -3.8982    0.2691 O   0  0  0  0  0  0  0  0  0  0  0  0
    5.3342   -4.6997    0.8511 C   0  0  0  0  0  0  0  0  0  0  0  0
    4.6735   -5.6082   -0.2094 C   0  0  0  0  0  0  0  0  0  0  0  0
    6.0406   -5.5548    1.9113 C   0  0  0  0  0  0  0  0  0  0  0  0
    4.3443   -3.9560    1.5258 O   0  0  0  0  0  0  0  0  0  0  0  0
    3.6089   -3.0253    0.7320 C   0  0  1  0  0  0  0  0  0  0  0  0
    2.7885   -2.0036    1.5964 C   0  0  1  0  0  0  0  0  0  0  0  0
    1.8073   -2.7181    2.5485 C   0  0  0  0  0  0  0  0  0  0  0  0
    2.2712   -2.6629    4.0025 C   0  0  2  0  0  0  0  0  0  0  0  0
    1.1914   -3.0409    4.9963 C   0  0  0  0  0  0  0  0  0  0  0  0
    0.4612   -4.0228    4.9021 O   0  0  0  0  0  0  0  0  0  0  0  0
    1.1059   -2.0286    6.1102 C   0  0  0  0  0  0  0  0  0  0  0  0
    1.8744   -0.8620    5.5220 C   0  0  0  0  0  0  0  0  0  0  0  0
    1.7967    0.4998    6.0536 C   0  0  0  0  0  0  0  0  0  0  0  0
    1.2200    0.9586    7.1892 C   0  0  0  0  0  0  0  0  0  0  0  0
    0.5203    0.2158    8.2347 C   0  0  0  0  0  0  0  0  0  0  0  0
   -0.1170    0.7430    9.2933 C   0  0  0  0  0  0  0  0  0  0  0  0
   -0.2731    2.2077    9.6802 C   0  0  0  0  0  0  0  0  0  0  0  0
    0.3627    2.4668   11.0542 C   0  0  0  0  0  0  0  0  0  0  0  0
   -1.7496    2.6282    9.6667 C   0  0  0  0  0  0  0  0  0  0  0  0
    2.5322   -1.2282    4.3891 C   0  0  0  0  0  0  0  0  0  0  0  0
    4.6050   -2.2580   -0.1136 C   0  0  1  0  0  0  0  0  0  0  0  0
    3.8593   -1.5656   -1.2741 C   0  0  0  0  0  0  0  0  0  0  0  0
    4.3320    0.5839    5.2396 H   0  0  0  0  0  0  0  0  0  0  0  0
    4.0313    1.6127    3.8274 H   0  0  0  0  0  0  0  0  0  0  0  0
    5.3836    0.4669    3.8807 H   0  0  0  0  0  0  0  0  0  0  0  0
    4.1892    0.3218    0.4936 H   0  0  0  0  0  0  0  0  0  0  0  0
    5.3240    0.5336    1.7716 H   0  0  0  0  0  0  0  0  0  0  0  0
    5.3444   -2.1189    2.5530 H   0  0  0  0  0  0  0  0  0  0  0  0
    7.2325   -3.6265   -2.1241 H   0  0  0  0  0  0  0  0  0  0  0  0
    6.2003   -2.3323   -2.7027 H   0  0  0  0  0  0  0  0  0  0  0  0
    5.5214   -3.9265   -2.4117 H   0  0  0  0  0  0  0  0  0  0  0  0
    4.1924   -5.0251   -0.9893 H   0  0  0  0  0  0  0  0  0  0  0  0
    3.9235   -6.2478    0.2526 H   0  0  0  0  0  0  0  0  0  0  0  0
    5.4160   -6.2381   -0.6839 H   0  0  0  0  0  0  0  0  0  0  0  0
    6.5105   -4.9069    2.6515 H   0  0  0  0  0  0  0  0  0  0  0  0
    6.8140   -6.1627    1.4435 H   0  0  0  0  0  0  0  0  0  0  0  0
    5.3274   -6.2097    2.4113 H   0  0  0  0  0  0  0  0  0  0  0  0
    2.9069   -3.5737    0.1028 H   0  0  0  0  0  0  0  0  0  0  0  0
    2.1484   -1.4861    0.8894 H   0  0  0  0  0  0  0  0  0  0  0  0
    0.8384   -2.2237    2.4779 H   0  0  0  0  0  0  0  0  0  0  0  0
    1.6366   -3.7507    2.2409 H   0  0  0  0  0  0  0  0  0  0  0  0
    3.1609   -3.2726    4.1609 H   0  0  0  0  0  0  0  0  0  0  0  0
    0.0684   -1.7943    6.3434 H   0  0  0  0  0  0  0  0  0  0  0  0
    1.6081   -2.4169    6.9992 H   0  0  0  0  0  0  0  0  0  0  0  0
    2.2366    1.2752    5.4517 H   0  0  0  0  0  0  0  0  0  0  0  0
    1.3082    2.0251    7.3165 H   0  0  0  0  0  0  0  0  0  0  0  0
    0.5037   -0.8573    8.1939 H   0  0  0  0  0  0  0  0  0  0  0  0
   -0.5840    0.0555    9.9827 H   0  0  0  0  0  0  0  0  0  0  0  0
    0.2476    2.8361    8.9621 H   0  0  0  0  0  0  0  0  0  0  0  0
    1.4265    2.2251   11.0484 H   0  0  0  0  0  0  0  0  0  0  0  0
   -0.1108    1.8758   11.8404 H   0  0  0  0  0  0  0  0  0  0  0  0
    0.2674    3.5171   11.3313 H   0  0  0  0  0  0  0  0  0  0  0  0
   -2.1861    2.4967    8.6766 H   0  0  0  0  0  0  0  0  0  0  0  0
   -1.8510    3.6808    9.9330 H   0  0  0  0  0  0  0  0  0  0  0  0
   -2.3447    2.0609   10.3827 H   0  0  0  0  0  0  0  0  0  0  0  0
    3.4805   -2.2932   -1.9939 H   0  0  0  0  0  0  0  0  0  0  0  0
    4.5271   -0.8903   -1.8150 H   0  0  0  0  0  0  0  0  0  0  0  0
    3.0150   -0.9631   -0.9519 H   0  0  0  0  0  0  0  0  0  0  0  0
  1  2  1  0
  1 33  1  0
  1 34  1  0
  1 35  1  0
  2 30  1  0
  2  3  2  0
  3 16  1  0
  3  4  1  0
  4  5  1  0
  4 36  1  0
  4 37  1  0
  5 31  1  0
  5  6  1  1
  5  7  1  0
  6 38  1  0
  7  8  1  0
  8 31  1  0
  8  9  1  6
  8 10  1  0
  9 39  1  0
  9 40  1  0
  9 41  1  0
 10 11  1  0
 11 12  1  0
 11 13  1  0
 11 14  1  0
 12 42  1  0
 12 43  1  0
 12 44  1  0
 13 45  1  0
 13 46  1  0
 13 47  1  0
 14 15  1  0
 15 16  1  0
 15 31  1  0
 15 48  1  6
 16 17  1  0
 16 49  1  6
 17 18  1  0
 17 50  1  0
 17 51  1  0
 18 30  1  0
 18 19  1  0
 18 52  1  6
 19 20  2  0
 19 21  1  0
 21 22  1  0
 21 53  1  0
 21 54  1  0
 22 23  1  0
 22 30  2  0
 23 24  2  3
 23 55  1  0
 24 25  1  0
 24 56  1  0
 25 26  2  3
 25 57  1  0
 26 27  1  0
 26 58  1  0
 27 28  1  0
 27 29  1  0
 27 59  1  0
 28 60  1  0
 28 61  1  0
 28 62  1  0
 29 63  1  0
 29 64  1  0
 29 65  1  0
 31 32  1  6
 32 66  1  0
 32 67  1  0
 32 68  1  0
M  END
>  <i_m_ct_stereo_status>  (268) 
1

>  <s_m_source_file>  (268) 
/var/tmp/pbs.5076255.sched01/tmpegbcst3k/90u3quomt0.sdf

>  <i_m_source_file_index>  (268) 
14

>  <i_lp_mmshare_version>  (268) 
48012

>  <i_f3d_flags>  (268) 
0

>  <s_epik_input>  (268) 
W09IXVtDQEBdMTJbQ0BAXTMoW0NIM10pW0NAXShPMikoW0NIM10pT0MoW0NIM10pKFtDSDNdKU9bQ0BIXTNbQ0BASF00QyhbQ0gyXTEpPUMoW0NIM10pQzVbQ0BIXShbQ0gyXTQpQyg9TylbQ0gyXUM9NS9bQ0hdPVtDSF0vW0NIXT1bQ0hdL1tDSF0oW0NIM10pW0NIM10=

>  <s_epik_cmdline>  (268) 
J2VwaWtfcHl0aG9uJywgJy1waHQnLCAnMi4wJywgJy1waCcsICc3LjAnLCAnLXRuJywgJzgnLCAnLW1hJywgJzIwMCcsICctaW1hZScsICc8aW5maWxlLm1hZT4nLCAnLW9tYWUnLCAnPG91dGZpbGUubWFlPic=

>  <r_lp_tautomer_probability>  (268) 
1

>  <r_epik_Ionization_Penalty>  (268) 
4.49328e-05

>  <r_epik_Ionization_Penalty_Charging>  (268) 
0

>  <r_epik_Ionization_Penalty_Neutral>  (268) 
4.49328e-05

>  <r_epik_State_Penalty>  (268) 
-0

>  <r_epik_Charging_Adjusted_Penalty>  (268) 
0

>  <i_epik_Tot_Q>  (268) 
0

>  <i_epik_Tot_abs_Q>  (268) 
0

>  <s_lp_Force_Field>  (268) 
OPLS3e

>  <r_lp_Energy>  (268) 
51.2221

>  <b_lp_Chiralities_Consistent>  (268) 
1

>  <s_lp_Variant>  (268) 
67:0-4

>  <s_i_glide_gridfile>  (268) 
pfpi4k_grid

>  <i_i_glide_lignum>  (268) 
14

>  <i_i_glide_rotatable_bonds>  (268) 
4

>  <r_i_docking_score>  (268) 
-2.1703

>  <r_i_glide_ligand_efficiency>  (268) 
-0.0678217

>  <r_i_glide_ligand_efficiency_sa>  (268) 
-0.215321

>  <r_i_glide_ligand_efficiency_ln>  (268) 
-0.485988

>  <r_i_glide_gscore>  (268) 
-2.1703

>  <r_i_glide_lipo>  (268) 
-0.36388

>  <r_i_glide_hbond>  (268) 
-0.0988778

>  <r_i_glide_metal>  (268) 
-0

>  <r_i_glide_rewards>  (268) 
-0.641805

>  <r_i_glide_evdw>  (268) 
-20.5702

>  <r_i_glide_ecoul>  (268) 
-2.3056

>  <r_i_glide_erotb>  (268) 
0.308615

>  <r_i_glide_esite>  (268) 
0

>  <r_i_glide_emodel>  (268) 
-26.6528

>  <r_i_glide_energy>  (268) 
-22.8758

>  <r_i_glide_einternal>  (268) 
0.769695

>  <r_i_glide_intrahb_reward>  (268) 
-0

>  <i_i_glide_confnum>  (268) 
5

>  <i_i_glide_posenum>  (268) 
4

>  <r_i_glide_eff_state_penalty>  (268) 
0

>  <ligand_id>  (268) 
67

>  <original_smiles>  (268) 
CC1=C2CC3(O)OC4(C)OC(C)(C)OC(C2CC2C(=O)CC(C=CC=CC(C)C)=C12)C34C

>  <smiles>  (268) 
[H]OC12OC3(C([H])([H])[H])OC(C([H])([H])[H])(C([H])([H])[H])OC([H])(C4([H])C(=C(C([H])([H])[H])C5=C(C([H])=C([H])C([H])=C([H])C([H])(C([H])([H])[H])C([H])([H])[H])C([H])([H])C(=O)C5([H])C4([H])[H])C1([H])[H])C32C([H])([H])[H]

$$$$
69:0:0
     RDKit          3D

 16 17  0  0  1  0  0  0  0  0999 V2000
   -7.4007   -8.6688   -7.4864 C   0  0  0  0  0  0  0  0  0  0  0  0
   -6.5895   -7.8448   -6.5020 C   0  0  0  0  0  0  0  0  0  0  0  0
   -5.4338   -8.4025   -6.0843 N   0  0  0  0  0  0  0  0  0  0  0  0
   -4.7015   -7.7027   -5.2128 C   0  0  0  0  0  0  0  0  0  0  0  0
   -4.9838   -6.4942   -4.7217 N   0  0  0  0  0  0  0  0  0  0  0  0
   -6.1382   -5.9329   -5.1361 C   0  0  0  0  0  0  0  0  0  0  0  0
   -6.6268   -4.6757   -4.7452 C   0  0  0  0  0  0  0  0  0  0  0  0
   -8.1617   -4.2753   -5.5077 S   0  0  0  0  0  0  0  0  0  0  0  0
   -8.1334   -5.8173   -6.3565 C   0  0  0  0  0  0  0  0  0  0  0  0
   -6.9877   -6.5727   -6.0417 C   0  0  0  0  0  0  0  0  0  0  0  0
   -8.3262   -8.1795   -7.7953 H   0  0  0  0  0  0  0  0  0  0  0  0
   -7.6531   -9.6262   -7.0326 H   0  0  0  0  0  0  0  0  0  0  0  0
   -6.8020   -8.8701   -8.3745 H   0  0  0  0  0  0  0  0  0  0  0  0
   -3.7785   -8.1565   -4.8893 H   0  0  0  0  0  0  0  0  0  0  0  0
   -6.1854   -3.9583   -4.0696 H   0  0  0  0  0  0  0  0  0  0  0  0
   -8.9626   -6.0389   -7.0142 H   0  0  0  0  0  0  0  0  0  0  0  0
  1  2  1  0
  1 11  1  0
  1 12  1  0
  1 13  1  0
  2 10  1  0
  2  3  2  0
  3  4  1  0
  4  5  2  0
  4 14  1  0
  5  6  1  0
  6 10  1  0
  6  7  2  0
  7  8  1  0
  7 15  1  0
  8  9  1  0
  9 10  2  0
  9 16  1  0
M  END
>  <i_m_ct_stereo_status>  (269) 
1

>  <s_m_source_file>  (269) 
/var/tmp/pbs.5076255.sched01/tmpegbcst3k/90u3quomt0.sdf

>  <i_m_source_file_index>  (269) 
16

>  <i_lp_mmshare_version>  (269) 
48012

>  <i_f3d_flags>  (269) 
0

>  <s_epik_input>  (269) 
bjFbY0hdbmMoW0NIM10pYyhjMTIpW2NIXXNbY0hdMg==

>  <s_epik_cmdline>  (269) 
J2VwaWtfcHl0aG9uJywgJy1waHQnLCAnMi4wJywgJy1waCcsICc3LjAnLCAnLXRuJywgJzgnLCAnLW1hJywgJzIwMCcsICctaW1hZScsICc8aW5maWxlLm1hZT4nLCAnLW9tYWUnLCAnPG91dGZpbGUubWFlPic=

>  <r_lp_tautomer_probability>  (269) 
1

>  <r_epik_Ionization_Penalty>  (269) 
9.87371e-06

>  <r_epik_Ionization_Penalty_Charging>  (269) 
0

>  <r_epik_Ionization_Penalty_Neutral>  (269) 
9.87371e-06

>  <r_epik_State_Penalty>  (269) 
-0

>  <r_epik_Charging_Adjusted_Penalty>  (269) 
0

>  <i_epik_Tot_Q>  (269) 
0

>  <i_epik_Tot_abs_Q>  (269) 
0

>  <s_lp_Force_Field>  (269) 
OPLS3e

>  <r_lp_Energy>  (269) 
14.8612

>  <b_lp_Chiralities_Consistent>  (269) 
1

>  <s_lp_Variant>  (269) 
69:0-1

>  <s_i_glide_gridfile>  (269) 
pfpi4k_grid

>  <i_i_glide_lignum>  (269) 
16

>  <i_i_glide_rotatable_bonds>  (269) 
0

>  <r_i_docking_score>  (269) 
-7.53143

>  <r_i_glide_ligand_efficiency>  (269) 
-0.753143

>  <r_i_glide_ligand_efficiency_sa>  (269) 
-1.6226

>  <r_i_glide_ligand_efficiency_ln>  (269) 
-2.28046

>  <r_i_glide_gscore>  (269) 
-7.53143

>  <r_i_glide_lipo>  (269) 
-1.84832

>  <r_i_glide_hbond>  (269) 
-0.32

>  <r_i_glide_metal>  (269) 
-0

>  <r_i_glide_rewards>  (269) 
-3.74036

>  <r_i_glide_evdw>  (269) 
-22.2764

>  <r_i_glide_ecoul>  (269) 
-3.39287

>  <r_i_glide_erotb>  (269) 
0

>  <r_i_glide_esite>  (269) 
0

>  <r_i_glide_emodel>  (269) 
-37.3577

>  <r_i_glide_energy>  (269) 
-25.6692

>  <r_i_glide_einternal>  (269) 
0

>  <r_i_glide_intrahb_reward>  (269) 
-0

>  <i_i_glide_confnum>  (269) 
2

>  <i_i_glide_posenum>  (269) 
35

>  <r_i_glide_eff_state_penalty>  (269) 
0

>  <ligand_id>  (269) 
69

>  <original_smiles>  (269) 
Cc1ncnc2cscc12

>  <smiles>  (269) 
[H]c1nc(C([H])([H])[H])c2c([H])sc([H])c2n1

$$$$
69:0:1
     RDKit          3D

 16 17  0  0  1  0  0  0  0  0999 V2000
   -9.8510   -3.1077   -6.0396 C   0  0  0  0  0  0  0  0  0  0  0  0
   -9.2298   -4.3495   -6.6437 C   0  0  0  0  0  0  0  0  0  0  0  0
   -9.7670   -4.7613   -7.8122 N   0  0  0  0  0  0  0  0  0  0  0  0
   -9.2522   -5.8712   -8.3540 C   0  0  0  0  0  0  0  0  0  0  0  0
   -8.2463   -6.6022   -7.8770 N   0  0  0  0  0  0  0  0  0  0  0  0
   -7.7008   -6.1855   -6.7162 C   0  0  0  0  0  0  0  0  0  0  0  0
   -6.6346   -6.8062   -6.0468 C   0  0  0  0  0  0  0  0  0  0  0  0
   -6.1841   -5.9709   -4.5699 S   0  0  0  0  0  0  0  0  0  0  0  0
   -7.4504   -4.7830   -4.8586 C   0  0  0  0  0  0  0  0  0  0  0  0
   -8.1578   -5.0493   -6.0483 C   0  0  0  0  0  0  0  0  0  0  0  0
   -9.3665   -2.8092   -5.1119 H   0  0  0  0  0  0  0  0  0  0  0  0
  -10.9096   -3.2848   -5.8499 H   0  0  0  0  0  0  0  0  0  0  0  0
   -9.7846   -2.2770   -6.7374 H   0  0  0  0  0  0  0  0  0  0  0  0
   -9.6913   -6.1995   -9.2825 H   0  0  0  0  0  0  0  0  0  0  0  0
   -6.0856   -7.6907   -6.3322 H   0  0  0  0  0  0  0  0  0  0  0  0
   -7.5663   -3.9934   -4.1322 H   0  0  0  0  0  0  0  0  0  0  0  0
  1  2  1  0
  1 11  1  0
  1 12  1  0
  1 13  1  0
  2 10  1  0
  2  3  2  0
  3  4  1  0
  4  5  2  0
  4 14  1  0
  5  6  1  0
  6 10  1  0
  6  7  2  0
  7  8  1  0
  7 15  1  0
  8  9  1  0
  9 10  2  0
  9 16  1  0
M  END
>  <i_m_ct_stereo_status>  (270) 
1

>  <s_m_source_file>  (270) 
/var/tmp/pbs.5076255.sched01/tmpegbcst3k/90u3quomt0.sdf

>  <i_m_source_file_index>  (270) 
16

>  <i_lp_mmshare_version>  (270) 
48012

>  <i_f3d_flags>  (270) 
0

>  <s_epik_input>  (270) 
bjFbY0hdbmMoW0NIM10pYyhjMTIpW2NIXXNbY0hdMg==

>  <s_epik_cmdline>  (270) 
J2VwaWtfcHl0aG9uJywgJy1waHQnLCAnMi4wJywgJy1waCcsICc3LjAnLCAnLXRuJywgJzgnLCAnLW1hJywgJzIwMCcsICctaW1hZScsICc8aW5maWxlLm1hZT4nLCAnLW9tYWUnLCAnPG91dGZpbGUubWFlPic=

>  <r_lp_tautomer_probability>  (270) 
1

>  <r_epik_Ionization_Penalty>  (270) 
9.87371e-06

>  <r_epik_Ionization_Penalty_Charging>  (270) 
0

>  <r_epik_Ionization_Penalty_Neutral>  (270) 
9.87371e-06

>  <r_epik_State_Penalty>  (270) 
-0

>  <r_epik_Charging_Adjusted_Penalty>  (270) 
0

>  <i_epik_Tot_Q>  (270) 
0

>  <i_epik_Tot_abs_Q>  (270) 
0

>  <s_lp_Force_Field>  (270) 
OPLS3e

>  <r_lp_Energy>  (270) 
14.8612

>  <b_lp_Chiralities_Consistent>  (270) 
1

>  <s_lp_Variant>  (270) 
69:0-1

>  <s_i_glide_gridfile>  (270) 
pfpi4k_grid

>  <i_i_glide_lignum>  (270) 
16

>  <i_i_glide_rotatable_bonds>  (270) 
0

>  <r_i_docking_score>  (270) 
-6.02223

>  <r_i_glide_ligand_efficiency>  (270) 
-0.602223

>  <r_i_glide_ligand_efficiency_sa>  (270) 
-1.29745

>  <r_i_glide_ligand_efficiency_ln>  (270) 
-1.82349

>  <r_i_glide_gscore>  (270) 
-6.02223

>  <r_i_glide_lipo>  (270) 
-1.88104

>  <r_i_glide_hbond>  (270) 
0

>  <r_i_glide_metal>  (270) 
-0

>  <r_i_glide_rewards>  (270) 
-2.92439

>  <r_i_glide_evdw>  (270) 
-21.7584

>  <r_i_glide_ecoul>  (270) 
-0.859201

>  <r_i_glide_erotb>  (270) 
0

>  <r_i_glide_esite>  (270) 
0

>  <r_i_glide_emodel>  (270) 
-31.9606

>  <r_i_glide_energy>  (270) 
-22.6176

>  <r_i_glide_einternal>  (270) 
0

>  <r_i_glide_intrahb_reward>  (270) 
-0

>  <i_i_glide_confnum>  (270) 
2

>  <i_i_glide_posenum>  (270) 
14

>  <r_i_glide_eff_state_penalty>  (270) 
0

>  <ligand_id>  (270) 
69

>  <original_smiles>  (270) 
Cc1ncnc2cscc12

>  <smiles>  (270) 
[H]c1nc(C([H])([H])[H])c2c([H])sc([H])c2n1

$$$$
69:0:2
     RDKit          3D

 16 17  0  0  1  0  0  0  0  0999 V2000
   -6.6249   -4.6217   -3.8917 C   0  0  0  0  0  0  0  0  0  0  0  0
   -6.7498   -5.6335   -5.0115 C   0  0  0  0  0  0  0  0  0  0  0  0
   -5.8285   -6.6228   -5.0192 N   0  0  0  0  0  0  0  0  0  0  0  0
   -5.9343   -7.5394   -5.9855 C   0  0  0  0  0  0  0  0  0  0  0  0
   -6.8458   -7.5730   -6.9582 N   0  0  0  0  0  0  0  0  0  0  0  0
   -7.7617   -6.5803   -6.9578 C   0  0  0  0  0  0  0  0  0  0  0  0
   -8.8016   -6.4265   -7.8854 C   0  0  0  0  0  0  0  0  0  0  0  0
   -9.8137   -5.0307   -7.5475 S   0  0  0  0  0  0  0  0  0  0  0  0
   -8.8062   -4.6447   -6.1589 C   0  0  0  0  0  0  0  0  0  0  0  0
   -7.7618   -5.5740   -5.9922 C   0  0  0  0  0  0  0  0  0  0  0  0
   -7.4038   -3.8574   -3.9335 H   0  0  0  0  0  0  0  0  0  0  0  0
   -5.6589   -4.1239   -3.9579 H   0  0  0  0  0  0  0  0  0  0  0  0
   -6.6805   -5.1327   -2.9298 H   0  0  0  0  0  0  0  0  0  0  0  0
   -5.1920   -8.3219   -5.9906 H   0  0  0  0  0  0  0  0  0  0  0  0
   -9.0451   -7.0514   -8.7302 H   0  0  0  0  0  0  0  0  0  0  0  0
   -9.0705   -3.7722   -5.5808 H   0  0  0  0  0  0  0  0  0  0  0  0
  1  2  1  0
  1 11  1  0
  1 12  1  0
  1 13  1  0
  2 10  1  0
  2  3  2  0
  3  4  1  0
  4  5  2  0
  4 14  1  0
  5  6  1  0
  6 10  1  0
  6  7  2  0
  7  8  1  0
  7 15  1  0
  8  9  1  0
  9 10  2  0
  9 16  1  0
M  END
>  <i_m_ct_stereo_status>  (271) 
1

>  <s_m_source_file>  (271) 
/var/tmp/pbs.5076255.sched01/tmpegbcst3k/90u3quomt0.sdf

>  <i_m_source_file_index>  (271) 
16

>  <i_lp_mmshare_version>  (271) 
48012

>  <i_f3d_flags>  (271) 
0

>  <s_epik_input>  (271) 
bjFbY0hdbmMoW0NIM10pYyhjMTIpW2NIXXNbY0hdMg==

>  <s_epik_cmdline>  (271) 
J2VwaWtfcHl0aG9uJywgJy1waHQnLCAnMi4wJywgJy1waCcsICc3LjAnLCAnLXRuJywgJzgnLCAnLW1hJywgJzIwMCcsICctaW1hZScsICc8aW5maWxlLm1hZT4nLCAnLW9tYWUnLCAnPG91dGZpbGUubWFlPic=

>  <r_lp_tautomer_probability>  (271) 
1

>  <r_epik_Ionization_Penalty>  (271) 
9.87371e-06

>  <r_epik_Ionization_Penalty_Charging>  (271) 
0

>  <r_epik_Ionization_Penalty_Neutral>  (271) 
9.87371e-06

>  <r_epik_State_Penalty>  (271) 
-0

>  <r_epik_Charging_Adjusted_Penalty>  (271) 
0

>  <i_epik_Tot_Q>  (271) 
0

>  <i_epik_Tot_abs_Q>  (271) 
0

>  <s_lp_Force_Field>  (271) 
OPLS3e

>  <r_lp_Energy>  (271) 
14.8612

>  <b_lp_Chiralities_Consistent>  (271) 
1

>  <s_lp_Variant>  (271) 
69:0-1

>  <s_i_glide_gridfile>  (271) 
pfpi4k_grid

>  <i_i_glide_lignum>  (271) 
16

>  <i_i_glide_rotatable_bonds>  (271) 
0

>  <r_i_docking_score>  (271) 
-5.90141

>  <r_i_glide_ligand_efficiency>  (271) 
-0.590141

>  <r_i_glide_ligand_efficiency_sa>  (271) 
-1.27142

>  <r_i_glide_ligand_efficiency_ln>  (271) 
-1.7869

>  <r_i_glide_gscore>  (271) 
-5.90141

>  <r_i_glide_lipo>  (271) 
-1.69981

>  <r_i_glide_hbond>  (271) 
0

>  <r_i_glide_metal>  (271) 
-0

>  <r_i_glide_rewards>  (271) 
-2.95873

>  <r_i_glide_evdw>  (271) 
-21.3447

>  <r_i_glide_ecoul>  (271) 
-1.17081

>  <r_i_glide_erotb>  (271) 
0

>  <r_i_glide_esite>  (271) 
0

>  <r_i_glide_emodel>  (271) 
-31.6757

>  <r_i_glide_energy>  (271) 
-22.5155

>  <r_i_glide_einternal>  (271) 
0

>  <r_i_glide_intrahb_reward>  (271) 
-0

>  <i_i_glide_confnum>  (271) 
1

>  <i_i_glide_posenum>  (271) 
7

>  <r_i_glide_eff_state_penalty>  (271) 
0

>  <ligand_id>  (271) 
69

>  <original_smiles>  (271) 
Cc1ncnc2cscc12

>  <smiles>  (271) 
[H]c1nc(C([H])([H])[H])c2c([H])sc([H])c2n1

$$$$
70:0:0
     RDKit          3D

 63 69  0  0  1  0  0  0  0  0999 V2000
    4.8209   -1.7148    1.9773 C   0  0  0  0  0  0  0  0  0  0  0  0
    4.6284   -2.6886    0.7803 C   0  0  2  0  0  0  0  0  0  0  0  0
    3.1361   -3.1502    0.7216 C   0  0  0  0  0  0  0  0  0  0  0  0
    2.7102   -4.1601    1.8398 C   0  0  0  0  0  0  0  0  0  0  0  0
    3.9176   -4.9072    2.4563 C   0  0  2  0  0  0  0  0  0  0  0  0
    5.0365   -5.2103    1.4426 C   0  0  2  0  0  0  0  0  0  0  0  0
    4.5658   -6.0638    0.2377 C   0  0  0  0  0  0  0  0  0  0  0  0
    5.9880   -6.0635    2.3040 C   0  0  0  0  0  0  0  0  0  0  0  0
    5.0078   -6.9916    3.0070 C   0  0  0  0  0  0  0  0  0  0  0  0
    5.1030   -8.3461    2.8751 C   0  0  0  0  0  0  0  0  0  0  0  0
    4.0781   -9.4671    3.1386 C   0  0  0  0  0  0  0  0  0  0  0  0
    2.5906   -9.1250    2.9755 C   0  0  1  0  0  0  0  0  0  0  0  0
    1.4688  -10.0963    2.6992 C   0  0  0  0  0  0  0  0  0  0  0  0
    1.5907   -9.4790    4.0715 C   0  0  2  0  0  0  0  0  0  0  0  0
    0.7121   -8.3202    4.5346 C   0  0  0  0  0  0  0  0  0  0  0  0
    1.5270   -6.9972    4.6061 C   0  0  0  0  0  0  0  0  0  0  0  0
    2.5012   -6.8877    3.4319 C   0  0  0  0  0  0  0  0  0  0  0  0
    2.3747   -7.7631    2.4966 N   0  0  0  0  0  0  0  0  0  0  0  0
    3.8166   -6.1152    3.4567 C   0  0  2  0  0  0  0  0  0  0  0  0
    4.1036   -5.6269    4.9041 C   0  0  0  0  0  0  0  0  0  0  0  0
    5.5759   -3.8824    0.9010 C   0  0  0  0  0  0  0  0  0  0  0  0
    6.7354   -3.6594    0.2792 C   0  0  0  0  0  0  0  0  0  0  0  0
    6.7428   -2.3297   -0.4316 C   0  0  0  0  0  0  0  0  0  0  0  0
    5.2325   -1.9751   -0.4798 C   0  0  1  0  0  0  0  0  0  0  0  0
    4.5943   -2.3549   -1.8068 C   0  0  0  0  0  0  0  0  0  0  0  0
    3.3969   -1.8351   -2.3775 C   0  0  0  0  0  0  0  0  0  0  0  0
    3.2005   -2.4812   -3.5609 C   0  0  0  0  0  0  0  0  0  0  0  0
    4.2080   -3.3596   -3.8015 O   0  0  0  0  0  0  0  0  0  0  0  0
    5.0351   -3.2770   -2.7274 C   0  0  0  0  0  0  0  0  0  0  0  0
    4.3810   -0.7384    1.7643 H   0  0  0  0  0  0  0  0  0  0  0  0
    5.8801   -1.5527    2.1920 H   0  0  0  0  0  0  0  0  0  0  0  0
    4.3595   -2.0625    2.9003 H   0  0  0  0  0  0  0  0  0  0  0  0
    2.4841   -2.2768    0.7338 H   0  0  0  0  0  0  0  0  0  0  0  0
    2.9376   -3.6233   -0.2360 H   0  0  0  0  0  0  0  0  0  0  0  0
    2.2109   -3.6069    2.6369 H   0  0  0  0  0  0  0  0  0  0  0  0
    1.9688   -4.8533    1.4414 H   0  0  0  0  0  0  0  0  0  0  0  0
    4.3653   -4.1431    3.0852 H   0  0  0  0  0  0  0  0  0  0  0  0
    4.0835   -6.9940    0.5183 H   0  0  0  0  0  0  0  0  0  0  0  0
    5.4194   -6.3307   -0.3763 H   0  0  0  0  0  0  0  0  0  0  0  0
    3.8757   -5.5405   -0.4182 H   0  0  0  0  0  0  0  0  0  0  0  0
    6.7480   -6.5934    1.7286 H   0  0  0  0  0  0  0  0  0  0  0  0
    6.4941   -5.4410    3.0471 H   0  0  0  0  0  0  0  0  0  0  0  0
    6.0161   -8.7185    2.4411 H   0  0  0  0  0  0  0  0  0  0  0  0
    4.2893  -10.2526    2.4129 H   0  0  0  0  0  0  0  0  0  0  0  0
    4.2521   -9.9024    4.1239 H   0  0  0  0  0  0  0  0  0  0  0  0
    0.6191   -9.7829    2.0913 H   0  0  0  0  0  0  0  0  0  0  0  0
    1.7211  -11.1519    2.6345 H   0  0  0  0  0  0  0  0  0  0  0  0
    1.9447  -10.1360    4.8634 H   0  0  0  0  0  0  0  0  0  0  0  0
   -0.1303   -8.2117    3.8437 H   0  0  0  0  0  0  0  0  0  0  0  0
    0.2898   -8.5693    5.5083 H   0  0  0  0  0  0  0  0  0  0  0  0
    0.8833   -6.1170    4.6499 H   0  0  0  0  0  0  0  0  0  0  0  0
    2.0760   -7.0480    5.5466 H   0  0  0  0  0  0  0  0  0  0  0  0
    4.2062   -6.4626    5.5998 H   0  0  0  0  0  0  0  0  0  0  0  0
    3.3165   -4.9655    5.2655 H   0  0  0  0  0  0  0  0  0  0  0  0
    5.0409   -5.0697    4.9674 H   0  0  0  0  0  0  0  0  0  0  0  0
    7.5375   -4.3688    0.1653 H   0  0  0  0  0  0  0  0  0  0  0  0
    7.2862   -1.6134    0.1859 H   0  0  0  0  0  0  0  0  0  0  0  0
    7.2214   -2.3573   -1.4112 H   0  0  0  0  0  0  0  0  0  0  0  0
    5.1014   -0.8933   -0.4151 H   0  0  0  0  0  0  0  0  0  0  0  0
    2.7301   -1.0942   -1.9552 H   0  0  0  0  0  0  0  0  0  0  0  0
    2.4288   -2.4438   -4.3176 H   0  0  0  0  0  0  0  0  0  0  0  0
    5.8829   -3.9428   -2.7707 H   0  0  0  0  0  0  0  0  0  0  0  0
    2.8723   -7.6071    1.6227 H   0  0  0  0  0  0  0  0  0  0  0  0
  2  1  1  1
  1 30  1  0
  1 31  1  0
  1 32  1  0
  2 21  1  0
  2 24  1  0
  2  3  1  0
  3  4  1  0
  3 33  1  0
  3 34  1  0
  4  5  1  0
  4 35  1  0
  4 36  1  0
  5 19  1  0
  5  6  1  0
  5 37  1  1
  6  7  1  6
  6  8  1  0
  6 21  1  0
  7 38  1  0
  7 39  1  0
  7 40  1  0
  8  9  1  0
  8 41  1  0
  8 42  1  0
  9 19  1  0
  9 10  2  0
 10 11  1  0
 10 43  1  0
 12 11  1  1
 11 44  1  0
 11 45  1  0
 12 14  1  0
 12 13  1  0
 12 18  1  0
 13 14  1  0
 13 46  1  0
 13 47  1  0
 14 15  1  0
 14 48  1  1
 15 49  1  0
 15 50  1  0
 15 16  1  0
 16 51  1  0
 16 52  1  0
 16 17  1  0
 17 19  1  0
 17 18  2  0
 18 63  1  0
 19 20  1  1
 20 53  1  0
 20 54  1  0
 20 55  1  0
 21 22  2  0
 22 23  1  0
 22 56  1  0
 23 24  1  0
 23 57  1  0
 23 58  1  0
 24 25  1  0
 24 59  1  1
 25 29  2  0
 25 26  1  0
 26 27  2  0
 26 60  1  0
 27 28  1  0
 27 61  1  0
 28 29  1  0
 29 62  1  0
M  CHG  1  18   1
M  END
>  <i_m_ct_stereo_status>  (272) 
1

>  <s_m_source_file>  (272) 
/var/tmp/pbs.5076255.sched01/tmpegbcst3k/90u3quomt0.sdf

>  <i_m_source_file_index>  (272) 
17

>  <i_lp_mmshare_version>  (272) 
48012

>  <i_f3d_flags>  (272) 
0

>  <s_epik_input>  (272) 
W2NIXTFvW2NIXVtjSF1jMVtDQEhdKFtDSDJdW0NIXTIpW0NAQF0oW0NIM10pKFtDSDJdW0NIMl0zKUM9MltDQEBdKFtDSDNdKShbQ0gyXUM0PVtDSF1bQ0gyXTUpW0NAQEhdM1tDQEBdNChbQ0gzXSlDKFtOSF02KT1bQ0hdW0NIMl1bQ0BIXShbQ0BdNTY3KVtDSDJdNw==

>  <s_epik_cmdline>  (272) 
J2VwaWtfcHl0aG9uJywgJy1waHQnLCAnMi4wJywgJy1waCcsICc3LjAnLCAnLXRuJywgJzgnLCAnLW1hJywgJzIwMCcsICctaW1hZScsICc8aW5maWxlLm1hZT4nLCAnLW9tYWUnLCAnPG91dGZpbGUubWFlPic=

>  <r_epik_Ionization_Penalty>  (272) 
0.887669

>  <r_epik_Ionization_Penalty_Charging>  (272) 
0.887659

>  <r_epik_Ionization_Penalty_Neutral>  (272) 
1.05624e-05

>  <r_epik_State_Penalty>  (272) 
0.205124

>  <r_epik_Charging_Adjusted_Penalty>  (272) 
1.09278

>  <i_epik_Tot_Q>  (272) 
1

>  <i_epik_Tot_abs_Q>  (272) 
1

>  <s_epik_Chemistry_Notes>  (272) 
This compound has an imine and may undergo hydrolysis.

>  <s_lp_Force_Field>  (272) 
OPLS3e

>  <r_lp_Energy>  (272) 
112.056

>  <b_lp_Chiralities_Consistent>  (272) 
1

>  <s_lp_Variant>  (272) 
70:0-1

>  <s_i_glide_gridfile>  (272) 
pfpi4k_grid

>  <i_i_glide_lignum>  (272) 
17

>  <i_i_glide_rotatable_bonds>  (272) 
1

>  <r_i_docking_score>  (272) 
-3.59239

>  <r_i_glide_ligand_efficiency>  (272) 
-0.123875

>  <r_i_glide_ligand_efficiency_sa>  (272) 
-0.380584

>  <r_i_glide_ligand_efficiency_ln>  (272) 
-0.822565

>  <r_i_glide_gscore>  (272) 
-3.59239

>  <r_i_glide_lipo>  (272) 
-0.944155

>  <r_i_glide_hbond>  (272) 
0

>  <r_i_glide_metal>  (272) 
-0

>  <r_i_glide_rewards>  (272) 
-0.759784

>  <r_i_glide_evdw>  (272) 
-32.5579

>  <r_i_glide_ecoul>  (272) 
-2.52832

>  <r_i_glide_erotb>  (272) 
0.129057

>  <r_i_glide_esite>  (272) 
-0.0103611

>  <r_i_glide_emodel>  (272) 
-42.6779

>  <r_i_glide_energy>  (272) 
-35.0862

>  <r_i_glide_einternal>  (272) 
0.252815

>  <r_i_glide_intrahb_reward>  (272) 
-0

>  <i_i_glide_confnum>  (272) 
2

>  <i_i_glide_posenum>  (272) 
16

>  <r_i_glide_eff_state_penalty>  (272) 
0

>  <ligand_id>  (272) 
70

>  <original_smiles>  (272) 
CC12CCC3C(C)(CC4=CCC56CC5CC=C(N6)C43C)C1=CCC2c1ccoc1

>  <smiles>  (272) 
[H]C1=C2C(C([H])([H])[H])(C([H])([H])C([H])([H])C3([H])C4(C([H])([H])[H])C(=C([H])C([H])([H])C56[N+]([H])=C4C([H])([H])C([H])([H])C5([H])C6([H])[H])C([H])([H])C23C([H])([H])[H])C([H])(c2c([H])oc([H])c2[H])C1([H])[H]

$$$$
70:0:1
     RDKit          3D

 63 69  0  0  1  0  0  0  0  0999 V2000
    5.3231   -1.5903    1.8928 C   0  0  0  0  0  0  0  0  0  0  0  0
    5.0024   -2.5195    0.6876 C   0  0  2  0  0  0  0  0  0  0  0  0
    3.4751   -2.8381    0.6643 C   0  0  0  0  0  0  0  0  0  0  0  0
    2.9900   -3.8238    1.7791 C   0  0  0  0  0  0  0  0  0  0  0  0
    4.1381   -4.6935    2.3500 C   0  0  2  0  0  0  0  0  0  0  0  0
    5.1958   -5.0842    1.2997 C   0  0  2  0  0  0  0  0  0  0  0  0
    4.6127   -5.8765    0.0981 C   0  0  0  0  0  0  0  0  0  0  0  0
    6.0860   -6.0354    2.1246 C   0  0  0  0  0  0  0  0  0  0  0  0
    5.0404   -6.8793    2.8423 C   0  0  0  0  0  0  0  0  0  0  0  0
    5.0046   -8.2354    2.6902 C   0  0  0  0  0  0  0  0  0  0  0  0
    3.8863   -9.2594    2.9689 C   0  0  0  0  0  0  0  0  0  0  0  0
    2.4342   -8.7757    2.8519 C   0  0  1  0  0  0  0  0  0  0  0  0
    1.2162   -9.6341    2.5985 C   0  0  0  0  0  0  0  0  0  0  0  0
    1.4368   -9.0540    3.9742 C   0  0  2  0  0  0  0  0  0  0  0  0
    0.6848   -7.8240    4.4792 C   0  0  0  0  0  0  0  0  0  0  0  0
    1.6221   -6.5830    4.5442 C   0  0  0  0  0  0  0  0  0  0  0  0
    2.5688   -6.5473    3.3445 C   0  0  0  0  0  0  0  0  0  0  0  0
    2.3350   -7.3905    2.4006 N   0  0  0  0  0  0  0  0  0  0  0  0
    3.9493   -5.9019    3.3383 C   0  0  2  0  0  0  0  0  0  0  0  0
    4.3233   -5.4659    4.7838 C   0  0  0  0  0  0  0  0  0  0  0  0
    5.8358   -3.7998    0.7610 C   0  0  0  0  0  0  0  0  0  0  0  0
    6.9906   -3.6738    0.1039 C   0  0  0  0  0  0  0  0  0  0  0  0
    7.0949   -2.3434   -0.5930 C   0  0  0  0  0  0  0  0  0  0  0  0
    5.6278   -1.8346   -0.5758 C   0  0  1  0  0  0  0  0  0  0  0  0
    4.9233   -2.1277   -1.8917 C   0  0  0  0  0  0  0  0  0  0  0  0
    4.8632   -3.3744   -2.5819 C   0  0  0  0  0  0  0  0  0  0  0  0
    4.1308   -3.1756   -3.7112 C   0  0  0  0  0  0  0  0  0  0  0  0
    3.7435   -1.8749   -3.8058 O   0  0  0  0  0  0  0  0  0  0  0  0
    4.2208   -1.2608   -2.6897 C   0  0  0  0  0  0  0  0  0  0  0  0
    4.9727   -0.5722    1.7089 H   0  0  0  0  0  0  0  0  0  0  0  0
    6.4002   -1.5321    2.0728 H   0  0  0  0  0  0  0  0  0  0  0  0
    4.8596   -1.9096    2.8247 H   0  0  0  0  0  0  0  0  0  0  0  0
    2.9059   -1.9085    0.7097 H   0  0  0  0  0  0  0  0  0  0  0  0
    3.2024   -3.2720   -0.2938 H   0  0  0  0  0  0  0  0  0  0  0  0
    2.5657   -3.2429    2.5994 H   0  0  0  0  0  0  0  0  0  0  0  0
    2.1782   -4.4393    1.3911 H   0  0  0  0  0  0  0  0  0  0  0  0
    4.6750   -3.9849    2.9755 H   0  0  0  0  0  0  0  0  0  0  0  0
    4.0534   -6.7596    0.3845 H   0  0  0  0  0  0  0  0  0  0  0  0
    5.4132   -6.2268   -0.5487 H   0  0  0  0  0  0  0  0  0  0  0  0
    3.9548   -5.2819   -0.5280 H   0  0  0  0  0  0  0  0  0  0  0  0
    6.7768   -6.6254    1.5209 H   0  0  0  0  0  0  0  0  0  0  0  0
    6.6678   -5.4756    2.8624 H   0  0  0  0  0  0  0  0  0  0  0  0
    5.8656   -8.6853    2.2263 H   0  0  0  0  0  0  0  0  0  0  0  0
    4.0031  -10.0518    2.2295 H   0  0  0  0  0  0  0  0  0  0  0  0
    4.0451   -9.7236    3.9430 H   0  0  0  0  0  0  0  0  0  0  0  0
    0.3716   -9.2312    2.0411 H   0  0  0  0  0  0  0  0  0  0  0  0
    1.3648  -10.7083    2.5024 H   0  0  0  0  0  0  0  0  0  0  0  0
    1.7487   -9.7546    4.7481 H   0  0  0  0  0  0  0  0  0  0  0  0
   -0.1629   -7.6249    3.8153 H   0  0  0  0  0  0  0  0  0  0  0  0
    0.2676   -8.0460    5.4616 H   0  0  0  0  0  0  0  0  0  0  0  0
    1.0644   -5.6473    4.6196 H   0  0  0  0  0  0  0  0  0  0  0  0
    2.1909   -6.6988    5.4688 H   0  0  0  0  0  0  0  0  0  0  0  0
    4.3659   -6.3187    5.4657 H   0  0  0  0  0  0  0  0  0  0  0  0
    3.6146   -4.7376    5.1780 H   0  0  0  0  0  0  0  0  0  0  0  0
    5.3121   -5.0023    4.8268 H   0  0  0  0  0  0  0  0  0  0  0  0
    7.7241   -4.4508   -0.0389 H   0  0  0  0  0  0  0  0  0  0  0  0
    7.7340   -1.6994    0.0136 H   0  0  0  0  0  0  0  0  0  0  0  0
    7.5235   -2.4107   -1.5946 H   0  0  0  0  0  0  0  0  0  0  0  0
    5.6133   -0.7472   -0.4740 H   0  0  0  0  0  0  0  0  0  0  0  0
    5.2891   -4.3246   -2.2885 H   0  0  0  0  0  0  0  0  0  0  0  0
    3.8084   -3.8231   -4.5140 H   0  0  0  0  0  0  0  0  0  0  0  0
    3.9735   -0.2118   -2.6244 H   0  0  0  0  0  0  0  0  0  0  0  0
    2.8240   -7.2634    1.5181 H   0  0  0  0  0  0  0  0  0  0  0  0
  2  1  1  1
  1 30  1  0
  1 31  1  0
  1 32  1  0
  2 21  1  0
  2 24  1  0
  2  3  1  0
  3  4  1  0
  3 33  1  0
  3 34  1  0
  4  5  1  0
  4 35  1  0
  4 36  1  0
  5 19  1  0
  5  6  1  0
  5 37  1  1
  6  7  1  6
  6  8  1  0
  6 21  1  0
  7 38  1  0
  7 39  1  0
  7 40  1  0
  8  9  1  0
  8 41  1  0
  8 42  1  0
  9 19  1  0
  9 10  2  0
 10 11  1  0
 10 43  1  0
 12 11  1  1
 11 44  1  0
 11 45  1  0
 12 14  1  0
 12 13  1  0
 12 18  1  0
 13 14  1  0
 13 46  1  0
 13 47  1  0
 14 15  1  0
 14 48  1  1
 15 49  1  0
 15 50  1  0
 15 16  1  0
 16 51  1  0
 16 52  1  0
 16 17  1  0
 17 19  1  0
 17 18  2  0
 18 63  1  0
 19 20  1  1
 20 53  1  0
 20 54  1  0
 20 55  1  0
 21 22  2  0
 22 23  1  0
 22 56  1  0
 23 24  1  0
 23 57  1  0
 23 58  1  0
 24 25  1  0
 24 59  1  1
 25 29  2  0
 25 26  1  0
 26 27  2  0
 26 60  1  0
 27 28  1  0
 27 61  1  0
 28 29  1  0
 29 62  1  0
M  CHG  1  18   1
M  END
>  <i_m_ct_stereo_status>  (273) 
1

>  <s_m_source_file>  (273) 
/var/tmp/pbs.5076255.sched01/tmpegbcst3k/90u3quomt0.sdf

>  <i_m_source_file_index>  (273) 
17

>  <i_lp_mmshare_version>  (273) 
48012

>  <i_f3d_flags>  (273) 
0

>  <s_epik_input>  (273) 
W2NIXTFvW2NIXVtjSF1jMVtDQEhdKFtDSDJdW0NIXTIpW0NAQF0oW0NIM10pKFtDSDJdW0NIMl0zKUM9MltDQEBdKFtDSDNdKShbQ0gyXUM0PVtDSF1bQ0gyXTUpW0NAQEhdM1tDQEBdNChbQ0gzXSlDKFtOSF02KT1bQ0hdW0NIMl1bQ0BIXShbQ0BdNTY3KVtDSDJdNw==

>  <s_epik_cmdline>  (273) 
J2VwaWtfcHl0aG9uJywgJy1waHQnLCAnMi4wJywgJy1waCcsICc3LjAnLCAnLXRuJywgJzgnLCAnLW1hJywgJzIwMCcsICctaW1hZScsICc8aW5maWxlLm1hZT4nLCAnLW9tYWUnLCAnPG91dGZpbGUubWFlPic=

>  <r_epik_Ionization_Penalty>  (273) 
0.887669

>  <r_epik_Ionization_Penalty_Charging>  (273) 
0.887659

>  <r_epik_Ionization_Penalty_Neutral>  (273) 
1.05624e-05

>  <r_epik_State_Penalty>  (273) 
0.205124

>  <r_epik_Charging_Adjusted_Penalty>  (273) 
1.09278

>  <i_epik_Tot_Q>  (273) 
1

>  <i_epik_Tot_abs_Q>  (273) 
1

>  <s_epik_Chemistry_Notes>  (273) 
This compound has an imine and may undergo hydrolysis.

>  <s_lp_Force_Field>  (273) 
OPLS3e

>  <r_lp_Energy>  (273) 
112.056

>  <b_lp_Chiralities_Consistent>  (273) 
1

>  <s_lp_Variant>  (273) 
70:0-1

>  <s_i_glide_gridfile>  (273) 
pfpi4k_grid

>  <i_i_glide_lignum>  (273) 
17

>  <i_i_glide_rotatable_bonds>  (273) 
1

>  <r_i_docking_score>  (273) 
-3.42558

>  <r_i_glide_ligand_efficiency>  (273) 
-0.118123

>  <r_i_glide_ligand_efficiency_sa>  (273) 
-0.362912

>  <r_i_glide_ligand_efficiency_ln>  (273) 
-0.78437

>  <r_i_glide_gscore>  (273) 
-3.42558

>  <r_i_glide_lipo>  (273) 
-0.844375

>  <r_i_glide_hbond>  (273) 
0

>  <r_i_glide_metal>  (273) 
-0

>  <r_i_glide_rewards>  (273) 
-0.759784

>  <r_i_glide_evdw>  (273) 
-33.454

>  <r_i_glide_ecoul>  (273) 
-1.78735

>  <r_i_glide_erotb>  (273) 
0.129057

>  <r_i_glide_esite>  (273) 
-0.00966961

>  <r_i_glide_emodel>  (273) 
-42.5314

>  <r_i_glide_energy>  (273) 
-35.2414

>  <r_i_glide_einternal>  (273) 
0.0583102

>  <r_i_glide_intrahb_reward>  (273) 
-0

>  <i_i_glide_confnum>  (273) 
4

>  <i_i_glide_posenum>  (273) 
39

>  <r_i_glide_eff_state_penalty>  (273) 
0

>  <ligand_id>  (273) 
70

>  <original_smiles>  (273) 
CC12CCC3C(C)(CC4=CCC56CC5CC=C(N6)C43C)C1=CCC2c1ccoc1

>  <smiles>  (273) 
[H]C1=C2C(C([H])([H])[H])(C([H])([H])C([H])([H])C3([H])C4(C([H])([H])[H])C(=C([H])C([H])([H])C56[N+]([H])=C4C([H])([H])C([H])([H])C5([H])C6([H])[H])C([H])([H])C23C([H])([H])[H])C([H])(c2c([H])oc([H])c2[H])C1([H])[H]

$$$$
70:0:2
     RDKit          3D

 63 69  0  0  1  0  0  0  0  0999 V2000
    3.4945   -8.8805    1.6436 C   0  0  0  0  0  0  0  0  0  0  0  0
    2.4256   -7.9992    2.3533 C   0  0  2  0  0  0  0  0  0  0  0  0
    1.7247   -7.0651    1.3149 C   0  0  0  0  0  0  0  0  0  0  0  0
    2.6098   -5.8835    0.7899 C   0  0  0  0  0  0  0  0  0  0  0  0
    3.7716   -5.5399    1.7510 C   0  0  2  0  0  0  0  0  0  0  0  0
    3.4085   -5.7104    3.2383 C   0  0  2  0  0  0  0  0  0  0  0  0
    2.1980   -4.8459    3.6910 C   0  0  0  0  0  0  0  0  0  0  0  0
    4.6801   -5.1573    3.9116 C   0  0  0  0  0  0  0  0  0  0  0  0
    4.9384   -3.9047    3.0887 C   0  0  0  0  0  0  0  0  0  0  0  0
    4.9798   -2.6726    3.6772 C   0  0  0  0  0  0  0  0  0  0  0  0
    4.8438   -1.2604    3.0803 C   0  0  0  0  0  0  0  0  0  0  0  0
    3.9884   -1.1056    1.8158 C   0  0  1  0  0  0  0  0  0  0  0  0
    3.3037    0.1512    1.3421 C   0  0  0  0  0  0  0  0  0  0  0  0
    4.5303   -0.3502    0.6106 C   0  0  2  0  0  0  0  0  0  0  0  0
    4.4445   -1.1086   -0.7123 C   0  0  0  0  0  0  0  0  0  0  0  0
    4.7686   -2.6170   -0.5166 C   0  0  0  0  0  0  0  0  0  0  0  0
    4.1644   -3.1375    0.7891 C   0  0  0  0  0  0  0  0  0  0  0  0
    3.3516   -2.3504    1.3985 N   0  0  0  0  0  0  0  0  0  0  0  0
    4.7206   -4.2951    1.6093 C   0  0  2  0  0  0  0  0  0  0  0  0
    6.0942   -4.7314    1.0260 C   0  0  0  0  0  0  0  0  0  0  0  0
    3.0617   -7.1848    3.4808 C   0  0  0  0  0  0  0  0  0  0  0  0
    3.0116   -7.8303    4.6465 C   0  0  0  0  0  0  0  0  0  0  0  0
    2.2648   -9.1368    4.5309 C   0  0  0  0  0  0  0  0  0  0  0  0
    1.5218   -8.9804    3.1774 C   0  0  1  0  0  0  0  0  0  0  0  0
    0.0944   -8.5051    3.3748 C   0  0  0  0  0  0  0  0  0  0  0  0
   -0.3509   -7.4184    4.1865 C   0  0  0  0  0  0  0  0  0  0  0  0
   -1.7062   -7.3651    4.0716 C   0  0  0  0  0  0  0  0  0  0  0  0
   -2.1570   -8.3386    3.2411 O   0  0  0  0  0  0  0  0  0  0  0  0
   -1.0557   -9.0330    2.8462 C   0  0  0  0  0  0  0  0  0  0  0  0
    3.0271   -9.6747    1.0563 H   0  0  0  0  0  0  0  0  0  0  0  0
    4.1490   -9.3679    2.3718 H   0  0  0  0  0  0  0  0  0  0  0  0
    4.1358   -8.3262    0.9589 H   0  0  0  0  0  0  0  0  0  0  0  0
    1.3496   -7.6634    0.4874 H   0  0  0  0  0  0  0  0  0  0  0  0
    0.8274   -6.6364    1.7492 H   0  0  0  0  0  0  0  0  0  0  0  0
    3.0540   -6.1748   -0.1626 H   0  0  0  0  0  0  0  0  0  0  0  0
    1.9857   -5.0158    0.5764 H   0  0  0  0  0  0  0  0  0  0  0  0
    4.4670   -6.3555    1.5768 H   0  0  0  0  0  0  0  0  0  0  0  0
    2.3124   -3.7913    3.4643 H   0  0  0  0  0  0  0  0  0  0  0  0
    2.0619   -4.9143    4.7711 H   0  0  0  0  0  0  0  0  0  0  0  0
    1.2576   -5.1543    3.2415 H   0  0  0  0  0  0  0  0  0  0  0  0
    4.5605   -4.9569    4.9768 H   0  0  0  0  0  0  0  0  0  0  0  0
    5.5157   -5.8518    3.7851 H   0  0  0  0  0  0  0  0  0  0  0  0
    5.0370   -2.6638    4.7529 H   0  0  0  0  0  0  0  0  0  0  0  0
    4.3618   -0.6520    3.8452 H   0  0  0  0  0  0  0  0  0  0  0  0
    5.8337   -0.8282    2.9192 H   0  0  0  0  0  0  0  0  0  0  0  0
    2.3526    0.0787    0.8137 H   0  0  0  0  0  0  0  0  0  0  0  0
    3.4366    1.0578    1.9280 H   0  0  0  0  0  0  0  0  0  0  0  0
    5.4515    0.2077    0.7652 H   0  0  0  0  0  0  0  0  0  0  0  0
    3.4363   -0.9951   -1.1273 H   0  0  0  0  0  0  0  0  0  0  0  0
    5.1323   -0.6526   -1.4237 H   0  0  0  0  0  0  0  0  0  0  0  0
    4.4339   -3.2259   -1.3587 H   0  0  0  0  0  0  0  0  0  0  0  0
    5.8569   -2.6755   -0.4775 H   0  0  0  0  0  0  0  0  0  0  0  0
    6.8279   -3.9228    1.0708 H   0  0  0  0  0  0  0  0  0  0  0  0
    5.9990   -5.0619   -0.0082 H   0  0  0  0  0  0  0  0  0  0  0  0
    6.5300   -5.5611    1.5866 H   0  0  0  0  0  0  0  0  0  0  0  0
    3.3374   -7.4448    5.5979 H   0  0  0  0  0  0  0  0  0  0  0  0
    2.9972   -9.9451    4.4802 H   0  0  0  0  0  0  0  0  0  0  0  0
    1.5990   -9.3403    5.3705 H   0  0  0  0  0  0  0  0  0  0  0  0
    1.4465   -9.9541    2.6871 H   0  0  0  0  0  0  0  0  0  0  0  0
    0.2470   -6.7559    4.7916 H   0  0  0  0  0  0  0  0  0  0  0  0
   -2.4680   -6.7230    4.4882 H   0  0  0  0  0  0  0  0  0  0  0  0
   -1.2630   -9.8741    2.1988 H   0  0  0  0  0  0  0  0  0  0  0  0
    2.7725   -2.7330    2.1436 H   0  0  0  0  0  0  0  0  0  0  0  0
  2  1  1  6
  1 30  1  0
  1 31  1  0
  1 32  1  0
  2 21  1  0
  2 24  1  0
  2  3  1  0
  3  4  1  0
  3 33  1  0
  3 34  1  0
  4  5  1  0
  4 35  1  0
  4 36  1  0
  5 19  1  0
  5  6  1  0
  5 37  1  6
  6  7  1  1
  6  8  1  0
  6 21  1  0
  7 38  1  0
  7 39  1  0
  7 40  1  0
  8  9  1  0
  8 41  1  0
  8 42  1  0
  9 19  1  0
  9 10  2  0
 10 11  1  0
 10 43  1  0
 12 11  1  1
 11 44  1  0
 11 45  1  0
 12 14  1  0
 12 13  1  0
 12 18  1  0
 13 14  1  0
 13 46  1  0
 13 47  1  0
 14 15  1  0
 14 48  1  1
 15 49  1  0
 15 50  1  0
 15 16  1  0
 16 51  1  0
 16 52  1  0
 16 17  1  0
 17 19  1  0
 17 18  2  0
 18 63  1  0
 19 20  1  6
 20 53  1  0
 20 54  1  0
 20 55  1  0
 21 22  2  0
 22 23  1  0
 22 56  1  0
 23 24  1  0
 23 57  1  0
 23 58  1  0
 24 25  1  0
 24 59  1  6
 25 29  2  0
 25 26  1  0
 26 27  2  0
 26 60  1  0
 27 28  1  0
 27 61  1  0
 28 29  1  0
 29 62  1  0
M  CHG  1  18   1
M  END
>  <i_m_ct_stereo_status>  (274) 
1

>  <s_m_source_file>  (274) 
/var/tmp/pbs.5076255.sched01/tmpegbcst3k/90u3quomt0.sdf

>  <i_m_source_file_index>  (274) 
17

>  <i_lp_mmshare_version>  (274) 
48012

>  <i_f3d_flags>  (274) 
0

>  <s_epik_input>  (274) 
W2NIXTFvW2NIXVtjSF1jMVtDQEhdKFtDSDJdW0NIXTIpW0NAQF0oW0NIM10pKFtDSDJdW0NIMl0zKUM9MltDQEBdKFtDSDNdKShbQ0gyXUM0PVtDSF1bQ0gyXTUpW0NAQEhdM1tDQEBdNChbQ0gzXSlDKFtOSF02KT1bQ0hdW0NIMl1bQ0BIXShbQ0BdNTY3KVtDSDJdNw==

>  <s_epik_cmdline>  (274) 
J2VwaWtfcHl0aG9uJywgJy1waHQnLCAnMi4wJywgJy1waCcsICc3LjAnLCAnLXRuJywgJzgnLCAnLW1hJywgJzIwMCcsICctaW1hZScsICc8aW5maWxlLm1hZT4nLCAnLW9tYWUnLCAnPG91dGZpbGUubWFlPic=

>  <r_epik_Ionization_Penalty>  (274) 
0.887669

>  <r_epik_Ionization_Penalty_Charging>  (274) 
0.887659

>  <r_epik_Ionization_Penalty_Neutral>  (274) 
1.05624e-05

>  <r_epik_State_Penalty>  (274) 
0.205124

>  <r_epik_Charging_Adjusted_Penalty>  (274) 
1.09278

>  <i_epik_Tot_Q>  (274) 
1

>  <i_epik_Tot_abs_Q>  (274) 
1

>  <s_epik_Chemistry_Notes>  (274) 
This compound has an imine and may undergo hydrolysis.

>  <s_lp_Force_Field>  (274) 
OPLS3e

>  <r_lp_Energy>  (274) 
112.056

>  <b_lp_Chiralities_Consistent>  (274) 
1

>  <s_lp_Variant>  (274) 
70:0-1

>  <s_i_glide_gridfile>  (274) 
pfpi4k_grid

>  <i_i_glide_lignum>  (274) 
17

>  <i_i_glide_rotatable_bonds>  (274) 
1

>  <r_i_docking_score>  (274) 
-3.01621

>  <r_i_glide_ligand_efficiency>  (274) 
-0.104007

>  <r_i_glide_ligand_efficiency_sa>  (274) 
-0.319543

>  <r_i_glide_ligand_efficiency_ln>  (274) 
-0.690635

>  <r_i_glide_gscore>  (274) 
-3.01621

>  <r_i_glide_lipo>  (274) 
-0.475658

>  <r_i_glide_hbond>  (274) 
0

>  <r_i_glide_metal>  (274) 
-0

>  <r_i_glide_rewards>  (274) 
-0.77294

>  <r_i_glide_evdw>  (274) 
-31.8204

>  <r_i_glide_ecoul>  (274) 
-1.96217

>  <r_i_glide_erotb>  (274) 
0.129057

>  <r_i_glide_esite>  (274) 
-0.01132

>  <r_i_glide_emodel>  (274) 
-40.1338

>  <r_i_glide_energy>  (274) 
-33.7826

>  <r_i_glide_einternal>  (274) 
0.0738659

>  <r_i_glide_intrahb_reward>  (274) 
-0

>  <i_i_glide_confnum>  (274) 
2

>  <i_i_glide_posenum>  (274) 
2

>  <r_i_glide_eff_state_penalty>  (274) 
0

>  <ligand_id>  (274) 
70

>  <original_smiles>  (274) 
CC12CCC3C(C)(CC4=CCC56CC5CC=C(N6)C43C)C1=CCC2c1ccoc1

>  <smiles>  (274) 
[H]C1=C2C(C([H])([H])[H])(C([H])([H])C([H])([H])C3([H])C4(C([H])([H])[H])C(=C([H])C([H])([H])C56[N+]([H])=C4C([H])([H])C([H])([H])C5([H])C6([H])[H])C([H])([H])C23C([H])([H])[H])C([H])(c2c([H])oc([H])c2[H])C1([H])[H]

$$$$
70:1:0
     RDKit          3D

 62 68  0  0  1  0  0  0  0  0999 V2000
    5.1860   -1.8282    2.1809 C   0  0  0  0  0  0  0  0  0  0  0  0
    4.9527   -2.6144    0.8600 C   0  0  2  0  0  0  0  0  0  0  0  0
    3.4277   -2.8913    0.6823 C   0  0  0  0  0  0  0  0  0  0  0  0
    2.8458   -3.9597    1.6570 C   0  0  0  0  0  0  0  0  0  0  0  0
    3.9204   -4.9146    2.2223 C   0  0  2  0  0  0  0  0  0  0  0  0
    5.0619   -5.2192    1.2391 C   0  0  2  0  0  0  0  0  0  0  0  0
    4.5780   -5.9069   -0.0573 C   0  0  0  0  0  0  0  0  0  0  0  0
    5.8726   -6.2326    2.0550 C   0  0  0  0  0  0  0  0  0  0  0  0
    4.7814   -7.1200    2.6414 C   0  0  0  0  0  0  0  0  0  0  0  0
    4.8679   -8.4712    2.6049 C   0  0  0  0  0  0  0  0  0  0  0  0
    3.8035   -9.5259    2.9097 C   0  0  0  0  0  0  0  0  0  0  0  0
    2.3552   -9.0686    2.8186 C   0  0  1  0  0  0  0  0  0  0  0  0
    1.1727  -10.0022    2.8672 C   0  0  0  0  0  0  0  0  0  0  0  0
    1.4070   -9.0611    4.0293 C   0  0  2  0  0  0  0  0  0  0  0  0
    0.5325   -7.8224    4.2541 C   0  0  0  0  0  0  0  0  0  0  0  0
    0.9681   -6.5825    3.4141 C   0  0  0  0  0  0  0  0  0  0  0  0
    2.2156   -6.8850    2.5927 C   0  0  0  0  0  0  0  0  0  0  0  0
    2.1684   -7.9443    1.9168 N   0  0  0  0  0  0  0  0  0  0  0  0
    3.5703   -6.2296    2.9900 C   0  0  2  0  0  0  0  0  0  0  0  0
    3.6415   -5.9904    4.5196 C   0  0  0  0  0  0  0  0  0  0  0  0
    5.7575   -3.9110    0.8695 C   0  0  0  0  0  0  0  0  0  0  0  0
    6.9607   -3.7538    0.3086 C   0  0  0  0  0  0  0  0  0  0  0  0
    7.1418   -2.3632   -0.2387 C   0  0  0  0  0  0  0  0  0  0  0  0
    5.6868   -1.8301   -0.2775 C   0  0  1  0  0  0  0  0  0  0  0  0
    5.0688   -1.9794   -1.6608 C   0  0  0  0  0  0  0  0  0  0  0  0
    4.3951   -0.9823   -2.4189 C   0  0  0  0  0  0  0  0  0  0  0  0
    4.0039   -1.5664   -3.5906 C   0  0  0  0  0  0  0  0  0  0  0  0
    4.4098   -2.8594   -3.6373 O   0  0  0  0  0  0  0  0  0  0  0  0
    5.0487   -3.0937   -2.4606 C   0  0  0  0  0  0  0  0  0  0  0  0
    4.8538   -0.7922    2.0874 H   0  0  0  0  0  0  0  0  0  0  0  0
    6.2448   -1.8062    2.4462 H   0  0  0  0  0  0  0  0  0  0  0  0
    4.6554   -2.2483    3.0348 H   0  0  0  0  0  0  0  0  0  0  0  0
    2.8719   -1.9560    0.7674 H   0  0  0  0  0  0  0  0  0  0  0  0
    3.2307   -3.2373   -0.3300 H   0  0  0  0  0  0  0  0  0  0  0  0
    2.3791   -3.4475    2.4986 H   0  0  0  0  0  0  0  0  0  0  0  0
    2.0499   -4.5070    1.1530 H   0  0  0  0  0  0  0  0  0  0  0  0
    4.4133   -4.3256    2.9910 H   0  0  0  0  0  0  0  0  0  0  0  0
    4.0011   -6.8103    0.1258 H   0  0  0  0  0  0  0  0  0  0  0  0
    5.4147   -6.2001   -0.6841 H   0  0  0  0  0  0  0  0  0  0  0  0
    3.9532   -5.2638   -0.6723 H   0  0  0  0  0  0  0  0  0  0  0  0
    6.5986   -6.7874    1.4593 H   0  0  0  0  0  0  0  0  0  0  0  0
    6.4040   -5.7293    2.8662 H   0  0  0  0  0  0  0  0  0  0  0  0
    5.8037   -8.8902    2.2721 H   0  0  0  0  0  0  0  0  0  0  0  0
    3.9330  -10.3138    2.1670 H   0  0  0  0  0  0  0  0  0  0  0  0
    4.0028   -9.9747    3.8841 H   0  0  0  0  0  0  0  0  0  0  0  0
    0.3184   -9.7983    2.2206 H   0  0  0  0  0  0  0  0  0  0  0  0
    1.3837  -11.0551    3.0461 H   0  0  0  0  0  0  0  0  0  0  0  0
    1.7778   -9.5102    4.9529 H   0  0  0  0  0  0  0  0  0  0  0  0
   -0.5072   -8.0809    4.0303 H   0  0  0  0  0  0  0  0  0  0  0  0
    0.5544   -7.5783    5.3180 H   0  0  0  0  0  0  0  0  0  0  0  0
    0.1679   -6.3397    2.7199 H   0  0  0  0  0  0  0  0  0  0  0  0
    1.0906   -5.7033    4.0403 H   0  0  0  0  0  0  0  0  0  0  0  0
    3.3732   -6.8878    5.0757 H   0  0  0  0  0  0  0  0  0  0  0  0
    2.9971   -5.1789    4.8455 H   0  0  0  0  0  0  0  0  0  0  0  0
    4.6492   -5.7188    4.8309 H   0  0  0  0  0  0  0  0  0  0  0  0
    7.6840   -4.5333    0.1390 H   0  0  0  0  0  0  0  0  0  0  0  0
    7.7385   -1.7925    0.4753 H   0  0  0  0  0  0  0  0  0  0  0  0
    7.6436   -2.3348   -1.2071 H   0  0  0  0  0  0  0  0  0  0  0  0
    5.6736   -0.7591   -0.0714 H   0  0  0  0  0  0  0  0  0  0  0  0
    4.2163    0.0478   -2.1453 H   0  0  0  0  0  0  0  0  0  0  0  0
    3.4658   -1.2187   -4.4568 H   0  0  0  0  0  0  0  0  0  0  0  0
    5.4199   -4.1022   -2.3501 H   0  0  0  0  0  0  0  0  0  0  0  0
  2  1  1  1
  1 30  1  0
  1 31  1  0
  1 32  1  0
  2 21  1  0
  2 24  1  0
  2  3  1  0
  3  4  1  0
  3 33  1  0
  3 34  1  0
  4  5  1  0
  4 35  1  0
  4 36  1  0
  5 19  1  0
  5  6  1  0
  5 37  1  1
  6  7  1  6
  6  8  1  0
  6 21  1  0
  7 38  1  0
  7 39  1  0
  7 40  1  0
  8  9  1  0
  8 41  1  0
  8 42  1  0
  9 19  1  0
  9 10  2  0
 10 11  1  0
 10 43  1  0
 12 11  1  1
 11 44  1  0
 11 45  1  0
 12 14  1  0
 12 13  1  0
 12 18  1  0
 13 14  1  0
 13 46  1  0
 13 47  1  0
 14 15  1  0
 14 48  1  1
 15 49  1  0
 15 50  1  0
 15 16  1  0
 16 51  1  0
 16 52  1  0
 16 17  1  0
 17 19  1  0
 17 18  2  0
 19 20  1  1
 20 53  1  0
 20 54  1  0
 20 55  1  0
 21 22  2  0
 22 23  1  0
 22 56  1  0
 23 24  1  0
 23 57  1  0
 23 58  1  0
 24 25  1  0
 24 59  1  1
 25 29  2  0
 25 26  1  0
 26 27  2  0
 26 60  1  0
 27 28  1  0
 27 61  1  0
 28 29  1  0
 29 62  1  0
M  END
>  <i_m_ct_stereo_status>  (275) 
1

>  <s_m_source_file>  (275) 
/var/tmp/pbs.5076255.sched01/tmpegbcst3k/90u3quomt0.sdf

>  <i_m_source_file_index>  (275) 
18

>  <i_lp_mmshare_version>  (275) 
48012

>  <i_f3d_flags>  (275) 
0

>  <s_epik_input>  (275) 
W2NIXTFvW2NIXVtjSF1jMVtDQEhdKFtDSDJdW0NIXTIpW0NAQF0oW0NIM10pKFtDSDJdW0NIMl0zKUM9MltDQEBdKFtDSDNdKShbQ0gyXUM0PVtDSF1bQ0gyXTUpW0NAQEhdM1tDQEBdNChbQ0gzXSlDKFtOSF02KT1bQ0hdW0NIMl1bQ0BIXShbQ0BdNTY3KVtDSDJdNw==

>  <s_epik_cmdline>  (275) 
J2VwaWtfcHl0aG9uJywgJy1waHQnLCAnMi4wJywgJy1waCcsICc3LjAnLCAnLXRuJywgJzgnLCAnLW1hJywgJzIwMCcsICctaW1hZScsICc8aW5maWxlLm1hZT4nLCAnLW9tYWUnLCAnPG91dGZpbGUubWFlPic=

>  <r_lp_tautomer_probability>  (275) 
1

>  <r_epik_Ionization_Penalty>  (275) 
1.74964

>  <r_epik_Ionization_Penalty_Charging>  (275) 
0

>  <r_epik_Ionization_Penalty_Neutral>  (275) 
1.74964

>  <r_epik_State_Penalty>  (275) 
0.728063

>  <r_epik_Charging_Adjusted_Penalty>  (275) 
0.728063

>  <i_epik_Tot_Q>  (275) 
0

>  <i_epik_Tot_abs_Q>  (275) 
0

>  <s_epik_Chemistry_Notes>  (275) 
This compound has an imine and may undergo hydrolysis.

>  <s_lp_Force_Field>  (275) 
OPLS3e

>  <r_lp_Energy>  (275) 
67.2955

>  <b_lp_Chiralities_Consistent>  (275) 
1

>  <s_lp_Variant>  (275) 
70:0-2

>  <s_i_glide_gridfile>  (275) 
pfpi4k_grid

>  <i_i_glide_lignum>  (275) 
18

>  <i_i_glide_rotatable_bonds>  (275) 
1

>  <r_i_docking_score>  (275) 
-3.37896

>  <r_i_glide_ligand_efficiency>  (275) 
-0.116516

>  <r_i_glide_ligand_efficiency_sa>  (275) 
-0.357974

>  <r_i_glide_ligand_efficiency_ln>  (275) 
-0.773696

>  <r_i_glide_gscore>  (275) 
-3.37896

>  <r_i_glide_lipo>  (275) 
-0.914717

>  <r_i_glide_hbond>  (275) 
0

>  <r_i_glide_metal>  (275) 
-0

>  <r_i_glide_rewards>  (275) 
-0.766657

>  <r_i_glide_evdw>  (275) 
-34.7172

>  <r_i_glide_ecoul>  (275) 
-0.552785

>  <r_i_glide_erotb>  (275) 
0.12966

>  <r_i_glide_esite>  (275) 
-0.00846852

>  <r_i_glide_emodel>  (275) 
-42.4219

>  <r_i_glide_energy>  (275) 
-35.27

>  <r_i_glide_einternal>  (275) 
0.0249065

>  <r_i_glide_intrahb_reward>  (275) 
-0

>  <i_i_glide_confnum>  (275) 
3

>  <i_i_glide_posenum>  (275) 
17

>  <r_i_glide_eff_state_penalty>  (275) 
0

>  <ligand_id>  (275) 
70

>  <original_smiles>  (275) 
CC12CCC3C(C)(CC4=CCC56CC5CC=C(N6)C43C)C1=CCC2c1ccoc1

>  <smiles>  (275) 
[H]C1=C2C(C([H])([H])[H])(C([H])([H])C([H])([H])C3([H])C4(C([H])([H])[H])C5=NC6(C([H])([H])C([H])=C4C([H])([H])C23C([H])([H])[H])C([H])([H])C6([H])C([H])([H])C5([H])[H])C([H])(c2c([H])oc([H])c2[H])C1([H])[H]

$$$$
70:1:1
     RDKit          3D

 62 68  0  0  1  0  0  0  0  0999 V2000
    5.7556   -1.0390    1.3726 C   0  0  0  0  0  0  0  0  0  0  0  0
    4.9225   -1.9059    0.3905 C   0  0  2  0  0  0  0  0  0  0  0  0
    3.4104   -1.6194    0.5948 C   0  0  0  0  0  0  0  0  0  0  0  0
    2.8105   -2.1848    1.9185 C   0  0  0  0  0  0  0  0  0  0  0  0
    3.6357   -3.3569    2.4993 C   0  0  2  0  0  0  0  0  0  0  0  0
    4.2933   -4.2467    1.4304 C   0  0  2  0  0  0  0  0  0  0  0  0
    3.2732   -4.9417    0.4857 C   0  0  0  0  0  0  0  0  0  0  0  0
    4.9432   -5.3101    2.3266 C   0  0  0  0  0  0  0  0  0  0  0  0
    3.8424   -5.5978    3.3375 C   0  0  0  0  0  0  0  0  0  0  0  0
    3.4887   -6.8642    3.6633 C   0  0  0  0  0  0  0  0  0  0  0  0
    2.2749   -7.3652    4.4457 C   0  0  0  0  0  0  0  0  0  0  0  0
    1.0805   -6.4245    4.5123 C   0  0  1  0  0  0  0  0  0  0  0  0
   -0.2747   -6.8229    5.0374 C   0  0  0  0  0  0  0  0  0  0  0  0
    0.5560   -5.8374    5.8328 C   0  0  2  0  0  0  0  0  0  0  0  0
    0.2215   -4.3403    5.8769 C   0  0  0  0  0  0  0  0  0  0  0  0
    0.7688   -3.5322    4.6605 C   0  0  0  0  0  0  0  0  0  0  0  0
    1.5766   -4.4298    3.7268 C   0  0  0  0  0  0  0  0  0  0  0  0
    1.0134   -5.5045    3.3894 N   0  0  0  0  0  0  0  0  0  0  0  0
    3.1220   -4.2716    3.6567 C   0  0  2  0  0  0  0  0  0  0  0  0
    3.6902   -3.7918    5.0167 C   0  0  0  0  0  0  0  0  0  0  0  0
    5.2367   -3.3835    0.5915 C   0  0  0  0  0  0  0  0  0  0  0  0
    6.2252   -3.7901   -0.2081 C   0  0  0  0  0  0  0  0  0  0  0  0
    6.6804   -2.6929   -1.1385 C   0  0  0  0  0  0  0  0  0  0  0  0
    5.5126   -1.6727   -1.0384 C   0  0  1  0  0  0  0  0  0  0  0  0
    4.5288   -1.8359   -2.1856 C   0  0  0  0  0  0  0  0  0  0  0  0
    3.9975   -3.0614   -2.6870 C   0  0  0  0  0  0  0  0  0  0  0  0
    3.1497   -2.7422   -3.7076 C   0  0  0  0  0  0  0  0  0  0  0  0
    3.1314   -1.3992   -3.9067 O   0  0  0  0  0  0  0  0  0  0  0  0
    3.9611   -0.8682   -2.9675 C   0  0  0  0  0  0  0  0  0  0  0  0
    5.7590    0.0078    1.0636 H   0  0  0  0  0  0  0  0  0  0  0  0
    6.7982   -1.3683    1.4105 H   0  0  0  0  0  0  0  0  0  0  0  0
    5.3815   -1.0570    2.3951 H   0  0  0  0  0  0  0  0  0  0  0  0
    3.2154   -0.5487    0.5213 H   0  0  0  0  0  0  0  0  0  0  0  0
    2.8421   -2.0592   -0.2243 H   0  0  0  0  0  0  0  0  0  0  0  0
    2.7847   -1.3889    2.6630 H   0  0  0  0  0  0  0  0  0  0  0  0
    1.7727   -2.4694    1.7453 H   0  0  0  0  0  0  0  0  0  0  0  0
    4.4865   -2.8642    2.9647 H   0  0  0  0  0  0  0  0  0  0  0  0
    2.5204   -5.5109    1.0270 H   0  0  0  0  0  0  0  0  0  0  0  0
    3.7728   -5.6469   -0.1804 H   0  0  0  0  0  0  0  0  0  0  0  0
    2.7344   -4.2430   -0.1504 H   0  0  0  0  0  0  0  0  0  0  0  0
    5.2661   -6.1987    1.7828 H   0  0  0  0  0  0  0  0  0  0  0  0
    5.8092   -4.8965    2.8497 H   0  0  0  0  0  0  0  0  0  0  0  0
    4.1122   -7.6586    3.2854 H   0  0  0  0  0  0  0  0  0  0  0  0
    1.9366   -8.2704    3.9405 H   0  0  0  0  0  0  0  0  0  0  0  0
    2.5829   -7.6636    5.4492 H   0  0  0  0  0  0  0  0  0  0  0  0
   -1.1678   -6.4372    4.5450 H   0  0  0  0  0  0  0  0  0  0  0  0
   -0.3660   -7.8265    5.4501 H   0  0  0  0  0  0  0  0  0  0  0  0
    1.0144   -6.2098    6.7495 H   0  0  0  0  0  0  0  0  0  0  0  0
   -0.8623   -4.2243    5.9497 H   0  0  0  0  0  0  0  0  0  0  0  0
    0.6211   -3.9274    6.8053 H   0  0  0  0  0  0  0  0  0  0  0  0
   -0.0717   -3.1349    4.0945 H   0  0  0  0  0  0  0  0  0  0  0  0
    1.3306   -2.6617    4.9852 H   0  0  0  0  0  0  0  0  0  0  0  0
    3.3207   -4.3999    5.8415 H   0  0  0  0  0  0  0  0  0  0  0  0
    3.4520   -2.7519    5.2257 H   0  0  0  0  0  0  0  0  0  0  0  0
    4.7764   -3.8636    5.0391 H   0  0  0  0  0  0  0  0  0  0  0  0
    6.5903   -4.7998   -0.2919 H   0  0  0  0  0  0  0  0  0  0  0  0
    7.6050   -2.2768   -0.7359 H   0  0  0  0  0  0  0  0  0  0  0  0
    6.8749   -3.0340   -2.1567 H   0  0  0  0  0  0  0  0  0  0  0  0
    5.8786   -0.6510   -1.1286 H   0  0  0  0  0  0  0  0  0  0  0  0
    4.1939   -4.0636   -2.3370 H   0  0  0  0  0  0  0  0  0  0  0  0
    2.5136   -3.3229   -4.3583 H   0  0  0  0  0  0  0  0  0  0  0  0
    4.0244    0.2110   -2.9961 H   0  0  0  0  0  0  0  0  0  0  0  0
  2  1  1  1
  1 30  1  0
  1 31  1  0
  1 32  1  0
  2 21  1  0
  2 24  1  0
  2  3  1  0
  3  4  1  0
  3 33  1  0
  3 34  1  0
  4  5  1  0
  4 35  1  0
  4 36  1  0
  5 19  1  0
  5  6  1  0
  5 37  1  1
  6  7  1  6
  6  8  1  0
  6 21  1  0
  7 38  1  0
  7 39  1  0
  7 40  1  0
  8  9  1  0
  8 41  1  0
  8 42  1  0
  9 19  1  0
  9 10  2  0
 10 11  1  0
 10 43  1  0
 12 11  1  1
 11 44  1  0
 11 45  1  0
 12 14  1  0
 12 13  1  0
 12 18  1  0
 13 14  1  0
 13 46  1  0
 13 47  1  0
 14 15  1  0
 14 48  1  1
 15 49  1  0
 15 50  1  0
 15 16  1  0
 16 51  1  0
 16 52  1  0
 16 17  1  0
 17 19  1  0
 17 18  2  0
 19 20  1  1
 20 53  1  0
 20 54  1  0
 20 55  1  0
 21 22  2  0
 22 23  1  0
 22 56  1  0
 23 24  1  0
 23 57  1  0
 23 58  1  0
 24 25  1  0
 24 59  1  1
 25 29  2  0
 25 26  1  0
 26 27  2  0
 26 60  1  0
 27 28  1  0
 27 61  1  0
 28 29  1  0
 29 62  1  0
M  END
>  <i_m_ct_stereo_status>  (276) 
1

>  <s_m_source_file>  (276) 
/var/tmp/pbs.5076255.sched01/tmpegbcst3k/90u3quomt0.sdf

>  <i_m_source_file_index>  (276) 
18

>  <i_lp_mmshare_version>  (276) 
48012

>  <i_f3d_flags>  (276) 
0

>  <s_epik_input>  (276) 
W2NIXTFvW2NIXVtjSF1jMVtDQEhdKFtDSDJdW0NIXTIpW0NAQF0oW0NIM10pKFtDSDJdW0NIMl0zKUM9MltDQEBdKFtDSDNdKShbQ0gyXUM0PVtDSF1bQ0gyXTUpW0NAQEhdM1tDQEBdNChbQ0gzXSlDKFtOSF02KT1bQ0hdW0NIMl1bQ0BIXShbQ0BdNTY3KVtDSDJdNw==

>  <s_epik_cmdline>  (276) 
J2VwaWtfcHl0aG9uJywgJy1waHQnLCAnMi4wJywgJy1waCcsICc3LjAnLCAnLXRuJywgJzgnLCAnLW1hJywgJzIwMCcsICctaW1hZScsICc8aW5maWxlLm1hZT4nLCAnLW9tYWUnLCAnPG91dGZpbGUubWFlPic=

>  <r_lp_tautomer_probability>  (276) 
1

>  <r_epik_Ionization_Penalty>  (276) 
1.74964

>  <r_epik_Ionization_Penalty_Charging>  (276) 
0

>  <r_epik_Ionization_Penalty_Neutral>  (276) 
1.74964

>  <r_epik_State_Penalty>  (276) 
0.728063

>  <r_epik_Charging_Adjusted_Penalty>  (276) 
0.728063

>  <i_epik_Tot_Q>  (276) 
0

>  <i_epik_Tot_abs_Q>  (276) 
0

>  <s_epik_Chemistry_Notes>  (276) 
This compound has an imine and may undergo hydrolysis.

>  <s_lp_Force_Field>  (276) 
OPLS3e

>  <r_lp_Energy>  (276) 
67.2955

>  <b_lp_Chiralities_Consistent>  (276) 
1

>  <s_lp_Variant>  (276) 
70:0-2

>  <s_i_glide_gridfile>  (276) 
pfpi4k_grid

>  <i_i_glide_lignum>  (276) 
18

>  <i_i_glide_rotatable_bonds>  (276) 
1

>  <r_i_docking_score>  (276) 
-3.17083

>  <r_i_glide_ligand_efficiency>  (276) 
-0.109339

>  <r_i_glide_ligand_efficiency_sa>  (276) 
-0.335924

>  <r_i_glide_ligand_efficiency_ln>  (276) 
-0.726041

>  <r_i_glide_gscore>  (276) 
-3.17083

>  <r_i_glide_lipo>  (276) 
-0.591396

>  <r_i_glide_hbond>  (276) 
0

>  <r_i_glide_metal>  (276) 
-0

>  <r_i_glide_rewards>  (276) 
-0.766657

>  <r_i_glide_evdw>  (276) 
-34.0515

>  <r_i_glide_ecoul>  (276) 
-1.56493

>  <r_i_glide_erotb>  (276) 
0.12966

>  <r_i_glide_esite>  (276) 
-0.00512814

>  <r_i_glide_emodel>  (276) 
-42.2619

>  <r_i_glide_energy>  (276) 
-35.6164

>  <r_i_glide_einternal>  (276) 
0.0632057

>  <r_i_glide_intrahb_reward>  (276) 
-0

>  <i_i_glide_confnum>  (276) 
2

>  <i_i_glide_posenum>  (276) 
19

>  <r_i_glide_eff_state_penalty>  (276) 
0

>  <ligand_id>  (276) 
70

>  <original_smiles>  (276) 
CC12CCC3C(C)(CC4=CCC56CC5CC=C(N6)C43C)C1=CCC2c1ccoc1

>  <smiles>  (276) 
[H]C1=C2C(C([H])([H])[H])(C([H])([H])C([H])([H])C3([H])C4(C([H])([H])[H])C5=NC6(C([H])([H])C([H])=C4C([H])([H])C23C([H])([H])[H])C([H])([H])C6([H])C([H])([H])C5([H])[H])C([H])(c2c([H])oc([H])c2[H])C1([H])[H]

$$$$
70:1:2
     RDKit          3D

 62 68  0  0  1  0  0  0  0  0999 V2000
    5.7468   -1.0228    1.2774 C   0  0  0  0  0  0  0  0  0  0  0  0
    4.9350   -1.9249    0.3068 C   0  0  2  0  0  0  0  0  0  0  0  0
    3.4126   -1.6457    0.4821 C   0  0  0  0  0  0  0  0  0  0  0  0
    2.8032   -2.1819    1.8111 C   0  0  0  0  0  0  0  0  0  0  0  0
    3.6313   -3.3314    2.4319 C   0  0  2  0  0  0  0  0  0  0  0  0
    4.3114   -4.2407    1.3941 C   0  0  2  0  0  0  0  0  0  0  0  0
    3.3103   -4.9646    0.4532 C   0  0  0  0  0  0  0  0  0  0  0  0
    4.9569   -5.2772    2.3234 C   0  0  0  0  0  0  0  0  0  0  0  0
    3.8448   -5.5500    3.3260 C   0  0  0  0  0  0  0  0  0  0  0  0
    3.4960   -6.8116    3.6733 C   0  0  0  0  0  0  0  0  0  0  0  0
    2.2758   -7.3052    4.4506 C   0  0  0  0  0  0  0  0  0  0  0  0
    1.0729   -6.3732    4.4785 C   0  0  1  0  0  0  0  0  0  0  0  0
   -0.2872   -6.7711    4.9917 C   0  0  0  0  0  0  0  0  0  0  0  0
    0.5248   -5.7616    5.7774 C   0  0  2  0  0  0  0  0  0  0  0  0
    0.1812   -4.2659    5.7836 C   0  0  0  0  0  0  0  0  0  0  0  0
    0.7382   -3.4810    4.5575 C   0  0  0  0  0  0  0  0  0  0  0  0
    1.5650   -4.3928    3.6567 C   0  0  0  0  0  0  0  0  0  0  0  0
    1.0154   -5.4788    3.3348 N   0  0  0  0  0  0  0  0  0  0  0  0
    3.1095   -4.2227    3.6036 C   0  0  2  0  0  0  0  0  0  0  0  0
    3.6537   -3.7065    4.9588 C   0  0  0  0  0  0  0  0  0  0  0  0
    5.2611   -3.3932    0.5502 C   0  0  0  0  0  0  0  0  0  0  0  0
    6.2657   -3.8130   -0.2255 C   0  0  0  0  0  0  0  0  0  0  0  0
    6.7280   -2.7341   -1.1728 C   0  0  0  0  0  0  0  0  0  0  0  0
    5.5446   -1.7301   -1.1192 C   0  0  1  0  0  0  0  0  0  0  0  0
    4.5784   -1.9241   -2.2738 C   0  0  0  0  0  0  0  0  0  0  0  0
    3.8185   -0.9267   -2.9500 C   0  0  0  0  0  0  0  0  0  0  0  0
    3.0921   -1.5664   -3.9105 C   0  0  0  0  0  0  0  0  0  0  0  0
    3.3498   -2.8991   -3.9032 O   0  0  0  0  0  0  0  0  0  0  0  0
    4.2424   -3.0992   -2.9006 C   0  0  0  0  0  0  0  0  0  0  0  0
    5.7437    0.0162    0.9427 H   0  0  0  0  0  0  0  0  0  0  0  0
    6.7912   -1.3397    1.3397 H   0  0  0  0  0  0  0  0  0  0  0  0
    5.3582   -1.0182    2.2950 H   0  0  0  0  0  0  0  0  0  0  0  0
    3.2161   -0.5781    0.3838 H   0  0  0  0  0  0  0  0  0  0  0  0
    2.8649   -2.1073   -0.3358 H   0  0  0  0  0  0  0  0  0  0  0  0
    2.7613   -1.3671    2.5347 H   0  0  0  0  0  0  0  0  0  0  0  0
    1.7706   -2.4782    1.6313 H   0  0  0  0  0  0  0  0  0  0  0  0
    4.4697   -2.8190    2.8973 H   0  0  0  0  0  0  0  0  0  0  0  0
    2.5535   -5.5271    0.9944 H   0  0  0  0  0  0  0  0  0  0  0  0
    3.8253   -5.6794   -0.1909 H   0  0  0  0  0  0  0  0  0  0  0  0
    2.7789   -4.2859   -0.2109 H   0  0  0  0  0  0  0  0  0  0  0  0
    5.2941   -6.1748    1.8034 H   0  0  0  0  0  0  0  0  0  0  0  0
    5.8121   -4.8431    2.8472 H   0  0  0  0  0  0  0  0  0  0  0  0
    4.1315   -7.6087    3.3216 H   0  0  0  0  0  0  0  0  0  0  0  0
    1.9528   -8.2241    3.9606 H   0  0  0  0  0  0  0  0  0  0  0  0
    2.5721   -7.5779    5.4650 H   0  0  0  0  0  0  0  0  0  0  0  0
   -1.1756   -6.4047    4.4756 H   0  0  0  0  0  0  0  0  0  0  0  0
   -0.3771   -7.7659    5.4262 H   0  0  0  0  0  0  0  0  0  0  0  0
    0.9708   -6.1097    6.7093 H   0  0  0  0  0  0  0  0  0  0  0  0
   -0.9050   -4.1547    5.8370 H   0  0  0  0  0  0  0  0  0  0  0  0
    0.5629   -3.8288    6.7078 H   0  0  0  0  0  0  0  0  0  0  0  0
   -0.0979   -3.1021    3.9736 H   0  0  0  0  0  0  0  0  0  0  0  0
    1.2886   -2.5990    4.8684 H   0  0  0  0  0  0  0  0  0  0  0  0
    3.2766   -4.2987    5.7913 H   0  0  0  0  0  0  0  0  0  0  0  0
    3.4031   -2.6645    5.1391 H   0  0  0  0  0  0  0  0  0  0  0  0
    4.7398   -3.7682    4.9978 H   0  0  0  0  0  0  0  0  0  0  0  0
    6.6355   -4.8213   -0.2788 H   0  0  0  0  0  0  0  0  0  0  0  0
    7.6388   -2.2927   -0.7648 H   0  0  0  0  0  0  0  0  0  0  0  0
    6.9516   -3.0933   -2.1794 H   0  0  0  0  0  0  0  0  0  0  0  0
    5.8915   -0.7049   -1.2350 H   0  0  0  0  0  0  0  0  0  0  0  0
    3.7894    0.1346   -2.7479 H   0  0  0  0  0  0  0  0  0  0  0  0
    2.3673   -1.2427   -4.6415 H   0  0  0  0  0  0  0  0  0  0  0  0
    4.5279   -4.1319   -2.7592 H   0  0  0  0  0  0  0  0  0  0  0  0
  2  1  1  1
  1 30  1  0
  1 31  1  0
  1 32  1  0
  2 21  1  0
  2 24  1  0
  2  3  1  0
  3  4  1  0
  3 33  1  0
  3 34  1  0
  4  5  1  0
  4 35  1  0
  4 36  1  0
  5 19  1  0
  5  6  1  0
  5 37  1  1
  6  7  1  6
  6  8  1  0
  6 21  1  0
  7 38  1  0
  7 39  1  0
  7 40  1  0
  8  9  1  0
  8 41  1  0
  8 42  1  0
  9 19  1  0
  9 10  2  0
 10 11  1  0
 10 43  1  0
 12 11  1  1
 11 44  1  0
 11 45  1  0
 12 14  1  0
 12 13  1  0
 12 18  1  0
 13 14  1  0
 13 46  1  0
 13 47  1  0
 14 15  1  0
 14 48  1  1
 15 49  1  0
 15 50  1  0
 15 16  1  0
 16 51  1  0
 16 52  1  0
 16 17  1  0
 17 19  1  0
 17 18  2  0
 19 20  1  1
 20 53  1  0
 20 54  1  0
 20 55  1  0
 21 22  2  0
 22 23  1  0
 22 56  1  0
 23 24  1  0
 23 57  1  0
 23 58  1  0
 24 25  1  0
 24 59  1  1
 25 29  2  0
 25 26  1  0
 26 27  2  0
 26 60  1  0
 27 28  1  0
 27 61  1  0
 28 29  1  0
 29 62  1  0
M  END
>  <i_m_ct_stereo_status>  (277) 
1

>  <s_m_source_file>  (277) 
/var/tmp/pbs.5076255.sched01/tmpegbcst3k/90u3quomt0.sdf

>  <i_m_source_file_index>  (277) 
18

>  <i_lp_mmshare_version>  (277) 
48012

>  <i_f3d_flags>  (277) 
0

>  <s_epik_input>  (277) 
W2NIXTFvW2NIXVtjSF1jMVtDQEhdKFtDSDJdW0NIXTIpW0NAQF0oW0NIM10pKFtDSDJdW0NIMl0zKUM9MltDQEBdKFtDSDNdKShbQ0gyXUM0PVtDSF1bQ0gyXTUpW0NAQEhdM1tDQEBdNChbQ0gzXSlDKFtOSF02KT1bQ0hdW0NIMl1bQ0BIXShbQ0BdNTY3KVtDSDJdNw==

>  <s_epik_cmdline>  (277) 
J2VwaWtfcHl0aG9uJywgJy1waHQnLCAnMi4wJywgJy1waCcsICc3LjAnLCAnLXRuJywgJzgnLCAnLW1hJywgJzIwMCcsICctaW1hZScsICc8aW5maWxlLm1hZT4nLCAnLW9tYWUnLCAnPG91dGZpbGUubWFlPic=

>  <r_lp_tautomer_probability>  (277) 
1

>  <r_epik_Ionization_Penalty>  (277) 
1.74964

>  <r_epik_Ionization_Penalty_Charging>  (277) 
0

>  <r_epik_Ionization_Penalty_Neutral>  (277) 
1.74964

>  <r_epik_State_Penalty>  (277) 
0.728063

>  <r_epik_Charging_Adjusted_Penalty>  (277) 
0.728063

>  <i_epik_Tot_Q>  (277) 
0

>  <i_epik_Tot_abs_Q>  (277) 
0

>  <s_epik_Chemistry_Notes>  (277) 
This compound has an imine and may undergo hydrolysis.

>  <s_lp_Force_Field>  (277) 
OPLS3e

>  <r_lp_Energy>  (277) 
67.2955

>  <b_lp_Chiralities_Consistent>  (277) 
1

>  <s_lp_Variant>  (277) 
70:0-2

>  <s_i_glide_gridfile>  (277) 
pfpi4k_grid

>  <i_i_glide_lignum>  (277) 
18

>  <i_i_glide_rotatable_bonds>  (277) 
1

>  <r_i_docking_score>  (277) 
-3.11173

>  <r_i_glide_ligand_efficiency>  (277) 
-0.107301

>  <r_i_glide_ligand_efficiency_sa>  (277) 
-0.329663

>  <r_i_glide_ligand_efficiency_ln>  (277) 
-0.712508

>  <r_i_glide_gscore>  (277) 
-3.11173

>  <r_i_glide_lipo>  (277) 
-0.493136

>  <r_i_glide_hbond>  (277) 
-0.000987655

>  <r_i_glide_metal>  (277) 
-0

>  <r_i_glide_rewards>  (277) 
-0.766657

>  <r_i_glide_evdw>  (277) 
-33.7487

>  <r_i_glide_ecoul>  (277) 
-1.91659

>  <r_i_glide_erotb>  (277) 
0.12966

>  <r_i_glide_esite>  (277) 
-0.00568513

>  <r_i_glide_emodel>  (277) 
-42.2067

>  <r_i_glide_energy>  (277) 
-35.6653

>  <r_i_glide_einternal>  (277) 
0.0455403

>  <r_i_glide_intrahb_reward>  (277) 
-0

>  <i_i_glide_confnum>  (277) 
1

>  <i_i_glide_posenum>  (277) 
1

>  <r_i_glide_eff_state_penalty>  (277) 
0

>  <ligand_id>  (277) 
70

>  <original_smiles>  (277) 
CC12CCC3C(C)(CC4=CCC56CC5CC=C(N6)C43C)C1=CCC2c1ccoc1

>  <smiles>  (277) 
[H]C1=C2C(C([H])([H])[H])(C([H])([H])C([H])([H])C3([H])C4(C([H])([H])[H])C5=NC6(C([H])([H])C([H])=C4C([H])([H])C23C([H])([H])[H])C([H])([H])C6([H])C([H])([H])C5([H])[H])C([H])(c2c([H])oc([H])c2[H])C1([H])[H]

$$$$
71:0:0
     RDKit          3D

 54 59  0  0  1  0  0  0  0  0999 V2000
    2.0714   -3.3865   -2.1371 C   0  0  0  0  0  0  0  0  0  0  0  0
    2.3648   -3.9660   -1.0492 N   0  0  0  0  0  0  0  0  0  0  0  0
    2.2770   -3.1442    0.1208 N   0  0  0  0  0  0  0  0  0  0  0  0
    3.3044   -2.5060    0.5171 C   0  0  0  0  0  0  0  0  0  0  0  0
    3.2568   -1.5362    1.7211 C   0  0  1  0  0  0  0  0  0  0  0  0
    1.8755   -1.3781    2.3827 C   0  0  0  0  0  0  0  0  0  0  0  0
    1.0042   -0.6227    2.0107 O   0  0  0  0  0  0  0  0  0  0  0  0
    1.8482   -2.0821    3.5094 O   0  0  0  0  0  0  0  0  0  0  0  0
    3.0364   -2.7940    3.7513 C   0  0  0  0  0  0  0  0  0  0  0  0
    4.0895   -2.0685    2.8936 C   0  0  2  0  0  0  0  0  0  0  0  0
    4.4836   -0.9264    3.6442 O   0  0  0  0  0  0  0  0  0  0  0  0
    5.4131   -2.8056    2.4675 C   0  0  1  0  0  0  0  0  0  0  0  0
    5.7350   -4.3340    2.7212 C   0  0  2  0  0  0  0  0  0  0  0  0
    6.7814   -4.6666    1.6038 C   0  0  1  0  0  0  0  0  0  0  0  0
    7.0074   -6.1425    1.1615 C   0  0  0  0  0  0  0  0  0  0  0  0
    5.7909   -7.0677    1.2932 C   0  0  0  0  0  0  0  0  0  0  0  0
    5.1932   -6.8157    2.6665 C   0  0  2  0  0  0  0  0  0  0  0  0
    4.0548   -7.6914    3.1434 C   0  0  0  0  0  0  0  0  0  0  0  0
    3.4937   -6.7847    4.2130 C   0  0  0  0  0  0  0  0  0  0  0  0
    2.7796   -7.1658    5.1317 O   0  0  0  0  0  0  0  0  0  0  0  0
    3.9336   -5.5388    3.9924 O   0  0  0  0  0  0  0  0  0  0  0  0
    4.6159   -5.4025    2.7527 C   0  0  1  0  0  0  0  0  0  0  0  0
    6.4791   -3.7183    0.4576 C   0  0  1  0  0  0  0  0  0  0  0  0
    5.2700   -3.9775   -0.4212 C   0  0  0  0  0  0  0  0  0  0  0  0
    4.7242   -2.5646   -0.1175 C   0  0  1  0  0  0  0  0  0  0  0  0
    4.8323   -1.5707   -1.2900 C   0  0  0  0  0  0  0  0  0  0  0  0
    5.8007   -2.4726    1.0019 C   0  0  1  0  0  0  0  0  0  0  0  0
    6.6029   -1.1647    0.9884 C   0  0  0  0  0  0  0  0  0  0  0  0
    2.1257   -3.8875   -3.1052 H   0  0  0  0  0  0  0  0  0  0  0  0
    1.8083   -2.3216   -2.1736 H   0  0  0  0  0  0  0  0  0  0  0  0
    3.5894   -0.5551    1.3670 H   0  0  0  0  0  0  0  0  0  0  0  0
    3.2838   -2.8890    4.8124 H   0  0  0  0  0  0  0  0  0  0  0  0
    2.7713   -3.7589    3.3430 H   0  0  0  0  0  0  0  0  0  0  0  0
    3.7322   -0.3692    3.7494 H   0  0  0  0  0  0  0  0  0  0  0  0
    6.1749   -2.3486    3.1000 H   0  0  0  0  0  0  0  0  0  0  0  0
    6.2126   -4.4284    3.6981 H   0  0  0  0  0  0  0  0  0  0  0  0
    7.7475   -4.3541    1.9826 H   0  0  0  0  0  0  0  0  0  0  0  0
    7.3574   -6.1688    0.1326 H   0  0  0  0  0  0  0  0  0  0  0  0
    7.8208   -6.5662    1.7613 H   0  0  0  0  0  0  0  0  0  0  0  0
    5.0510   -6.8770    0.5141 H   0  0  0  0  0  0  0  0  0  0  0  0
    6.0984   -8.1101    1.1876 H   0  0  0  0  0  0  0  0  0  0  0  0
    6.0010   -6.9226    3.3981 H   0  0  0  0  0  0  0  0  0  0  0  0
    3.3043   -7.8681    2.3712 H   0  0  0  0  0  0  0  0  0  0  0  0
    4.3940   -8.6414    3.5617 H   0  0  0  0  0  0  0  0  0  0  0  0
    3.8945   -5.2437    1.9468 H   0  0  0  0  0  0  0  0  0  0  0  0
    7.3418   -3.4653   -0.1535 H   0  0  0  0  0  0  0  0  0  0  0  0
    5.5577   -4.1263   -1.4632 H   0  0  0  0  0  0  0  0  0  0  0  0
    4.6491   -4.7977   -0.0715 H   0  0  0  0  0  0  0  0  0  0  0  0
    5.8254   -1.6055   -1.7339 H   0  0  0  0  0  0  0  0  0  0  0  0
    4.6203   -0.5443   -0.9857 H   0  0  0  0  0  0  0  0  0  0  0  0
    4.1683   -1.8071   -2.1131 H   0  0  0  0  0  0  0  0  0  0  0  0
    7.0676   -0.9814    0.0276 H   0  0  0  0  0  0  0  0  0  0  0  0
    7.4285   -1.1708    1.6778 H   0  0  0  0  0  0  0  0  0  0  0  0
    5.9871   -0.3012    1.2453 H   0  0  0  0  0  0  0  0  0  0  0  0
  1  2  2  0
  1 29  1  0
  1 30  1  0
  2  3  1  0
  3  4  2  3
  4 25  1  0
  4  5  1  0
  5 10  1  0
  5  6  1  0
  5 31  1  6
  6  7  2  0
  6  8  1  0
  8  9  1  0
  9 10  1  0
  9 32  1  0
  9 33  1  0
 10 11  1  1
 10 12  1  0
 11 34  1  0
 12 27  1  0
 12 13  1  0
 12 35  1  1
 13 22  1  0
 13 14  1  0
 13 36  1  1
 14 15  1  0
 14 23  1  0
 14 37  1  1
 15 16  1  0
 15 38  1  0
 15 39  1  0
 16 17  1  0
 16 40  1  0
 16 41  1  0
 17 22  1  0
 17 18  1  0
 17 42  1  1
 18 19  1  0
 18 43  1  0
 18 44  1  0
 19 20  2  0
 19 21  1  0
 21 22  1  0
 22 45  1  6
 23 27  1  0
 23 24  1  0
 23 46  1  6
 24 25  1  0
 24 47  1  0
 24 48  1  0
 25 26  1  6
 25 27  1  0
 26 49  1  0
 26 50  1  0
 26 51  1  0
 27 28  1  1
 28 52  1  0
 28 53  1  0
 28 54  1  0
M  END
>  <i_m_ct_stereo_status>  (278) 
1

>  <s_m_source_file>  (278) 
/var/tmp/pbs.5076255.sched01/tmpegbcst3k/90u3quomt0.sdf

>  <i_m_source_file_index>  (278) 
19

>  <i_lp_mmshare_version>  (278) 
48012

>  <i_f3d_flags>  (278) 
0

>  <s_epik_input>  (278) 
W0NIMl0xT0MoPU8pW0NAQEhdKFtDQEBdMTJbT0hdKVxDKD1OXE49W0NIMl0pW0NAQF0zKFtDSDNdKVtDQEBdNChbQ0gzXSlbQ0BASF0yW0NAQEhdNVtDQEhdKFtDQEhdNFtDSDJdMylbQ0gyXVtDSDJdW0NASF02W0NASF01T0MoPU8pW0NIMl02

>  <s_epik_cmdline>  (278) 
J2VwaWtfcHl0aG9uJywgJy1waHQnLCAnMi4wJywgJy1waCcsICc3LjAnLCAnLXRuJywgJzgnLCAnLW1hJywgJzIwMCcsICctaW1hZScsICc8aW5maWxlLm1hZT4nLCAnLW9tYWUnLCAnPG91dGZpbGUubWFlPic=

>  <r_lp_tautomer_probability>  (278) 
1

>  <r_epik_Ionization_Penalty>  (278) 
8.38805e-06

>  <r_epik_Ionization_Penalty_Charging>  (278) 
0

>  <r_epik_Ionization_Penalty_Neutral>  (278) 
8.38805e-06

>  <r_epik_State_Penalty>  (278) 
-0

>  <r_epik_Charging_Adjusted_Penalty>  (278) 
0

>  <i_epik_Tot_Q>  (278) 
0

>  <i_epik_Tot_abs_Q>  (278) 
0

>  <s_epik_Chemistry_Notes>  (278) 
This compound has an ester and may undergo hydrolysis at high or low pH. This compound has an imine and may undergo hydrolysis.

>  <s_lp_Force_Field>  (278) 
OPLS3e

>  <r_lp_Energy>  (278) 
57.5205

>  <b_lp_Chiralities_Consistent>  (278) 
1

>  <s_lp_Variant>  (278) 
71:0-1

>  <s_i_glide_gridfile>  (278) 
pfpi4k_grid

>  <i_i_glide_lignum>  (278) 
19

>  <i_i_glide_rotatable_bonds>  (278) 
2

>  <r_i_docking_score>  (278) 
-2.22059

>  <r_i_glide_ligand_efficiency>  (278) 
-0.0793069

>  <r_i_glide_ligand_efficiency_sa>  (278) 
-0.240823

>  <r_i_glide_ligand_efficiency_ln>  (278) 
-0.512578

>  <r_i_glide_gscore>  (278) 
-2.22059

>  <r_i_glide_lipo>  (278) 
-0.582081

>  <r_i_glide_hbond>  (278) 
0

>  <r_i_glide_metal>  (278) 
-0

>  <r_i_glide_rewards>  (278) 
-1.07174

>  <r_i_glide_evdw>  (278) 
-12.9572

>  <r_i_glide_ecoul>  (278) 
0.727259

>  <r_i_glide_erotb>  (278) 
0.130332

>  <r_i_glide_esite>  (278) 
-0.158334

>  <r_i_glide_emodel>  (278) 
-10.7135

>  <r_i_glide_energy>  (278) 
-12.2299

>  <r_i_glide_einternal>  (278) 
3.89478

>  <r_i_glide_intrahb_reward>  (278) 
-0

>  <i_i_glide_confnum>  (278) 
1

>  <i_i_glide_posenum>  (278) 
38

>  <r_i_glide_eff_state_penalty>  (278) 
0

>  <ligand_id>  (278) 
71

>  <original_smiles>  (278) 
C=NN=C1C2C(=O)OCC2(O)C2C3C(CCC4CC(=O)OC43)C3CC1(C)C32C

>  <smiles>  (278) 
[H]OC12C([H])([H])OC(=O)C1([H])C(=NN=C([H])[H])C1(C([H])([H])[H])C([H])([H])C3([H])C4([H])C([H])([H])C([H])([H])C5([H])C([H])([H])C(=O)OC5([H])C4([H])C2([H])C31C([H])([H])[H]

$$$$
71:0:1
     RDKit          3D

 54 59  0  0  1  0  0  0  0  0999 V2000
    2.1910   -3.2574   -2.3395 C   0  0  0  0  0  0  0  0  0  0  0  0
    2.5389   -3.8475   -1.2677 N   0  0  0  0  0  0  0  0  0  0  0  0
    2.4979   -3.0631   -0.0866 N   0  0  0  0  0  0  0  0  0  0  0  0
    3.5495   -2.4339    0.2649 C   0  0  0  0  0  0  0  0  0  0  0  0
    3.5493   -1.4216    1.4339 C   0  0  1  0  0  0  0  0  0  0  0  0
    2.1881   -1.1593    2.0926 C   0  0  0  0  0  0  0  0  0  0  0  0
    1.3551   -0.3699    1.6879 O   0  0  0  0  0  0  0  0  0  0  0  0
    2.0981   -1.8559    3.2321 O   0  0  0  0  0  0  0  0  0  0  0  0
    3.2524   -2.6194    3.4934 C   0  0  0  0  0  0  0  0  0  0  0  0
    4.3390   -1.9715    2.6227 C   0  0  2  0  0  0  0  0  0  0  0  0
    4.8129   -0.8525    3.3594 O   0  0  0  0  0  0  0  0  0  0  0  0
    5.6112   -2.7924    2.2134 C   0  0  1  0  0  0  0  0  0  0  0  0
    5.8500   -4.3347    2.4843 C   0  0  2  0  0  0  0  0  0  0  0  0
    6.8957   -4.7334    1.3881 C   0  0  1  0  0  0  0  0  0  0  0  0
    7.0451   -6.2265    0.9881 C   0  0  0  0  0  0  0  0  0  0  0  0
    5.7757   -7.0787    1.1122 C   0  0  0  0  0  0  0  0  0  0  0  0
    5.1927   -6.7743    2.4790 C   0  0  2  0  0  0  0  0  0  0  0  0
    4.0057   -7.5796    2.9706 C   0  0  0  0  0  0  0  0  0  0  0  0
    3.4983   -6.6252    4.0212 C   0  0  0  0  0  0  0  0  0  0  0  0
    2.7622   -6.9486    4.9455 O   0  0  0  0  0  0  0  0  0  0  0  0
    3.9991   -5.4112    3.7816 O   0  0  0  0  0  0  0  0  0  0  0  0
    4.6793   -5.3379    2.5327 C   0  0  1  0  0  0  0  0  0  0  0  0
    6.6510   -3.7888    0.2223 C   0  0  1  0  0  0  0  0  0  0  0  0
    5.4328   -4.0002   -0.6603 C   0  0  0  0  0  0  0  0  0  0  0  0
    4.9638   -2.5591   -0.3755 C   0  0  1  0  0  0  0  0  0  0  0  0
    5.1066   -1.5944   -1.5671 C   0  0  0  0  0  0  0  0  0  0  0  0
    6.0444   -2.5000    0.7474 C   0  0  1  0  0  0  0  0  0  0  0  0
    6.9341   -1.2462    0.6956 C   0  0  0  0  0  0  0  0  0  0  0  0
    2.2040   -3.7517   -3.3146 H   0  0  0  0  0  0  0  0  0  0  0  0
    1.8844   -2.2234   -2.3408 H   0  0  0  0  0  0  0  0  0  0  0  0
    3.9354   -0.4643    1.0598 H   0  0  0  0  0  0  0  0  0  0  0  0
    3.5042   -2.7054    4.5567 H   0  0  0  0  0  0  0  0  0  0  0  0
    2.9388   -3.5758    3.1055 H   0  0  0  0  0  0  0  0  0  0  0  0
    5.4419   -0.4043    2.8155 H   0  0  0  0  0  0  0  0  0  0  0  0
    6.3866   -2.3563    2.8322 H   0  0  0  0  0  0  0  0  0  0  0  0
    6.2869   -4.4663    3.4712 H   0  0  0  0  0  0  0  0  0  0  0  0
    7.8747   -4.4617    1.7701 H   0  0  0  0  0  0  0  0  0  0  0  0
    7.4196   -6.2601   -0.0251 H   0  0  0  0  0  0  0  0  0  0  0  0
    7.8363   -6.6886    1.5947 H   0  0  0  0  0  0  0  0  0  0  0  0
    5.0454   -6.8585    0.3320 H   0  0  0  0  0  0  0  0  0  0  0  0
    6.0235   -8.1383    1.0234 H   0  0  0  0  0  0  0  0  0  0  0  0
    5.9893   -6.9177    3.2140 H   0  0  0  0  0  0  0  0  0  0  0  0
    3.2489   -7.7232    2.1966 H   0  0  0  0  0  0  0  0  0  0  0  0
    4.2899   -8.5384    3.4039 H   0  0  0  0  0  0  0  0  0  0  0  0
    3.9709   -5.1520    1.7229 H   0  0  0  0  0  0  0  0  0  0  0  0
    7.5301   -3.5952   -0.3901 H   0  0  0  0  0  0  0  0  0  0  0  0
    5.7142   -4.1742   -1.6966 H   0  0  0  0  0  0  0  0  0  0  0  0
    4.7730   -4.7813   -0.2939 H   0  0  0  0  0  0  0  0  0  0  0  0
    6.0882   -1.7032   -2.0126 H   0  0  0  0  0  0  0  0  0  0  0  0
    4.9637   -0.5504   -1.2811 H   0  0  0  0  0  0  0  0  0  0  0  0
    4.4161   -1.8165   -2.3751 H   0  0  0  0  0  0  0  0  0  0  0  0
    7.3702   -1.1144   -0.2887 H   0  0  0  0  0  0  0  0  0  0  0  0
    7.8098   -1.3009    1.3298 H   0  0  0  0  0  0  0  0  0  0  0  0
    6.3703   -0.3424    0.9439 H   0  0  0  0  0  0  0  0  0  0  0  0
  1  2  2  0
  1 29  1  0
  1 30  1  0
  2  3  1  0
  3  4  2  3
  4 25  1  0
  4  5  1  0
  5 10  1  0
  5  6  1  0
  5 31  1  6
  6  7  2  0
  6  8  1  0
  8  9  1  0
  9 10  1  0
  9 32  1  0
  9 33  1  0
 10 11  1  1
 10 12  1  0
 11 34  1  0
 12 27  1  0
 12 13  1  0
 12 35  1  1
 13 22  1  0
 13 14  1  0
 13 36  1  1
 14 15  1  0
 14 23  1  0
 14 37  1  1
 15 16  1  0
 15 38  1  0
 15 39  1  0
 16 17  1  0
 16 40  1  0
 16 41  1  0
 17 22  1  0
 17 18  1  0
 17 42  1  1
 18 19  1  0
 18 43  1  0
 18 44  1  0
 19 20  2  0
 19 21  1  0
 21 22  1  0
 22 45  1  6
 23 27  1  0
 23 24  1  0
 23 46  1  6
 24 25  1  0
 24 47  1  0
 24 48  1  0
 25 26  1  6
 25 27  1  0
 26 49  1  0
 26 50  1  0
 26 51  1  0
 27 28  1  1
 28 52  1  0
 28 53  1  0
 28 54  1  0
M  END
>  <i_m_ct_stereo_status>  (279) 
1

>  <s_m_source_file>  (279) 
/var/tmp/pbs.5076255.sched01/tmpegbcst3k/90u3quomt0.sdf

>  <i_m_source_file_index>  (279) 
19

>  <i_lp_mmshare_version>  (279) 
48012

>  <i_f3d_flags>  (279) 
0

>  <s_epik_input>  (279) 
W0NIMl0xT0MoPU8pW0NAQEhdKFtDQEBdMTJbT0hdKVxDKD1OXE49W0NIMl0pW0NAQF0zKFtDSDNdKVtDQEBdNChbQ0gzXSlbQ0BASF0yW0NAQEhdNVtDQEhdKFtDQEhdNFtDSDJdMylbQ0gyXVtDSDJdW0NASF02W0NASF01T0MoPU8pW0NIMl02

>  <s_epik_cmdline>  (279) 
J2VwaWtfcHl0aG9uJywgJy1waHQnLCAnMi4wJywgJy1waCcsICc3LjAnLCAnLXRuJywgJzgnLCAnLW1hJywgJzIwMCcsICctaW1hZScsICc8aW5maWxlLm1hZT4nLCAnLW9tYWUnLCAnPG91dGZpbGUubWFlPic=

>  <r_lp_tautomer_probability>  (279) 
1

>  <r_epik_Ionization_Penalty>  (279) 
8.38805e-06

>  <r_epik_Ionization_Penalty_Charging>  (279) 
0

>  <r_epik_Ionization_Penalty_Neutral>  (279) 
8.38805e-06

>  <r_epik_State_Penalty>  (279) 
-0

>  <r_epik_Charging_Adjusted_Penalty>  (279) 
0

>  <i_epik_Tot_Q>  (279) 
0

>  <i_epik_Tot_abs_Q>  (279) 
0

>  <s_epik_Chemistry_Notes>  (279) 
This compound has an ester and may undergo hydrolysis at high or low pH. This compound has an imine and may undergo hydrolysis.

>  <s_lp_Force_Field>  (279) 
OPLS3e

>  <r_lp_Energy>  (279) 
57.5205

>  <b_lp_Chiralities_Consistent>  (279) 
1

>  <s_lp_Variant>  (279) 
71:0-1

>  <s_i_glide_gridfile>  (279) 
pfpi4k_grid

>  <i_i_glide_lignum>  (279) 
19

>  <i_i_glide_rotatable_bonds>  (279) 
2

>  <r_i_docking_score>  (279) 
-2.01474

>  <r_i_glide_ligand_efficiency>  (279) 
-0.0719551

>  <r_i_glide_ligand_efficiency_sa>  (279) 
-0.218498

>  <r_i_glide_ligand_efficiency_ln>  (279) 
-0.465062

>  <r_i_glide_gscore>  (279) 
-2.01474

>  <r_i_glide_lipo>  (279) 
-0.562242

>  <r_i_glide_hbond>  (279) 
0

>  <r_i_glide_metal>  (279) 
-0

>  <r_i_glide_rewards>  (279) 
-1.04324

>  <r_i_glide_evdw>  (279) 
-14.2386

>  <r_i_glide_ecoul>  (279) 
2.08743

>  <r_i_glide_erotb>  (279) 
0.130332

>  <r_i_glide_esite>  (279) 
-0.140779

>  <r_i_glide_emodel>  (279) 
-11.367

>  <r_i_glide_energy>  (279) 
-12.1511

>  <r_i_glide_einternal>  (279) 
2.87787

>  <r_i_glide_intrahb_reward>  (279) 
-0

>  <i_i_glide_confnum>  (279) 
2

>  <i_i_glide_posenum>  (279) 
1

>  <r_i_glide_eff_state_penalty>  (279) 
0

>  <ligand_id>  (279) 
71

>  <original_smiles>  (279) 
C=NN=C1C2C(=O)OCC2(O)C2C3C(CCC4CC(=O)OC43)C3CC1(C)C32C

>  <smiles>  (279) 
[H]OC12C([H])([H])OC(=O)C1([H])C(=NN=C([H])[H])C1(C([H])([H])[H])C([H])([H])C3([H])C4([H])C([H])([H])C([H])([H])C5([H])C([H])([H])C(=O)OC5([H])C4([H])C2([H])C31C([H])([H])[H]

$$$$
71:0:2
     RDKit          3D

 54 59  0  0  1  0  0  0  0  0999 V2000
    1.7536   -4.5998   -0.7220 C   0  0  0  0  0  0  0  0  0  0  0  0
    2.3998   -3.5663   -1.0459 N   0  0  0  0  0  0  0  0  0  0  0  0
    2.6991   -2.7797    0.0945 N   0  0  0  0  0  0  0  0  0  0  0  0
    3.8885   -2.8052    0.5440 C   0  0  0  0  0  0  0  0  0  0  0  0
    4.2994   -1.9147    1.7119 C   0  0  1  0  0  0  0  0  0  0  0  0
    3.2128   -0.9440    2.2196 C   0  0  0  0  0  0  0  0  0  0  0  0
    2.9357    0.1182    1.6870 O   0  0  0  0  0  0  0  0  0  0  0  0
    2.7165   -1.4133    3.3752 O   0  0  0  0  0  0  0  0  0  0  0  0
    3.2288   -2.6853    3.7323 C   0  0  0  0  0  0  0  0  0  0  0  0
    4.5421   -2.7762    2.9490 C   0  0  2  0  0  0  0  0  0  0  0  0
    5.4064   -2.0110    3.7494 O   0  0  0  0  0  0  0  0  0  0  0  0
    5.2705   -4.1532    2.6775 C   0  0  1  0  0  0  0  0  0  0  0  0
    4.6508   -5.5818    2.9738 C   0  0  2  0  0  0  0  0  0  0  0  0
    5.3947   -6.5144    1.9511 C   0  0  1  0  0  0  0  0  0  0  0  0
    4.7338   -7.8681    1.5364 C   0  0  0  0  0  0  0  0  0  0  0  0
    3.1976   -7.9091    1.5848 C   0  0  0  0  0  0  0  0  0  0  0  0
    2.7698   -7.2922    2.9016 C   0  0  2  0  0  0  0  0  0  0  0  0
    1.2936   -7.3184    3.2701 C   0  0  0  0  0  0  0  0  0  0  0  0
    1.2900   -6.1884    4.2820 C   0  0  0  0  0  0  0  0  0  0  0  0
    0.4140   -6.0320    5.1217 O   0  0  0  0  0  0  0  0  0  0  0  0
    2.3883   -5.4459    4.0960 O   0  0  0  0  0  0  0  0  0  0  0  0
    3.1182   -5.8037    2.9277 C   0  0  1  0  0  0  0  0  0  0  0  0
    5.8130   -5.6361    0.7891 C   0  0  1  0  0  0  0  0  0  0  0  0
    4.7607   -5.2153   -0.1984 C   0  0  0  0  0  0  0  0  0  0  0  0
    5.0560   -3.7143    0.0421 C   0  0  1  0  0  0  0  0  0  0  0  0
    5.7465   -3.0307   -1.1391 C   0  0  0  0  0  0  0  0  0  0  0  0
    5.9127   -4.1959    1.2544 C   0  0  1  0  0  0  0  0  0  0  0  0
    7.3336   -3.6366    1.2931 C   0  0  0  0  0  0  0  0  0  0  0  0
    1.3413   -5.2483   -1.4978 H   0  0  0  0  0  0  0  0  0  0  0  0
    1.5555   -4.8703    0.3361 H   0  0  0  0  0  0  0  0  0  0  0  0
    5.1659   -1.3319    1.4019 H   0  0  0  0  0  0  0  0  0  0  0  0
    3.3461   -2.8536    4.8074 H   0  0  0  0  0  0  0  0  0  0  0  0
    2.4833   -3.3501    3.3237 H   0  0  0  0  0  0  0  0  0  0  0  0
    6.2194   -1.9467    3.2750 H   0  0  0  0  0  0  0  0  0  0  0  0
    6.1012   -4.1878    3.3870 H   0  0  0  0  0  0  0  0  0  0  0  0
    4.9487   -5.8863    3.9771 H   0  0  0  0  0  0  0  0  0  0  0  0
    6.3207   -6.8010    2.4430 H   0  0  0  0  0  0  0  0  0  0  0  0
    5.0660   -8.1496    0.5373 H   0  0  0  0  0  0  0  0  0  0  0  0
    5.1025   -8.6513    2.2005 H   0  0  0  0  0  0  0  0  0  0  0  0
    2.7473   -7.3401    0.7802 H   0  0  0  0  0  0  0  0  0  0  0  0
    2.8451   -8.9397    1.4902 H   0  0  0  0  0  0  0  0  0  0  0  0
    3.3049   -7.8121    3.6973 H   0  0  0  0  0  0  0  0  0  0  0  0
    0.6445   -7.0732    2.4300 H   0  0  0  0  0  0  0  0  0  0  0  0
    0.9860   -8.2665    3.7115 H   0  0  0  0  0  0  0  0  0  0  0  0
    2.6808   -5.2991    2.0662 H   0  0  0  0  0  0  0  0  0  0  0  0
    6.7072   -5.9680    0.2652 H   0  0  0  0  0  0  0  0  0  0  0  0
    4.9547   -5.5470   -1.2161 H   0  0  0  0  0  0  0  0  0  0  0  0
    3.8401   -5.6143    0.1876 H   0  0  0  0  0  0  0  0  0  0  0  0
    6.5569   -3.6513   -1.5116 H   0  0  0  0  0  0  0  0  0  0  0  0
    6.1608   -2.0620   -0.8673 H   0  0  0  0  0  0  0  0  0  0  0  0
    5.0596   -2.8931   -1.9728 H   0  0  0  0  0  0  0  0  0  0  0  0
    7.8645   -3.7809    0.3517 H   0  0  0  0  0  0  0  0  0  0  0  0
    7.9368   -4.1471    2.0473 H   0  0  0  0  0  0  0  0  0  0  0  0
    7.3138   -2.5631    1.4813 H   0  0  0  0  0  0  0  0  0  0  0  0
  1  2  2  0
  1 29  1  0
  1 30  1  0
  2  3  1  0
  3  4  2  3
  4 25  1  0
  4  5  1  0
  5 10  1  0
  5  6  1  0
  5 31  1  6
  6  7  2  0
  6  8  1  0
  8  9  1  0
  9 10  1  0
  9 32  1  0
  9 33  1  0
 10 11  1  1
 10 12  1  0
 11 34  1  0
 12 27  1  0
 12 13  1  0
 12 35  1  1
 13 22  1  0
 13 14  1  0
 13 36  1  1
 14 15  1  0
 14 23  1  0
 14 37  1  1
 15 16  1  0
 15 38  1  0
 15 39  1  0
 16 17  1  0
 16 40  1  0
 16 41  1  0
 17 22  1  0
 17 18  1  0
 17 42  1  1
 18 19  1  0
 18 43  1  0
 18 44  1  0
 19 20  2  0
 19 21  1  0
 21 22  1  0
 22 45  1  6
 23 27  1  0
 23 24  1  0
 23 46  1  6
 24 25  1  0
 24 47  1  0
 24 48  1  0
 25 26  1  6
 25 27  1  0
 26 49  1  0
 26 50  1  0
 26 51  1  0
 27 28  1  1
 28 52  1  0
 28 53  1  0
 28 54  1  0
M  END
>  <i_m_ct_stereo_status>  (280) 
1

>  <s_m_source_file>  (280) 
/var/tmp/pbs.5076255.sched01/tmpegbcst3k/90u3quomt0.sdf

>  <i_m_source_file_index>  (280) 
19

>  <i_lp_mmshare_version>  (280) 
48012

>  <i_f3d_flags>  (280) 
0

>  <s_epik_input>  (280) 
W0NIMl0xT0MoPU8pW0NAQEhdKFtDQEBdMTJbT0hdKVxDKD1OXE49W0NIMl0pW0NAQF0zKFtDSDNdKVtDQEBdNChbQ0gzXSlbQ0BASF0yW0NAQEhdNVtDQEhdKFtDQEhdNFtDSDJdMylbQ0gyXVtDSDJdW0NASF02W0NASF01T0MoPU8pW0NIMl02

>  <s_epik_cmdline>  (280) 
J2VwaWtfcHl0aG9uJywgJy1waHQnLCAnMi4wJywgJy1waCcsICc3LjAnLCAnLXRuJywgJzgnLCAnLW1hJywgJzIwMCcsICctaW1hZScsICc8aW5maWxlLm1hZT4nLCAnLW9tYWUnLCAnPG91dGZpbGUubWFlPic=

>  <r_lp_tautomer_probability>  (280) 
1

>  <r_epik_Ionization_Penalty>  (280) 
8.38805e-06

>  <r_epik_Ionization_Penalty_Charging>  (280) 
0

>  <r_epik_Ionization_Penalty_Neutral>  (280) 
8.38805e-06

>  <r_epik_State_Penalty>  (280) 
-0

>  <r_epik_Charging_Adjusted_Penalty>  (280) 
0

>  <i_epik_Tot_Q>  (280) 
0

>  <i_epik_Tot_abs_Q>  (280) 
0

>  <s_epik_Chemistry_Notes>  (280) 
This compound has an ester and may undergo hydrolysis at high or low pH. This compound has an imine and may undergo hydrolysis.

>  <s_lp_Force_Field>  (280) 
OPLS3e

>  <r_lp_Energy>  (280) 
57.5205

>  <b_lp_Chiralities_Consistent>  (280) 
1

>  <s_lp_Variant>  (280) 
71:0-1

>  <s_i_glide_gridfile>  (280) 
pfpi4k_grid

>  <i_i_glide_lignum>  (280) 
19

>  <i_i_glide_rotatable_bonds>  (280) 
2

>  <r_i_docking_score>  (280) 
-1.24479

>  <r_i_glide_ligand_efficiency>  (280) 
-0.0444568

>  <r_i_glide_ligand_efficiency_sa>  (280) 
-0.134997

>  <r_i_glide_ligand_efficiency_ln>  (280) 
-0.287334

>  <r_i_glide_gscore>  (280) 
-1.24479

>  <r_i_glide_lipo>  (280) 
-0.460895

>  <r_i_glide_hbond>  (280) 
0

>  <r_i_glide_metal>  (280) 
-0

>  <r_i_glide_rewards>  (280) 
-0.774262

>  <r_i_glide_evdw>  (280) 
-8.24711

>  <r_i_glide_ecoul>  (280) 
2.96086

>  <r_i_glide_erotb>  (280) 
0.130332

>  <r_i_glide_esite>  (280) 
-0.171739

>  <r_i_glide_emodel>  (280) 
-3.09719

>  <r_i_glide_energy>  (280) 
-5.28624

>  <r_i_glide_einternal>  (280) 
2.61019

>  <r_i_glide_intrahb_reward>  (280) 
-0

>  <i_i_glide_confnum>  (280) 
1

>  <i_i_glide_posenum>  (280) 
10

>  <r_i_glide_eff_state_penalty>  (280) 
0

>  <ligand_id>  (280) 
71

>  <original_smiles>  (280) 
C=NN=C1C2C(=O)OCC2(O)C2C3C(CCC4CC(=O)OC43)C3CC1(C)C32C

>  <smiles>  (280) 
[H]OC12C([H])([H])OC(=O)C1([H])C(=NN=C([H])[H])C1(C([H])([H])[H])C([H])([H])C3([H])C4([H])C([H])([H])C([H])([H])C5([H])C([H])([H])C(=O)OC5([H])C4([H])C2([H])C31C([H])([H])[H]

$$$$
71:1:0
     RDKit          3D

 54 59  0  0  1  0  0  0  0  0999 V2000
    7.0315   -5.9321    1.5761 C   0  0  0  0  0  0  0  0  0  0  0  0
    6.3984   -4.8687    1.3207 N   0  0  0  0  0  0  0  0  0  0  0  0
    5.5517   -4.4811    2.3892 N   0  0  0  0  0  0  0  0  0  0  0  0
    5.4055   -3.2439    2.6865 C   0  0  0  0  0  0  0  0  0  0  0  0
    6.0979   -1.9634    2.0969 C   0  0  1  0  0  0  0  0  0  0  0  0
    6.8798   -1.9567    0.7767 C   0  0  0  0  0  0  0  0  0  0  0  0
    7.8396   -2.6699    0.4869 O   0  0  0  0  0  0  0  0  0  0  0  0
    6.5229   -0.8970    0.0777 O   0  0  0  0  0  0  0  0  0  0  0  0
    5.5965   -0.0375    0.6980 C   0  0  0  0  0  0  0  0  0  0  0  0
    5.1973   -0.7417    1.9878 C   0  0  2  0  0  0  0  0  0  0  0  0
    5.5838    0.1358    3.0431 O   0  0  0  0  0  0  0  0  0  0  0  0
    3.6946   -1.0460    2.1306 C   0  0  1  0  0  0  0  0  0  0  0  0
    2.9481   -1.8774    1.0133 C   0  0  2  0  0  0  0  0  0  0  0  0
    2.1019   -2.9504    1.7473 C   0  0  1  0  0  0  0  0  0  0  0  0
    2.2085   -4.4095    1.1849 C   0  0  0  0  0  0  0  0  0  0  0  0
    2.1165   -4.5675   -0.3505 C   0  0  0  0  0  0  0  0  0  0  0  0
    2.6342   -3.3191   -1.0523 C   0  0  2  0  0  0  0  0  0  0  0  0
    3.2619   -3.4360   -2.4232 C   0  0  0  0  0  0  0  0  0  0  0  0
    4.0331   -2.1360   -2.4716 C   0  0  0  0  0  0  0  0  0  0  0  0
    4.4861   -1.6501   -3.5072 O   0  0  0  0  0  0  0  0  0  0  0  0
    4.1315   -1.6447   -1.2297 O   0  0  0  0  0  0  0  0  0  0  0  0
    3.6488   -2.5231   -0.2227 C   0  0  1  0  0  0  0  0  0  0  0  0
    2.3917   -2.8545    3.2261 C   0  0  1  0  0  0  0  0  0  0  0  0
    3.2517   -3.8459    4.0001 C   0  0  0  0  0  0  0  0  0  0  0  0
    4.4527   -2.8933    3.8655 C   0  0  1  0  0  0  0  0  0  0  0  0
    5.2585   -2.7145    5.1496 C   0  0  0  0  0  0  0  0  0  0  0  0
    3.4315   -1.7759    3.4672 C   0  0  1  0  0  0  0  0  0  0  0  0
    3.0406   -0.7739    4.5665 C   0  0  0  0  0  0  0  0  0  0  0  0
    7.7576   -6.3263    0.8627 H   0  0  0  0  0  0  0  0  0  0  0  0
    6.8719   -6.4793    2.5089 H   0  0  0  0  0  0  0  0  0  0  0  0
    6.8354   -1.6346    2.8018 H   0  0  0  0  0  0  0  0  0  0  0  0
    6.1001    0.9081    0.8648 H   0  0  0  0  0  0  0  0  0  0  0  0
    4.7459    0.1671    0.0566 H   0  0  0  0  0  0  0  0  0  0  0  0
    6.5189    0.2470    3.0316 H   0  0  0  0  0  0  0  0  0  0  0  0
    3.1983   -0.0723    2.1462 H   0  0  0  0  0  0  0  0  0  0  0  0
    2.2435   -1.1678    0.5926 H   0  0  0  0  0  0  0  0  0  0  0  0
    1.0906   -2.5623    1.6860 H   0  0  0  0  0  0  0  0  0  0  0  0
    3.1753   -4.8303    1.4419 H   0  0  0  0  0  0  0  0  0  0  0  0
    1.4720   -5.0528    1.6745 H   0  0  0  0  0  0  0  0  0  0  0  0
    2.6593   -5.4609   -0.6497 H   0  0  0  0  0  0  0  0  0  0  0  0
    1.0922   -4.7334   -0.6928 H   0  0  0  0  0  0  0  0  0  0  0  0
    1.7488   -2.7306   -1.2354 H   0  0  0  0  0  0  0  0  0  0  0  0
    3.9753   -4.2506   -2.5086 H   0  0  0  0  0  0  0  0  0  0  0  0
    2.5178   -3.4858   -3.2187 H   0  0  0  0  0  0  0  0  0  0  0  0
    4.4534   -3.1895    0.0856 H   0  0  0  0  0  0  0  0  0  0  0  0
    1.4828   -2.6588    3.7966 H   0  0  0  0  0  0  0  0  0  0  0  0
    2.9072   -3.9142    5.0313 H   0  0  0  0  0  0  0  0  0  0  0  0
    3.3336   -4.8465    3.5816 H   0  0  0  0  0  0  0  0  0  0  0  0
    4.6104   -2.5518    6.0074 H   0  0  0  0  0  0  0  0  0  0  0  0
    5.8932   -1.8384    5.0996 H   0  0  0  0  0  0  0  0  0  0  0  0
    5.8604   -3.5961    5.3683 H   0  0  0  0  0  0  0  0  0  0  0  0
    2.6742   -1.2848    5.4572 H   0  0  0  0  0  0  0  0  0  0  0  0
    2.2485   -0.0945    4.2463 H   0  0  0  0  0  0  0  0  0  0  0  0
    3.8862   -0.1668    4.8843 H   0  0  0  0  0  0  0  0  0  0  0  0
  1  2  2  0
  1 29  1  0
  1 30  1  0
  2  3  1  0
  3  4  2  3
  4 25  1  0
  4  5  1  0
  5 10  1  0
  5  6  1  0
  5 31  1  1
  6  7  2  0
  6  8  1  0
  8  9  1  0
  9 10  1  0
  9 32  1  0
  9 33  1  0
 10 11  1  1
 10 12  1  0
 11 34  1  0
 12 27  1  0
 12 13  1  0
 12 35  1  1
 13 22  1  0
 13 14  1  0
 13 36  1  6
 14 15  1  0
 14 23  1  0
 14 37  1  1
 15 16  1  0
 15 38  1  0
 15 39  1  0
 16 17  1  0
 16 40  1  0
 16 41  1  0
 17 22  1  0
 17 18  1  0
 17 42  1  6
 18 19  1  0
 18 43  1  0
 18 44  1  0
 19 20  2  0
 19 21  1  0
 21 22  1  0
 22 45  1  1
 23 27  1  0
 23 24  1  0
 23 46  1  1
 24 25  1  0
 24 47  1  0
 24 48  1  0
 25 26  1  1
 25 27  1  0
 26 49  1  0
 26 50  1  0
 26 51  1  0
 27 28  1  1
 28 52  1  0
 28 53  1  0
 28 54  1  0
M  END
>  <i_m_ct_stereo_status>  (281) 
1

>  <s_m_source_file>  (281) 
/var/tmp/pbs.5076255.sched01/tmpegbcst3k/90u3quomt0.sdf

>  <i_m_source_file_index>  (281) 
20

>  <i_lp_mmshare_version>  (281) 
48012

>  <i_f3d_flags>  (281) 
0

>  <s_epik_input>  (281) 
W0NIMl0xT0MoPU8pW0NAQEhdKFtDQEBdMTJbT0hdKVxDKD1OXE49W0NIMl0pW0NAQF0zKFtDSDNdKVtDQEBdNChbQ0gzXSlbQ0BASF0yW0NAQEhdNVtDQEhdKFtDQEhdNFtDSDJdMylbQ0gyXVtDSDJdW0NASF02W0NASF01T0MoPU8pW0NIMl02

>  <s_epik_cmdline>  (281) 
J2VwaWtfcHl0aG9uJywgJy1waHQnLCAnMi4wJywgJy1waCcsICc3LjAnLCAnLXRuJywgJzgnLCAnLW1hJywgJzIwMCcsICctaW1hZScsICc8aW5maWxlLm1hZT4nLCAnLW9tYWUnLCAnPG91dGZpbGUubWFlPic=

>  <r_lp_tautomer_probability>  (281) 
1

>  <r_epik_Ionization_Penalty>  (281) 
8.38805e-06

>  <r_epik_Ionization_Penalty_Charging>  (281) 
0

>  <r_epik_Ionization_Penalty_Neutral>  (281) 
8.38805e-06

>  <r_epik_State_Penalty>  (281) 
-0

>  <r_epik_Charging_Adjusted_Penalty>  (281) 
0

>  <i_epik_Tot_Q>  (281) 
0

>  <i_epik_Tot_abs_Q>  (281) 
0

>  <s_epik_Chemistry_Notes>  (281) 
This compound has an ester and may undergo hydrolysis at high or low pH. This compound has an imine and may undergo hydrolysis.

>  <s_lp_Force_Field>  (281) 
OPLS3e

>  <r_lp_Energy>  (281) 
60.3461

>  <b_lp_Chiralities_Consistent>  (281) 
1

>  <s_lp_Variant>  (281) 
71:0-2

>  <s_i_glide_gridfile>  (281) 
pfpi4k_grid

>  <i_i_glide_lignum>  (281) 
20

>  <i_i_glide_rotatable_bonds>  (281) 
2

>  <r_i_docking_score>  (281) 
-2.69413

>  <r_i_glide_ligand_efficiency>  (281) 
-0.096219

>  <r_i_glide_ligand_efficiency_sa>  (281) 
-0.292177

>  <r_i_glide_ligand_efficiency_ln>  (281) 
-0.621885

>  <r_i_glide_gscore>  (281) 
-2.69413

>  <r_i_glide_lipo>  (281) 
-0.366078

>  <r_i_glide_hbond>  (281) 
-0.040054

>  <r_i_glide_metal>  (281) 
-0

>  <r_i_glide_rewards>  (281) 
-0.997561

>  <r_i_glide_evdw>  (281) 
-11.751

>  <r_i_glide_ecoul>  (281) 
-5.55479

>  <r_i_glide_erotb>  (281) 
0.130332

>  <r_i_glide_esite>  (281) 
0

>  <r_i_glide_emodel>  (281) 
-17.4461

>  <r_i_glide_energy>  (281) 
-17.3058

>  <r_i_glide_einternal>  (281) 
0.353137

>  <r_i_glide_intrahb_reward>  (281) 
-0

>  <i_i_glide_confnum>  (281) 
2

>  <i_i_glide_posenum>  (281) 
38

>  <r_i_glide_eff_state_penalty>  (281) 
0

>  <ligand_id>  (281) 
71

>  <original_smiles>  (281) 
C=NN=C1C2C(=O)OCC2(O)C2C3C(CCC4CC(=O)OC43)C3CC1(C)C32C

>  <smiles>  (281) 
[H]OC12C([H])([H])OC(=O)C1([H])C(=NN=C([H])[H])C1(C([H])([H])[H])C([H])([H])C3([H])C4([H])C([H])([H])C([H])([H])C5([H])C([H])([H])C(=O)OC5([H])C4([H])C2([H])C31C([H])([H])[H]

$$$$
71:1:1
     RDKit          3D

 54 59  0  0  1  0  0  0  0  0999 V2000
    5.8624   -5.6037    0.5386 C   0  0  0  0  0  0  0  0  0  0  0  0
    6.4117   -4.8527    1.3792 N   0  0  0  0  0  0  0  0  0  0  0  0
    5.5416   -4.4729    2.4179 N   0  0  0  0  0  0  0  0  0  0  0  0
    5.4068   -3.2347    2.6997 C   0  0  0  0  0  0  0  0  0  0  0  0
    6.0948   -1.9542    2.1036 C   0  0  1  0  0  0  0  0  0  0  0  0
    6.8796   -1.9453    0.7790 C   0  0  0  0  0  0  0  0  0  0  0  0
    7.8312   -2.6663    0.4889 O   0  0  0  0  0  0  0  0  0  0  0  0
    6.5169   -0.9002    0.0719 O   0  0  0  0  0  0  0  0  0  0  0  0
    5.5972   -0.0357    0.6881 C   0  0  0  0  0  0  0  0  0  0  0  0
    5.1864   -0.7403    1.9797 C   0  0  2  0  0  0  0  0  0  0  0  0
    5.5439    0.1437    3.0346 O   0  0  0  0  0  0  0  0  0  0  0  0
    3.6853   -1.0498    2.1280 C   0  0  1  0  0  0  0  0  0  0  0  0
    2.9423   -1.8793    1.0137 C   0  0  2  0  0  0  0  0  0  0  0  0
    2.0959   -2.9500    1.7540 C   0  0  1  0  0  0  0  0  0  0  0  0
    2.1988   -4.4079    1.1900 C   0  0  0  0  0  0  0  0  0  0  0  0
    2.1162   -4.5706   -0.3464 C   0  0  0  0  0  0  0  0  0  0  0  0
    2.6311   -3.3189   -1.0493 C   0  0  2  0  0  0  0  0  0  0  0  0
    3.2607   -3.4371   -2.4212 C   0  0  0  0  0  0  0  0  0  0  0  0
    4.0282   -2.1337   -2.4707 C   0  0  0  0  0  0  0  0  0  0  0  0
    4.4849   -1.6511   -3.5051 O   0  0  0  0  0  0  0  0  0  0  0  0
    4.1311   -1.6405   -1.2288 O   0  0  0  0  0  0  0  0  0  0  0  0
    3.6468   -2.5197   -0.2222 C   0  0  1  0  0  0  0  0  0  0  0  0
    2.3933   -2.8539    3.2311 C   0  0  1  0  0  0  0  0  0  0  0  0
    3.2545   -3.8445    4.0050 C   0  0  0  0  0  0  0  0  0  0  0  0
    4.4480   -2.8857    3.8728 C   0  0  1  0  0  0  0  0  0  0  0  0
    5.2587   -2.7097    5.1541 C   0  0  0  0  0  0  0  0  0  0  0  0
    3.4298   -1.7734    3.4706 C   0  0  1  0  0  0  0  0  0  0  0  0
    3.0389   -0.7718    4.5690 C   0  0  0  0  0  0  0  0  0  0  0  0
    6.4533   -5.9597   -0.3085 H   0  0  0  0  0  0  0  0  0  0  0  0
    4.8258   -5.9269    0.6022 H   0  0  0  0  0  0  0  0  0  0  0  0
    6.8312   -1.6063    2.8078 H   0  0  0  0  0  0  0  0  0  0  0  0
    6.1008    0.9123    0.8660 H   0  0  0  0  0  0  0  0  0  0  0  0
    4.7424    0.1708    0.0543 H   0  0  0  0  0  0  0  0  0  0  0  0
    4.8887    0.8217    3.1046 H   0  0  0  0  0  0  0  0  0  0  0  0
    3.1877   -0.0776    2.1426 H   0  0  0  0  0  0  0  0  0  0  0  0
    2.2364   -1.1687    0.5929 H   0  0  0  0  0  0  0  0  0  0  0  0
    1.0854   -2.5537    1.7030 H   0  0  0  0  0  0  0  0  0  0  0  0
    3.1606   -4.8198    1.4630 H   0  0  0  0  0  0  0  0  0  0  0  0
    1.4639   -5.0503    1.6771 H   0  0  0  0  0  0  0  0  0  0  0  0
    2.6584   -5.4689   -0.6488 H   0  0  0  0  0  0  0  0  0  0  0  0
    1.0925   -4.7315   -0.6917 H   0  0  0  0  0  0  0  0  0  0  0  0
    1.7427   -2.7309   -1.2352 H   0  0  0  0  0  0  0  0  0  0  0  0
    3.9781   -4.2550   -2.5088 H   0  0  0  0  0  0  0  0  0  0  0  0
    2.5153   -3.4832   -3.2159 H   0  0  0  0  0  0  0  0  0  0  0  0
    4.4560   -3.1842    0.0901 H   0  0  0  0  0  0  0  0  0  0  0  0
    1.4840   -2.6588    3.8002 H   0  0  0  0  0  0  0  0  0  0  0  0
    2.9074   -3.9123    5.0354 H   0  0  0  0  0  0  0  0  0  0  0  0
    3.3375   -4.8466    3.5843 H   0  0  0  0  0  0  0  0  0  0  0  0
    4.6123   -2.5466    6.0145 H   0  0  0  0  0  0  0  0  0  0  0  0
    5.8946   -1.8349    5.1009 H   0  0  0  0  0  0  0  0  0  0  0  0
    5.8617   -3.5924    5.3703 H   0  0  0  0  0  0  0  0  0  0  0  0
    2.6730   -1.2858    5.4600 H   0  0  0  0  0  0  0  0  0  0  0  0
    2.2459   -0.0920    4.2488 H   0  0  0  0  0  0  0  0  0  0  0  0
    3.8860   -0.1692    4.8914 H   0  0  0  0  0  0  0  0  0  0  0  0
  1  2  2  0
  1 29  1  0
  1 30  1  0
  2  3  1  0
  3  4  2  3
  4 25  1  0
  4  5  1  0
  5 10  1  0
  5  6  1  0
  5 31  1  1
  6  7  2  0
  6  8  1  0
  8  9  1  0
  9 10  1  0
  9 32  1  0
  9 33  1  0
 10 11  1  1
 10 12  1  0
 11 34  1  0
 12 27  1  0
 12 13  1  0
 12 35  1  1
 13 22  1  0
 13 14  1  0
 13 36  1  6
 14 15  1  0
 14 23  1  0
 14 37  1  1
 15 16  1  0
 15 38  1  0
 15 39  1  0
 16 17  1  0
 16 40  1  0
 16 41  1  0
 17 22  1  0
 17 18  1  0
 17 42  1  6
 18 19  1  0
 18 43  1  0
 18 44  1  0
 19 20  2  0
 19 21  1  0
 21 22  1  0
 22 45  1  1
 23 27  1  0
 23 24  1  0
 23 46  1  1
 24 25  1  0
 24 47  1  0
 24 48  1  0
 25 26  1  1
 25 27  1  0
 26 49  1  0
 26 50  1  0
 26 51  1  0
 27 28  1  1
 28 52  1  0
 28 53  1  0
 28 54  1  0
M  END
>  <i_m_ct_stereo_status>  (282) 
1

>  <s_m_source_file>  (282) 
/var/tmp/pbs.5076255.sched01/tmpegbcst3k/90u3quomt0.sdf

>  <i_m_source_file_index>  (282) 
20

>  <i_lp_mmshare_version>  (282) 
48012

>  <i_f3d_flags>  (282) 
0

>  <s_epik_input>  (282) 
W0NIMl0xT0MoPU8pW0NAQEhdKFtDQEBdMTJbT0hdKVxDKD1OXE49W0NIMl0pW0NAQF0zKFtDSDNdKVtDQEBdNChbQ0gzXSlbQ0BASF0yW0NAQEhdNVtDQEhdKFtDQEhdNFtDSDJdMylbQ0gyXVtDSDJdW0NASF02W0NASF01T0MoPU8pW0NIMl02

>  <s_epik_cmdline>  (282) 
J2VwaWtfcHl0aG9uJywgJy1waHQnLCAnMi4wJywgJy1waCcsICc3LjAnLCAnLXRuJywgJzgnLCAnLW1hJywgJzIwMCcsICctaW1hZScsICc8aW5maWxlLm1hZT4nLCAnLW9tYWUnLCAnPG91dGZpbGUubWFlPic=

>  <r_lp_tautomer_probability>  (282) 
1

>  <r_epik_Ionization_Penalty>  (282) 
8.38805e-06

>  <r_epik_Ionization_Penalty_Charging>  (282) 
0

>  <r_epik_Ionization_Penalty_Neutral>  (282) 
8.38805e-06

>  <r_epik_State_Penalty>  (282) 
-0

>  <r_epik_Charging_Adjusted_Penalty>  (282) 
0

>  <i_epik_Tot_Q>  (282) 
0

>  <i_epik_Tot_abs_Q>  (282) 
0

>  <s_epik_Chemistry_Notes>  (282) 
This compound has an ester and may undergo hydrolysis at high or low pH. This compound has an imine and may undergo hydrolysis.

>  <s_lp_Force_Field>  (282) 
OPLS3e

>  <r_lp_Energy>  (282) 
60.3461

>  <b_lp_Chiralities_Consistent>  (282) 
1

>  <s_lp_Variant>  (282) 
71:0-2

>  <s_i_glide_gridfile>  (282) 
pfpi4k_grid

>  <i_i_glide_lignum>  (282) 
20

>  <i_i_glide_rotatable_bonds>  (282) 
2

>  <r_i_docking_score>  (282) 
-2.63341

>  <r_i_glide_ligand_efficiency>  (282) 
-0.0940505

>  <r_i_glide_ligand_efficiency_sa>  (282) 
-0.285593

>  <r_i_glide_ligand_efficiency_ln>  (282) 
-0.607869

>  <r_i_glide_gscore>  (282) 
-2.63341

>  <r_i_glide_lipo>  (282) 
-0.366678

>  <r_i_glide_hbond>  (282) 
-0.040401

>  <r_i_glide_metal>  (282) 
-0

>  <r_i_glide_rewards>  (282) 
-1.02282

>  <r_i_glide_evdw>  (282) 
-10.4907

>  <r_i_glide_ecoul>  (282) 
-5.39543

>  <r_i_glide_erotb>  (282) 
0.130332

>  <r_i_glide_esite>  (282) 
0

>  <r_i_glide_emodel>  (282) 
-16.0143

>  <r_i_glide_energy>  (282) 
-15.8861

>  <r_i_glide_einternal>  (282) 
0.681067

>  <r_i_glide_intrahb_reward>  (282) 
-0

>  <i_i_glide_confnum>  (282) 
2

>  <i_i_glide_posenum>  (282) 
12

>  <r_i_glide_eff_state_penalty>  (282) 
0

>  <ligand_id>  (282) 
71

>  <original_smiles>  (282) 
C=NN=C1C2C(=O)OCC2(O)C2C3C(CCC4CC(=O)OC43)C3CC1(C)C32C

>  <smiles>  (282) 
[H]OC12C([H])([H])OC(=O)C1([H])C(=NN=C([H])[H])C1(C([H])([H])[H])C([H])([H])C3([H])C4([H])C([H])([H])C([H])([H])C5([H])C([H])([H])C(=O)OC5([H])C4([H])C2([H])C31C([H])([H])[H]

$$$$
72:0:0
     RDKit          3D

 43 46  0  0  1  0  0  0  0  0999 V2000
    3.0860   -0.9258   -3.0912 C   0  0  0  0  0  0  0  0  0  0  0  0
    4.1512   -1.6178   -2.2060 C   0  0  2  0  0  0  0  0  0  0  0  0
    4.5603   -2.8474   -3.0265 C   0  0  0  0  0  0  0  0  0  0  0  0
    5.4424   -3.8288   -2.2753 C   0  0  0  0  0  0  0  0  0  0  0  0
    5.9160   -3.2337   -0.9767 C   0  0  2  0  0  0  0  0  0  0  0  0
    7.1073   -3.8819   -0.2730 C   0  0  0  0  0  0  0  0  0  0  0  0
    7.6759   -2.8770    0.7445 C   0  0  0  0  0  0  0  0  0  0  0  0
    6.6045   -1.9300    1.3396 C   0  0  1  0  0  0  0  0  0  0  0  0
    6.6058   -0.6934    0.6777 O   0  0  0  0  0  0  0  0  0  0  0  0
    5.2657   -2.6446    1.3600 C   0  0  1  0  0  0  0  0  0  0  0  0
    4.4117   -2.1539    2.3484 O   0  0  0  0  0  0  0  0  0  0  0  0
    3.0955   -2.6011    2.0934 C   0  0  1  0  0  0  0  0  0  0  0  0
    2.4013   -2.7938    3.4622 C   0  0  0  0  0  0  0  0  0  0  0  0
    2.4339   -1.4608    1.3442 C   0  0  0  0  0  0  0  0  0  0  0  0
    3.3137   -0.9390    0.2090 C   0  0  0  0  0  0  0  0  0  0  0  0
    3.6972   -2.0422   -0.7658 C   0  0  2  0  0  0  0  0  0  0  0  0
    4.7059   -2.9612   -0.0394 C   0  0  1  0  0  0  0  0  0  0  0  0
    4.0260   -4.1512    0.3215 O   0  0  0  0  0  0  0  0  0  0  0  0
    2.9361   -3.8623    1.3984 O   0  0  0  0  0  0  0  0  0  0  0  0
    2.2320   -1.5851   -3.1101 H   0  0  0  0  0  0  0  0  0  0  0  0
    3.4120   -0.7728   -4.1093 H   0  0  0  0  0  0  0  0  0  0  0  0
    2.7658    0.0631   -2.7307 H   0  0  0  0  0  0  0  0  0  0  0  0
    4.9675   -0.9089   -2.1322 H   0  0  0  0  0  0  0  0  0  0  0  0
    3.7222   -3.3646   -3.4902 H   0  0  0  0  0  0  0  0  0  0  0  0
    5.1694   -2.4626   -3.8596 H   0  0  0  0  0  0  0  0  0  0  0  0
    4.8644   -4.7482   -2.0639 H   0  0  0  0  0  0  0  0  0  0  0  0
    6.2779   -4.1041   -2.9036 H   0  0  0  0  0  0  0  0  0  0  0  0
    6.3600   -2.2788   -1.2716 H   0  0  0  0  0  0  0  0  0  0  0  0
    6.7715   -4.7884    0.2545 H   0  0  0  0  0  0  0  0  0  0  0  0
    7.9047   -4.1705   -0.9513 H   0  0  0  0  0  0  0  0  0  0  0  0
    8.1679   -3.4793    1.5088 H   0  0  0  0  0  0  0  0  0  0  0  0
    8.4827   -2.2958    0.2662 H   0  0  0  0  0  0  0  0  0  0  0  0
    6.8147   -1.6850    2.3915 H   0  0  0  0  0  0  0  0  0  0  0  0
    7.1861   -0.1137    1.1400 H   0  0  0  0  0  0  0  0  0  0  0  0
    5.5068   -3.5902    1.8339 H   0  0  0  0  0  0  0  0  0  0  0  0
    2.9124   -3.5662    4.0258 H   0  0  0  0  0  0  0  0  0  0  0  0
    1.3634   -3.0981    3.3329 H   0  0  0  0  0  0  0  0  0  0  0  0
    2.4128   -1.8775    4.0545 H   0  0  0  0  0  0  0  0  0  0  0  0
    1.4957   -1.8786    0.9864 H   0  0  0  0  0  0  0  0  0  0  0  0
    2.1561   -0.6360    1.9935 H   0  0  0  0  0  0  0  0  0  0  0  0
    2.6763   -0.2503   -0.3397 H   0  0  0  0  0  0  0  0  0  0  0  0
    4.1461   -0.3308    0.5442 H   0  0  0  0  0  0  0  0  0  0  0  0
    2.8142   -2.6604   -0.9387 H   0  0  0  0  0  0  0  0  0  0  0  0
  1  2  1  0
  1 20  1  0
  1 21  1  0
  1 22  1  0
  2 16  1  0
  2  3  1  0
  2 23  1  1
  3  4  1  0
  3 24  1  0
  3 25  1  0
  4  5  1  0
  4 26  1  0
  4 27  1  0
  5 17  1  0
  5  6  1  0
  5 28  1  6
  6  7  1  0
  6 29  1  0
  6 30  1  0
  7  8  1  0
  7 31  1  0
  7 32  1  0
  8  9  1  0
  8 10  1  0
  8 33  1  1
  9 34  1  0
 10 17  1  0
 10 11  1  0
 10 35  1  1
 11 12  1  0
 12 19  1  0
 12 13  1  1
 12 14  1  0
 13 36  1  0
 13 37  1  0
 13 38  1  0
 14 15  1  0
 14 39  1  0
 14 40  1  0
 15 16  1  0
 15 41  1  0
 15 42  1  0
 16 17  1  0
 16 43  1  6
 17 18  1  1
 18 19  1  0
M  END
>  <i_m_ct_stereo_status>  (283) 
1

>  <s_m_source_file>  (283) 
/var/tmp/pbs.5076255.sched01/tmpegbcst3k/90u3quomt0.sdf

>  <i_m_source_file_index>  (283) 
21

>  <i_lp_mmshare_version>  (283) 
48012

>  <i_f3d_flags>  (283) 
0

>  <s_epik_input>  (283) 
W0NAXTEyM1tDQEBIXTRbQ0gyXVtDSDJdW0NAQEhdKFtDSDNdKVtDQEBIXTJbQ0gyXVtDSDJdW0NAQF0oW0NIM10pKE9PMylPW0NAQEhdMVtDQEhdKFtPSF0pW0NIMl1bQ0gyXTQ=

>  <s_epik_cmdline>  (283) 
J2VwaWtfcHl0aG9uJywgJy1waHQnLCAnMi4wJywgJy1waCcsICc3LjAnLCAnLXRuJywgJzgnLCAnLW1hJywgJzIwMCcsICctaW1hZScsICc8aW5maWxlLm1hZT4nLCAnLW9tYWUnLCAnPG91dGZpbGUubWFlPic=

>  <r_lp_tautomer_probability>  (283) 
1

>  <r_epik_Ionization_Penalty>  (283) 
4.3084e-08

>  <r_epik_Ionization_Penalty_Charging>  (283) 
0

>  <r_epik_Ionization_Penalty_Neutral>  (283) 
4.3084e-08

>  <r_epik_State_Penalty>  (283) 
-0

>  <r_epik_Charging_Adjusted_Penalty>  (283) 
0

>  <i_epik_Tot_Q>  (283) 
0

>  <i_epik_Tot_abs_Q>  (283) 
0

>  <s_lp_Force_Field>  (283) 
OPLS3e

>  <r_lp_Energy>  (283) 
53.5828

>  <b_lp_Chiralities_Consistent>  (283) 
1

>  <s_lp_Variant>  (283) 
72:0-1

>  <s_i_glide_gridfile>  (283) 
pfpi4k_grid

>  <i_i_glide_lignum>  (283) 
21

>  <i_i_glide_rotatable_bonds>  (283) 
1

>  <r_i_docking_score>  (283) 
-3.20908

>  <r_i_glide_ligand_efficiency>  (283) 
-0.168899

>  <r_i_glide_ligand_efficiency_sa>  (283) 
-0.45069

>  <r_i_glide_ligand_efficiency_ln>  (283) 
-0.81357

>  <r_i_glide_gscore>  (283) 
-3.20908

>  <r_i_glide_lipo>  (283) 
-0.633221

>  <r_i_glide_hbond>  (283) 
0

>  <r_i_glide_metal>  (283) 
-0

>  <r_i_glide_rewards>  (283) 
-1.57944

>  <r_i_glide_evdw>  (283) 
-7.64786

>  <r_i_glide_ecoul>  (283) 
-4.07005

>  <r_i_glide_erotb>  (283) 
0

>  <r_i_glide_esite>  (283) 
-0.00351673

>  <r_i_glide_emodel>  (283) 
-10.4809

>  <r_i_glide_energy>  (283) 
-11.7179

>  <r_i_glide_einternal>  (283) 
0.963564

>  <r_i_glide_intrahb_reward>  (283) 
-0

>  <i_i_glide_confnum>  (283) 
2

>  <i_i_glide_posenum>  (283) 
33

>  <r_i_glide_eff_state_penalty>  (283) 
0

>  <ligand_id>  (283) 
72

>  <original_smiles>  (283) 
CC1CCC2CCC(O)C3OC4(C)CCC1C23OO4

>  <smiles>  (283) 
[H]OC1([H])C([H])([H])C([H])([H])C2([H])C([H])([H])C([H])([H])C([H])(C([H])([H])[H])C3([H])C([H])([H])C([H])([H])C4(C([H])([H])[H])OOC23C1([H])O4

$$$$
72:0:1
     RDKit          3D

 43 46  0  0  1  0  0  0  0  0999 V2000
    2.7420   -1.1830   -2.9173 C   0  0  0  0  0  0  0  0  0  0  0  0
    4.0645   -1.6823   -2.3648 C   0  0  2  0  0  0  0  0  0  0  0  0
    4.5844   -2.7385   -3.3604 C   0  0  0  0  0  0  0  0  0  0  0  0
    5.7503   -3.5712   -2.8141 C   0  0  0  0  0  0  0  0  0  0  0  0
    6.3553   -2.9166   -1.5782 C   0  0  2  0  0  0  0  0  0  0  0  0
    7.7708   -3.3535   -1.1553 C   0  0  0  0  0  0  0  0  0  0  0  0
    8.3391   -2.2856   -0.1834 C   0  0  0  0  0  0  0  0  0  0  0  0
    7.2405   -1.6546    0.7212 C   0  0  1  0  0  0  0  0  0  0  0  0
    6.6679   -0.4887    0.2033 O   0  0  0  0  0  0  0  0  0  0  0  0
    6.0912   -2.6252    0.9118 C   0  0  1  0  0  0  0  0  0  0  0  0
    5.2998   -2.3079    2.0041 O   0  0  0  0  0  0  0  0  0  0  0  0
    4.0530   -2.9726    1.9499 C   0  0  1  0  0  0  0  0  0  0  0  0
    3.7467   -3.3518    3.4052 C   0  0  0  0  0  0  0  0  0  0  0  0
    3.0268   -1.9682    1.4080 C   0  0  0  0  0  0  0  0  0  0  0  0
    3.4931   -1.2355    0.1471 C   0  0  0  0  0  0  0  0  0  0  0  0
    4.0098   -2.2237   -0.8921 C   0  0  2  0  0  0  0  0  0  0  0  0
    5.3245   -2.9485   -0.4211 C   0  0  1  0  0  0  0  0  0  0  0  0
    4.9322   -4.2640   -0.0316 O   0  0  0  0  0  0  0  0  0  0  0  0
    4.0345   -4.2282    1.2212 O   0  0  0  0  0  0  0  0  0  0  0  0
    1.9850   -1.9634   -2.8256 H   0  0  0  0  0  0  0  0  0  0  0  0
    2.8279   -0.9217   -3.9740 H   0  0  0  0  0  0  0  0  0  0  0  0
    2.3909   -0.2862   -2.3961 H   0  0  0  0  0  0  0  0  0  0  0  0
    4.7399   -0.8416   -2.3743 H   0  0  0  0  0  0  0  0  0  0  0  0
    3.7752   -3.4021   -3.6481 H   0  0  0  0  0  0  0  0  0  0  0  0
    4.8790   -2.2019   -4.2673 H   0  0  0  0  0  0  0  0  0  0  0  0
    5.3932   -4.5833   -2.5757 H   0  0  0  0  0  0  0  0  0  0  0  0
    6.4962   -3.6584   -3.5917 H   0  0  0  0  0  0  0  0  0  0  0  0
    6.5404   -1.8814   -1.8983 H   0  0  0  0  0  0  0  0  0  0  0  0
    7.7197   -4.3085   -0.6264 H   0  0  0  0  0  0  0  0  0  0  0  0
    8.4271   -3.5011   -2.0106 H   0  0  0  0  0  0  0  0  0  0  0  0
    9.0807   -2.8045    0.4267 H   0  0  0  0  0  0  0  0  0  0  0  0
    8.9138   -1.5346   -0.7357 H   0  0  0  0  0  0  0  0  0  0  0  0
    7.6377   -1.2946    1.6648 H   0  0  0  0  0  0  0  0  0  0  0  0
    7.1317    0.2297    0.5945 H   0  0  0  0  0  0  0  0  0  0  0  0
    6.5854   -3.5372    1.2611 H   0  0  0  0  0  0  0  0  0  0  0  0
    4.5086   -4.0218    3.8036 H   0  0  0  0  0  0  0  0  0  0  0  0
    2.7839   -3.8600    3.4748 H   0  0  0  0  0  0  0  0  0  0  0  0
    3.7097   -2.4788    4.0595 H   0  0  0  0  0  0  0  0  0  0  0  0
    2.1056   -2.5050    1.1950 H   0  0  0  0  0  0  0  0  0  0  0  0
    2.7852   -1.2208    2.1715 H   0  0  0  0  0  0  0  0  0  0  0  0
    2.6828   -0.6382   -0.2096 H   0  0  0  0  0  0  0  0  0  0  0  0
    4.2720   -0.5426    0.3980 H   0  0  0  0  0  0  0  0  0  0  0  0
    3.2580   -2.9956   -0.9522 H   0  0  0  0  0  0  0  0  0  0  0  0
  1  2  1  0
  1 20  1  0
  1 21  1  0
  1 22  1  0
  2 16  1  0
  2  3  1  0
  2 23  1  1
  3  4  1  0
  3 24  1  0
  3 25  1  0
  4  5  1  0
  4 26  1  0
  4 27  1  0
  5 17  1  0
  5  6  1  0
  5 28  1  6
  6  7  1  0
  6 29  1  0
  6 30  1  0
  7  8  1  0
  7 31  1  0
  7 32  1  0
  8  9  1  0
  8 10  1  0
  8 33  1  1
  9 34  1  0
 10 17  1  0
 10 11  1  0
 10 35  1  1
 11 12  1  0
 12 19  1  0
 12 13  1  1
 12 14  1  0
 13 36  1  0
 13 37  1  0
 13 38  1  0
 14 15  1  0
 14 39  1  0
 14 40  1  0
 15 16  1  0
 15 41  1  0
 15 42  1  0
 16 17  1  0
 16 43  1  6
 17 18  1  1
 18 19  1  0
M  END
>  <i_m_ct_stereo_status>  (284) 
1

>  <s_m_source_file>  (284) 
/var/tmp/pbs.5076255.sched01/tmpegbcst3k/90u3quomt0.sdf

>  <i_m_source_file_index>  (284) 
21

>  <i_lp_mmshare_version>  (284) 
48012

>  <i_f3d_flags>  (284) 
0

>  <s_epik_input>  (284) 
W0NAXTEyM1tDQEBIXTRbQ0gyXVtDSDJdW0NAQEhdKFtDSDNdKVtDQEBIXTJbQ0gyXVtDSDJdW0NAQF0oW0NIM10pKE9PMylPW0NAQEhdMVtDQEhdKFtPSF0pW0NIMl1bQ0gyXTQ=

>  <s_epik_cmdline>  (284) 
J2VwaWtfcHl0aG9uJywgJy1waHQnLCAnMi4wJywgJy1waCcsICc3LjAnLCAnLXRuJywgJzgnLCAnLW1hJywgJzIwMCcsICctaW1hZScsICc8aW5maWxlLm1hZT4nLCAnLW9tYWUnLCAnPG91dGZpbGUubWFlPic=

>  <r_lp_tautomer_probability>  (284) 
1

>  <r_epik_Ionization_Penalty>  (284) 
4.3084e-08

>  <r_epik_Ionization_Penalty_Charging>  (284) 
0

>  <r_epik_Ionization_Penalty_Neutral>  (284) 
4.3084e-08

>  <r_epik_State_Penalty>  (284) 
-0

>  <r_epik_Charging_Adjusted_Penalty>  (284) 
0

>  <i_epik_Tot_Q>  (284) 
0

>  <i_epik_Tot_abs_Q>  (284) 
0

>  <s_lp_Force_Field>  (284) 
OPLS3e

>  <r_lp_Energy>  (284) 
53.5828

>  <b_lp_Chiralities_Consistent>  (284) 
1

>  <s_lp_Variant>  (284) 
72:0-1

>  <s_i_glide_gridfile>  (284) 
pfpi4k_grid

>  <i_i_glide_lignum>  (284) 
21

>  <i_i_glide_rotatable_bonds>  (284) 
1

>  <r_i_docking_score>  (284) 
-3.08634

>  <r_i_glide_ligand_efficiency>  (284) 
-0.162439

>  <r_i_glide_ligand_efficiency_sa>  (284) 
-0.433453

>  <r_i_glide_ligand_efficiency_ln>  (284) 
-0.782454

>  <r_i_glide_gscore>  (284) 
-3.08634

>  <r_i_glide_lipo>  (284) 
-0.480836

>  <r_i_glide_hbond>  (284) 
0

>  <r_i_glide_metal>  (284) 
-0

>  <r_i_glide_rewards>  (284) 
-1.58298

>  <r_i_glide_evdw>  (284) 
-8.84268

>  <r_i_glide_ecoul>  (284) 
-3.8693

>  <r_i_glide_erotb>  (284) 
0

>  <r_i_glide_esite>  (284) 
0

>  <r_i_glide_emodel>  (284) 
-11.5905

>  <r_i_glide_energy>  (284) 
-12.712

>  <r_i_glide_einternal>  (284) 
1.38065

>  <r_i_glide_intrahb_reward>  (284) 
-0

>  <i_i_glide_confnum>  (284) 
1

>  <i_i_glide_posenum>  (284) 
11

>  <r_i_glide_eff_state_penalty>  (284) 
0

>  <ligand_id>  (284) 
72

>  <original_smiles>  (284) 
CC1CCC2CCC(O)C3OC4(C)CCC1C23OO4

>  <smiles>  (284) 
[H]OC1([H])C([H])([H])C([H])([H])C2([H])C([H])([H])C([H])([H])C([H])(C([H])([H])[H])C3([H])C([H])([H])C([H])([H])C4(C([H])([H])[H])OOC23C1([H])O4

$$$$
72:0:2
     RDKit          3D

 43 46  0  0  1  0  0  0  0  0999 V2000
    4.1357   -0.0925   -3.0167 C   0  0  0  0  0  0  0  0  0  0  0  0
    4.5335   -1.3010   -2.1568 C   0  0  2  0  0  0  0  0  0  0  0  0
    4.0810   -2.4805   -3.0240 C   0  0  0  0  0  0  0  0  0  0  0  0
    4.0928   -3.8285   -2.3027 C   0  0  0  0  0  0  0  0  0  0  0  0
    4.8357   -3.7522   -0.9935 C   0  0  2  0  0  0  0  0  0  0  0  0
    5.1615   -5.0774   -0.3213 C   0  0  0  0  0  0  0  0  0  0  0  0
    6.3350   -4.8229    0.6664 C   0  0  0  0  0  0  0  0  0  0  0  0
    6.2132   -3.4641    1.4084 C   0  0  1  0  0  0  0  0  0  0  0  0
    7.0095   -2.4875    0.7619 O   0  0  0  0  0  0  0  0  0  0  0  0
    4.7551   -3.0026    1.4043 C   0  0  1  0  0  0  0  0  0  0  0  0
    4.4449   -2.0433    2.3845 O   0  0  0  0  0  0  0  0  0  0  0  0
    3.1531   -1.5068    2.1659 C   0  0  1  0  0  0  0  0  0  0  0  0
    2.5183   -1.2753    3.5445 C   0  0  0  0  0  0  0  0  0  0  0  0
    3.3632   -0.1798    1.4427 C   0  0  0  0  0  0  0  0  0  0  0  0
    4.3430   -0.3310    0.2860 C   0  0  0  0  0  0  0  0  0  0  0  0
    3.9484   -1.4138   -0.6916 C   0  0  2  0  0  0  0  0  0  0  0  0
    4.1174   -2.8019   -0.0050 C   0  0  1  0  0  0  0  0  0  0  0  0
    2.8132   -3.2303    0.3357 O   0  0  0  0  0  0  0  0  0  0  0  0
    2.2120   -2.3514    1.4551 O   0  0  0  0  0  0  0  0  0  0  0  0
    3.0441   -0.0134   -3.0729 H   0  0  0  0  0  0  0  0  0  0  0  0
    4.4992   -0.1686   -4.0404 H   0  0  0  0  0  0  0  0  0  0  0  0
    4.5367    0.8330   -2.6497 H   0  0  0  0  0  0  0  0  0  0  0  0
    5.6169   -1.3209   -2.0939 H   0  0  0  0  0  0  0  0  0  0  0  0
    3.0862   -2.2848   -3.4284 H   0  0  0  0  0  0  0  0  0  0  0  0
    4.7317   -2.5410   -3.8864 H   0  0  0  0  0  0  0  0  0  0  0  0
    3.0370   -3.9833   -2.0719 H   0  0  0  0  0  0  0  0  0  0  0  0
    4.5278   -4.5754   -2.9710 H   0  0  0  0  0  0  0  0  0  0  0  0
    5.8087   -3.3216   -1.2423 H   0  0  0  0  0  0  0  0  0  0  0  0
    4.3015   -5.4741    0.2253 H   0  0  0  0  0  0  0  0  0  0  0  0
    5.3864   -5.8074   -1.0967 H   0  0  0  0  0  0  0  0  0  0  0  0
    6.3346   -5.6333    1.4005 H   0  0  0  0  0  0  0  0  0  0  0  0
    7.2992   -4.8650    0.1554 H   0  0  0  0  0  0  0  0  0  0  0  0
    6.5446   -3.5985    2.4306 H   0  0  0  0  0  0  0  0  0  0  0  0
    7.0368   -1.7285    1.3150 H   0  0  0  0  0  0  0  0  0  0  0  0
    4.2452   -3.8627    1.8374 H   0  0  0  0  0  0  0  0  0  0  0  0
    2.3880   -2.2278    4.0552 H   0  0  0  0  0  0  0  0  0  0  0  0
    1.5406   -0.8038    3.4378 H   0  0  0  0  0  0  0  0  0  0  0  0
    3.1444   -0.6311    4.1675 H   0  0  0  0  0  0  0  0  0  0  0  0
    2.3939    0.1938    1.1041 H   0  0  0  0  0  0  0  0  0  0  0  0
    3.7429    0.5734    2.1428 H   0  0  0  0  0  0  0  0  0  0  0  0
    4.2738    0.5822   -0.2626 H   0  0  0  0  0  0  0  0  0  0  0  0
    5.3680   -0.4485    0.6431 H   0  0  0  0  0  0  0  0  0  0  0  0
    2.8857   -1.2967   -0.8615 H   0  0  0  0  0  0  0  0  0  0  0  0
  1  2  1  0
  1 20  1  0
  1 21  1  0
  1 22  1  0
  2 16  1  0
  2  3  1  0
  2 23  1  1
  3  4  1  0
  3 24  1  0
  3 25  1  0
  4  5  1  0
  4 26  1  0
  4 27  1  0
  5 17  1  0
  5  6  1  0
  5 28  1  6
  6  7  1  0
  6 29  1  0
  6 30  1  0
  7  8  1  0
  7 31  1  0
  7 32  1  0
  8  9  1  0
  8 10  1  0
  8 33  1  1
  9 34  1  0
 10 17  1  0
 10 11  1  0
 10 35  1  1
 11 12  1  0
 12 19  1  0
 12 13  1  1
 12 14  1  0
 13 36  1  0
 13 37  1  0
 13 38  1  0
 14 15  1  0
 14 39  1  0
 14 40  1  0
 15 16  1  0
 15 41  1  0
 15 42  1  0
 16 17  1  0
 16 43  1  6
 17 18  1  1
 18 19  1  0
M  END
>  <i_m_ct_stereo_status>  (285) 
1

>  <s_m_source_file>  (285) 
/var/tmp/pbs.5076255.sched01/tmpegbcst3k/90u3quomt0.sdf

>  <i_m_source_file_index>  (285) 
21

>  <i_lp_mmshare_version>  (285) 
48012

>  <i_f3d_flags>  (285) 
0

>  <s_epik_input>  (285) 
W0NAXTEyM1tDQEBIXTRbQ0gyXVtDSDJdW0NAQEhdKFtDSDNdKVtDQEBIXTJbQ0gyXVtDSDJdW0NAQF0oW0NIM10pKE9PMylPW0NAQEhdMVtDQEhdKFtPSF0pW0NIMl1bQ0gyXTQ=

>  <s_epik_cmdline>  (285) 
J2VwaWtfcHl0aG9uJywgJy1waHQnLCAnMi4wJywgJy1waCcsICc3LjAnLCAnLXRuJywgJzgnLCAnLW1hJywgJzIwMCcsICctaW1hZScsICc8aW5maWxlLm1hZT4nLCAnLW9tYWUnLCAnPG91dGZpbGUubWFlPic=

>  <r_lp_tautomer_probability>  (285) 
1

>  <r_epik_Ionization_Penalty>  (285) 
4.3084e-08

>  <r_epik_Ionization_Penalty_Charging>  (285) 
0

>  <r_epik_Ionization_Penalty_Neutral>  (285) 
4.3084e-08

>  <r_epik_State_Penalty>  (285) 
-0

>  <r_epik_Charging_Adjusted_Penalty>  (285) 
0

>  <i_epik_Tot_Q>  (285) 
0

>  <i_epik_Tot_abs_Q>  (285) 
0

>  <s_lp_Force_Field>  (285) 
OPLS3e

>  <r_lp_Energy>  (285) 
53.5828

>  <b_lp_Chiralities_Consistent>  (285) 
1

>  <s_lp_Variant>  (285) 
72:0-1

>  <s_i_glide_gridfile>  (285) 
pfpi4k_grid

>  <i_i_glide_lignum>  (285) 
21

>  <i_i_glide_rotatable_bonds>  (285) 
1

>  <r_i_docking_score>  (285) 
-2.83736

>  <r_i_glide_ligand_efficiency>  (285) 
-0.149335

>  <r_i_glide_ligand_efficiency_sa>  (285) 
-0.398485

>  <r_i_glide_ligand_efficiency_ln>  (285) 
-0.719331

>  <r_i_glide_gscore>  (285) 
-2.83736

>  <r_i_glide_lipo>  (285) 
-0.641037

>  <r_i_glide_hbond>  (285) 
0

>  <r_i_glide_metal>  (285) 
-0

>  <r_i_glide_rewards>  (285) 
-1.57944

>  <r_i_glide_evdw>  (285) 
-11.2078

>  <r_i_glide_ecoul>  (285) 
-0.3148

>  <r_i_glide_erotb>  (285) 
0

>  <r_i_glide_esite>  (285) 
-0.0092677

>  <r_i_glide_emodel>  (285) 
-10.478

>  <r_i_glide_energy>  (285) 
-11.5226

>  <r_i_glide_einternal>  (285) 
0.323368

>  <r_i_glide_intrahb_reward>  (285) 
-0

>  <i_i_glide_confnum>  (285) 
1

>  <i_i_glide_posenum>  (285) 
38

>  <r_i_glide_eff_state_penalty>  (285) 
0

>  <ligand_id>  (285) 
72

>  <original_smiles>  (285) 
CC1CCC2CCC(O)C3OC4(C)CCC1C23OO4

>  <smiles>  (285) 
[H]OC1([H])C([H])([H])C([H])([H])C2([H])C([H])([H])C([H])([H])C([H])(C([H])([H])[H])C3([H])C([H])([H])C([H])([H])C4(C([H])([H])[H])OOC23C1([H])O4

$$$$
73:0:0
     RDKit          3D

 61 67  0  0  1  0  0  0  0  0999 V2000
    4.1851   -6.9994    0.4771 C   0  0  0  0  0  0  0  0  0  0  0  0
    3.2541   -6.9435    1.2549 C   0  0  0  0  0  0  0  0  0  0  0  0
    2.0990   -6.7537    2.1641 C   0  0  2  0  0  0  0  0  0  0  0  0
    0.9690   -6.2566    1.4718 O   0  0  0  0  0  0  0  0  0  0  0  0
    2.3922   -5.9197    3.4647 C   0  0  2  0  0  0  0  0  0  0  0  0
    1.2692   -6.1676    4.4882 C   0  0  0  0  0  0  0  0  0  0  0  0
    0.7139   -5.2269    5.3089 C   0  0  0  0  0  0  0  0  0  0  0  0
    1.2575   -3.8161    5.4587 C   0  0  2  0  0  0  0  0  0  0  0  0
    0.6417   -2.6821    4.6272 C   0  0  1  0  0  0  0  0  0  0  0  0
   -0.2584   -1.8434    5.3231 O   0  0  0  0  0  0  0  0  0  0  0  0
    2.1149   -2.1438    4.3626 C   0  0  2  0  0  0  0  0  0  0  0  0
    2.3739   -0.5725    4.6383 C   0  0  0  0  0  0  0  0  0  0  0  0
    2.3232    0.4372    3.2729 C   0  0  0  0  0  0  0  0  0  0  0  0
    2.9792    0.2698    1.7175 C   0  0  0  0  0  0  0  0  0  0  0  0
    3.6882   -1.0761    1.0191 C   0  0  1  0  0  0  0  0  0  0  0  0
    4.0374   -1.1160   -0.4725 C   0  0  0  0  0  0  0  0  0  0  0  0
    4.8353   -2.4438   -0.7639 C   0  0  0  0  0  0  0  0  0  0  0  0
    5.7365   -3.0318    0.4123 C   0  0  1  0  0  0  0  0  0  0  0  0
    7.2434   -2.9633    0.0396 C   0  0  0  0  0  0  0  0  0  0  0  0
    7.9355   -3.7243    0.8828 F   0  0  0  0  0  0  0  0  0  0  0  0
    7.4511   -3.4334   -1.1838 F   0  0  0  0  0  0  0  0  0  0  0  0
    7.7194   -1.7226    0.0798 F   0  0  0  0  0  0  0  0  0  0  0  0
    5.4465   -2.4403    1.8643 C   0  0  1  0  0  0  0  0  0  0  0  0
    5.1370   -1.0072    1.5925 C   0  0  0  0  0  0  0  0  0  0  0  0
    4.2857   -2.9805    2.8433 C   0  0  2  0  0  0  0  0  0  0  0  0
    3.3882   -3.8193    2.1418 C   0  0  2  0  0  0  0  0  0  0  0  0
    2.8682   -2.5449    1.2099 C   0  0  1  0  0  0  0  0  0  0  0  0
    1.8867   -2.1172    2.0868 C   0  0  0  0  0  0  0  0  0  0  0  0
    2.9910   -2.0636    3.2011 C   0  0  1  0  0  0  0  0  0  0  0  0
    2.5315   -4.4661    3.2794 N   0  0  0  0  0  0  0  0  0  0  0  0
    2.4894   -3.6445    4.6097 C   0  0  2  0  0  0  0  0  0  0  0  0
    4.9799   -6.9539   -0.2469 H   0  0  0  0  0  0  0  0  0  0  0  0
    1.8534   -7.7804    2.4530 H   0  0  0  0  0  0  0  0  0  0  0  0
    0.3527   -6.9788    1.3913 H   0  0  0  0  0  0  0  0  0  0  0  0
    3.2905   -6.3350    3.9211 H   0  0  0  0  0  0  0  0  0  0  0  0
    0.8717   -7.1765    4.5211 H   0  0  0  0  0  0  0  0  0  0  0  0
   -0.0907   -5.4988    5.9781 H   0  0  0  0  0  0  0  0  0  0  0  0
    1.4171   -3.5232    6.5030 H   0  0  0  0  0  0  0  0  0  0  0  0
    0.1125   -3.1060    3.7707 H   0  0  0  0  0  0  0  0  0  0  0  0
   -0.3671   -1.0842    4.7635 H   0  0  0  0  0  0  0  0  0  0  0  0
    1.6336   -0.1857    5.3373 H   0  0  0  0  0  0  0  0  0  0  0  0
    3.3133   -0.4210    5.1716 H   0  0  0  0  0  0  0  0  0  0  0  0
    1.2565    0.5901    3.0982 H   0  0  0  0  0  0  0  0  0  0  0  0
    2.6490    1.4163    3.6255 H   0  0  0  0  0  0  0  0  0  0  0  0
    2.1913    0.5832    1.0253 H   0  0  0  0  0  0  0  0  0  0  0  0
    3.7120    1.0723    1.6187 H   0  0  0  0  0  0  0  0  0  0  0  0
    3.1416   -1.0735   -1.0997 H   0  0  0  0  0  0  0  0  0  0  0  0
    4.6362   -0.2517   -0.7736 H   0  0  0  0  0  0  0  0  0  0  0  0
    4.1182   -3.2200   -1.0500 H   0  0  0  0  0  0  0  0  0  0  0  0
    5.4227   -2.2892   -1.6701 H   0  0  0  0  0  0  0  0  0  0  0  0
    5.5552   -4.1037    0.4136 H   0  0  0  0  0  0  0  0  0  0  0  0
    6.3749   -2.4855    2.4183 H   0  0  0  0  0  0  0  0  0  0  0  0
    5.8626   -0.5119    0.9361 H   0  0  0  0  0  0  0  0  0  0  0  0
    5.2493   -0.4145    2.4959 H   0  0  0  0  0  0  0  0  0  0  0  0
    4.7748   -3.4780    3.6864 H   0  0  0  0  0  0  0  0  0  0  0  0
    3.9489   -4.5401    1.5683 H   0  0  0  0  0  0  0  0  0  0  0  0
    2.3715   -2.8779    0.2964 H   0  0  0  0  0  0  0  0  0  0  0  0
    1.2507   -1.2885    1.8075 H   0  0  0  0  0  0  0  0  0  0  0  0
    1.1810   -2.9292    2.1071 H   0  0  0  0  0  0  0  0  0  0  0  0
    3.7595   -1.3418    3.3750 H   0  0  0  0  0  0  0  0  0  0  0  0
    3.3622   -3.7738    5.2265 H   0  0  0  0  0  0  0  0  0  0  0  0
  1  2  3  0
  1 32  1  0
  2  3  1  0
  3  4  1  0
  3  5  1  0
  3 33  1  1
  4 34  1  0
  5 30  1  0
  5  6  1  0
  5 35  1  1
  6  7  2  0
  6 36  1  0
  7  8  1  0
  7 37  1  0
  8 31  1  0
  8  9  1  0
  8 38  1  1
  9 10  1  0
  9 11  1  0
  9 39  1  6
 10 40  1  0
 11 29  1  0
 11 31  1  0
 11 12  1  1
 12 13  1  0
 12 41  1  0
 12 42  1  0
 13 14  1  0
 13 43  1  0
 13 44  1  0
 15 14  1  6
 14 45  1  0
 14 46  1  0
 15 24  1  0
 15 27  1  0
 15 16  1  0
 16 17  1  0
 16 47  1  0
 16 48  1  0
 17 18  1  0
 17 49  1  0
 17 50  1  0
 18 19  1  0
 18 23  1  0
 18 51  1  1
 19 20  1  0
 19 21  1  0
 19 22  1  0
 23 24  1  0
 23 25  1  0
 23 52  1  1
 24 53  1  0
 24 54  1  0
 25 29  1  0
 25 26  1  0
 25 55  1  1
 26 27  1  0
 26 30  1  0
 26 56  1  6
 27 28  1  0
 27 57  1  6
 28 29  1  0
 28 58  1  0
 28 59  1  0
 29 60  1  1
 30 31  1  0
 31 61  1  1
M  END
>  <i_m_ct_stereo_status>  (286) 
1

>  <s_m_source_file>  (286) 
/var/tmp/pbs.5076255.sched01/tmpegbcst3k/90u3quomt0.sdf

>  <i_m_source_file_index>  (286) 
22

>  <i_lp_mmshare_version>  (286) 
48012

>  <i_f3d_flags>  (286) 
0

>  <s_epik_input>  (286) 
W0NIXSNDW0NASF0oW09IXSlbQ0BASF0xW0NIXT1bQ0hdW0NASF0oW0NASF0yW09IXSlbQ0BIXTNOMVtDQEhdNFtDQEBIXShbQ0gyXTUpW0NAXShbQ0gyXTYpKFtDSDJdW0NIMl1bQ0gyXTcpW0NIMl1bQ0gyXVtDQEBIXShDKEYpKEYpRilbQ0BASF02W0NASF00W0NIXTVbQ0BAXTIzNw==

>  <s_epik_cmdline>  (286) 
J2VwaWtfcHl0aG9uJywgJy1waHQnLCAnMi4wJywgJy1waCcsICc3LjAnLCAnLXRuJywgJzgnLCAnLW1hJywgJzIwMCcsICctaW1hZScsICc8aW5maWxlLm1hZT4nLCAnLW9tYWUnLCAnPG91dGZpbGUubWFlPic=

>  <r_epik_Ionization_Penalty>  (286) 
0.30149

>  <r_epik_Ionization_Penalty_Charging>  (286) 
0

>  <r_epik_Ionization_Penalty_Neutral>  (286) 
0.30149

>  <r_epik_State_Penalty>  (286) 
0.294723

>  <r_epik_Charging_Adjusted_Penalty>  (286) 
0.294723

>  <i_epik_Tot_Q>  (286) 
0

>  <i_epik_Tot_abs_Q>  (286) 
0

>  <s_lp_Force_Field>  (286) 
OPLS3e

>  <r_lp_Energy>  (286) 
394.558

>  <b_lp_Chiralities_Consistent>  (286) 
1

>  <s_lp_Variant>  (286) 
73:0-1

>  <s_i_glide_gridfile>  (286) 
pfpi4k_grid

>  <i_i_glide_lignum>  (286) 
22

>  <i_i_glide_rotatable_bonds>  (286) 
5

>  <r_i_docking_score>  (286) 
-3.36474

>  <r_i_glide_ligand_efficiency>  (286) 
-0.10854

>  <r_i_glide_ligand_efficiency_sa>  (286) 
-0.340966

>  <r_i_glide_ligand_efficiency_ln>  (286) 
-0.758852

>  <r_i_glide_gscore>  (286) 
-3.36474

>  <r_i_glide_lipo>  (286) 
-0.64425

>  <r_i_glide_hbond>  (286) 
-0.150562

>  <r_i_glide_metal>  (286) 
-0

>  <r_i_glide_rewards>  (286) 
-0.751385

>  <r_i_glide_evdw>  (286) 
-27.2379

>  <r_i_glide_ecoul>  (286) 
-4.19923

>  <r_i_glide_erotb>  (286) 
0.211866

>  <r_i_glide_esite>  (286) 
-0.0386325

>  <r_i_glide_emodel>  (286) 
-33.9421

>  <r_i_glide_energy>  (286) 
-31.4371

>  <r_i_glide_einternal>  (286) 
8.44275

>  <r_i_glide_intrahb_reward>  (286) 
-0

>  <i_i_glide_confnum>  (286) 
3

>  <i_i_glide_posenum>  (286) 
16

>  <r_i_glide_eff_state_penalty>  (286) 
0

>  <ligand_id>  (286) 
73

>  <original_smiles>  (286) 
C#CC(O)C1C=CC2C(O)C34CCCC56CCC(C(F)(F)F)C(C5)C5C(C6CC53)N1C24

>  <smiles>  (286) 
[H]C#CC([H])(O[H])C1([H])C([H])=C([H])C2([H])C([H])(O[H])C34C([H])([H])C([H])([H])C([H])([H])C56C([H])([H])C([H])([H])C([H])(C(F)(F)F)C([H])(C5([H])[H])C5([H])C([H])(N1C23[H])C6([H])C([H])([H])C54[H]

$$$$
73:0:1
     RDKit          3D

 61 67  0  0  1  0  0  0  0  0999 V2000
    0.9545  -11.7068    3.6581 C   0  0  0  0  0  0  0  0  0  0  0  0
    1.0077  -10.8695    4.5428 C   0  0  0  0  0  0  0  0  0  0  0  0
    1.1132   -9.9149    5.6615 C   0  0  2  0  0  0  0  0  0  0  0  0
    0.2053  -10.2432    6.6998 O   0  0  0  0  0  0  0  0  0  0  0  0
    0.9977   -8.4096    5.2626 C   0  0  2  0  0  0  0  0  0  0  0  0
   -0.3433   -8.1166    4.5644 C   0  0  0  0  0  0  0  0  0  0  0  0
   -0.5050   -7.2687    3.5040 C   0  0  0  0  0  0  0  0  0  0  0  0
    0.5938   -6.3554    2.9897 C   0  0  2  0  0  0  0  0  0  0  0  0
    1.4439   -6.8004    1.7939 C   0  0  1  0  0  0  0  0  0  0  0  0
    1.0878   -6.1995    0.5619 O   0  0  0  0  0  0  0  0  0  0  0  0
    2.7206   -6.2355    2.5550 C   0  0  2  0  0  0  0  0  0  0  0  0
    3.6829   -5.2476    1.7085 C   0  0  0  0  0  0  0  0  0  0  0  0
    5.0644   -5.9654    1.0339 C   0  0  0  0  0  0  0  0  0  0  0  0
    6.1950   -7.0479    1.6777 C   0  0  0  0  0  0  0  0  0  0  0  0
    6.1302   -7.9088    3.1135 C   0  0  1  0  0  0  0  0  0  0  0  0
    7.1509   -9.0043    3.4296 C   0  0  0  0  0  0  0  0  0  0  0  0
    6.9122   -9.4820    4.9163 C   0  0  0  0  0  0  0  0  0  0  0  0
    6.3428   -8.4089    5.9524 C   0  0  1  0  0  0  0  0  0  0  0  0
    7.3894   -8.1091    7.0607 C   0  0  0  0  0  0  0  0  0  0  0  0
    8.4642   -7.4975    6.5715 F   0  0  0  0  0  0  0  0  0  0  0  0
    6.8326   -7.3382    7.9930 F   0  0  0  0  0  0  0  0  0  0  0  0
    7.7711   -9.2442    7.6508 F   0  0  0  0  0  0  0  0  0  0  0  0
    5.7278   -7.0901    5.3084 C   0  0  1  0  0  0  0  0  0  0  0  0
    6.6158   -6.8399    4.1400 C   0  0  0  0  0  0  0  0  0  0  0  0
    4.2108   -6.9882    4.7737 C   0  0  2  0  0  0  0  0  0  0  0  0
    3.5960   -8.2679    4.6818 C   0  0  2  0  0  0  0  0  0  0  0  0
    4.6638   -8.6971    3.4684 C   0  0  1  0  0  0  0  0  0  0  0  0
    3.9005   -8.2003    2.4185 C   0  0  0  0  0  0  0  0  0  0  0  0
    3.8910   -6.8250    3.1841 C   0  0  1  0  0  0  0  0  0  0  0  0
    2.0901   -7.9283    4.4091 N   0  0  0  0  0  0  0  0  0  0  0  0
    1.8371   -6.5048    3.8156 C   0  0  2  0  0  0  0  0  0  0  0  0
    0.9172  -12.4699    2.9109 H   0  0  0  0  0  0  0  0  0  0  0  0
    2.0770  -10.1047    6.1206 H   0  0  0  0  0  0  0  0  0  0  0  0
    0.6018  -11.0033    7.1431 H   0  0  0  0  0  0  0  0  0  0  0  0
    0.9760   -7.8503    6.1961 H   0  0  0  0  0  0  0  0  0  0  0  0
   -1.1925   -8.6854    4.9239 H   0  0  0  0  0  0  0  0  0  0  0  0
   -1.4840   -7.1583    3.0573 H   0  0  0  0  0  0  0  0  0  0  0  0
    0.2867   -5.3063    2.9029 H   0  0  0  0  0  0  0  0  0  0  0  0
    1.3871   -7.8929    1.6829 H   0  0  0  0  0  0  0  0  0  0  0  0
    1.8117   -6.4064   -0.0206 H   0  0  0  0  0  0  0  0  0  0  0  0
    3.1388   -4.8013    0.8790 H   0  0  0  0  0  0  0  0  0  0  0  0
    3.9741   -4.3756    2.2944 H   0  0  0  0  0  0  0  0  0  0  0  0
    4.6939   -6.4581    0.1329 H   0  0  0  0  0  0  0  0  0  0  0  0
    5.6446   -5.1394    0.6191 H   0  0  0  0  0  0  0  0  0  0  0  0
    6.3774   -7.7875    0.8944 H   0  0  0  0  0  0  0  0  0  0  0  0
    7.1425   -6.5056    1.6959 H   0  0  0  0  0  0  0  0  0  0  0  0
    7.0624   -9.8547    2.7471 H   0  0  0  0  0  0  0  0  0  0  0  0
    8.1827   -8.6512    3.3030 H   0  0  0  0  0  0  0  0  0  0  0  0
    6.2124  -10.3228    4.8965 H   0  0  0  0  0  0  0  0  0  0  0  0
    7.8391   -9.9230    5.2873 H   0  0  0  0  0  0  0  0  0  0  0  0
    5.5645   -8.9177    6.5113 H   0  0  0  0  0  0  0  0  0  0  0  0
    5.8804   -6.2828    6.0152 H   0  0  0  0  0  0  0  0  0  0  0  0
    7.6880   -6.8861    4.3755 H   0  0  0  0  0  0  0  0  0  0  0  0
    6.5292   -5.8116    3.8062 H   0  0  0  0  0  0  0  0  0  0  0  0
    3.6878   -6.3011    5.4464 H   0  0  0  0  0  0  0  0  0  0  0  0
    3.7172   -8.8598    5.5959 H   0  0  0  0  0  0  0  0  0  0  0  0
    4.7198   -9.7801    3.3352 H   0  0  0  0  0  0  0  0  0  0  0  0
    4.2531   -8.3119    1.4069 H   0  0  0  0  0  0  0  0  0  0  0  0
    3.0105   -8.8205    2.4152 H   0  0  0  0  0  0  0  0  0  0  0  0
    4.6511   -6.0786    3.2792 H   0  0  0  0  0  0  0  0  0  0  0  0
    1.8765   -5.7148    4.5398 H   0  0  0  0  0  0  0  0  0  0  0  0
  1  2  3  0
  1 32  1  0
  2  3  1  0
  3  4  1  0
  3  5  1  0
  3 33  1  1
  4 34  1  0
  5 30  1  0
  5  6  1  0
  5 35  1  1
  6  7  2  0
  6 36  1  0
  7  8  1  0
  7 37  1  0
  8 31  1  0
  8  9  1  0
  8 38  1  6
  9 10  1  0
  9 11  1  0
  9 39  1  6
 10 40  1  0
 11 29  1  0
 11 31  1  0
 11 12  1  6
 12 13  1  0
 12 41  1  0
 12 42  1  0
 13 14  1  0
 13 43  1  0
 13 44  1  0
 15 14  1  6
 14 45  1  0
 14 46  1  0
 15 24  1  0
 15 27  1  0
 15 16  1  0
 16 17  1  0
 16 47  1  0
 16 48  1  0
 17 18  1  0
 17 49  1  0
 17 50  1  0
 18 19  1  0
 18 23  1  0
 18 51  1  1
 19 20  1  0
 19 21  1  0
 19 22  1  0
 23 24  1  0
 23 25  1  0
 23 52  1  1
 24 53  1  0
 24 54  1  0
 25 29  1  0
 25 26  1  0
 25 55  1  1
 26 27  1  0
 26 30  1  0
 26 56  1  1
 27 28  1  0
 27 57  1  6
 28 29  1  0
 28 58  1  0
 28 59  1  0
 29 60  1  6
 30 31  1  0
 31 61  1  1
M  END
>  <i_m_ct_stereo_status>  (287) 
1

>  <s_m_source_file>  (287) 
/var/tmp/pbs.5076255.sched01/tmpegbcst3k/90u3quomt0.sdf

>  <i_m_source_file_index>  (287) 
22

>  <i_lp_mmshare_version>  (287) 
48012

>  <i_f3d_flags>  (287) 
0

>  <s_epik_input>  (287) 
W0NIXSNDW0NASF0oW09IXSlbQ0BASF0xW0NIXT1bQ0hdW0NASF0oW0NASF0yW09IXSlbQ0BIXTNOMVtDQEhdNFtDQEBIXShbQ0gyXTUpW0NAXShbQ0gyXTYpKFtDSDJdW0NIMl1bQ0gyXTcpW0NIMl1bQ0gyXVtDQEBIXShDKEYpKEYpRilbQ0BASF02W0NASF00W0NIXTVbQ0BAXTIzNw==

>  <s_epik_cmdline>  (287) 
J2VwaWtfcHl0aG9uJywgJy1waHQnLCAnMi4wJywgJy1waCcsICc3LjAnLCAnLXRuJywgJzgnLCAnLW1hJywgJzIwMCcsICctaW1hZScsICc8aW5maWxlLm1hZT4nLCAnLW9tYWUnLCAnPG91dGZpbGUubWFlPic=

>  <r_epik_Ionization_Penalty>  (287) 
0.30149

>  <r_epik_Ionization_Penalty_Charging>  (287) 
0

>  <r_epik_Ionization_Penalty_Neutral>  (287) 
0.30149

>  <r_epik_State_Penalty>  (287) 
0.294723

>  <r_epik_Charging_Adjusted_Penalty>  (287) 
0.294723

>  <i_epik_Tot_Q>  (287) 
0

>  <i_epik_Tot_abs_Q>  (287) 
0

>  <s_lp_Force_Field>  (287) 
OPLS3e

>  <r_lp_Energy>  (287) 
394.558

>  <b_lp_Chiralities_Consistent>  (287) 
1

>  <s_lp_Variant>  (287) 
73:0-1

>  <s_i_glide_gridfile>  (287) 
pfpi4k_grid

>  <i_i_glide_lignum>  (287) 
22

>  <i_i_glide_rotatable_bonds>  (287) 
5

>  <r_i_docking_score>  (287) 
-3.23848

>  <r_i_glide_ligand_efficiency>  (287) 
-0.104467

>  <r_i_glide_ligand_efficiency_sa>  (287) 
-0.328171

>  <r_i_glide_ligand_efficiency_ln>  (287) 
-0.730377

>  <r_i_glide_gscore>  (287) 
-3.23848

>  <r_i_glide_lipo>  (287) 
-0.295098

>  <r_i_glide_hbond>  (287) 
-0.32

>  <r_i_glide_metal>  (287) 
-0

>  <r_i_glide_rewards>  (287) 
-0.453365

>  <r_i_glide_evdw>  (287) 
-21.7663

>  <r_i_glide_ecoul>  (287) 
-8.62381

>  <r_i_glide_erotb>  (287) 
0.211866

>  <r_i_glide_esite>  (287) 
0

>  <r_i_glide_emodel>  (287) 
-35.8474

>  <r_i_glide_energy>  (287) 
-30.3901

>  <r_i_glide_einternal>  (287) 
2.64384

>  <r_i_glide_intrahb_reward>  (287) 
-0

>  <i_i_glide_confnum>  (287) 
3

>  <i_i_glide_posenum>  (287) 
40

>  <r_i_glide_eff_state_penalty>  (287) 
0

>  <ligand_id>  (287) 
73

>  <original_smiles>  (287) 
C#CC(O)C1C=CC2C(O)C34CCCC56CCC(C(F)(F)F)C(C5)C5C(C6CC53)N1C24

>  <smiles>  (287) 
[H]C#CC([H])(O[H])C1([H])C([H])=C([H])C2([H])C([H])(O[H])C34C([H])([H])C([H])([H])C([H])([H])C56C([H])([H])C([H])([H])C([H])(C(F)(F)F)C([H])(C5([H])[H])C5([H])C([H])(N1C23[H])C6([H])C([H])([H])C54[H]

$$$$
73:0:2
     RDKit          3D

 61 67  0  0  1  0  0  0  0  0999 V2000
    6.3661   -3.0589   -2.4029 C   0  0  0  0  0  0  0  0  0  0  0  0
    6.0841   -2.9374   -1.2212 C   0  0  0  0  0  0  0  0  0  0  0  0
    5.7258   -2.7583    0.2001 C   0  0  2  0  0  0  0  0  0  0  0  0
    6.7401   -1.9883    0.8122 O   0  0  0  0  0  0  0  0  0  0  0  0
    5.4547   -4.0384    1.0653 C   0  0  2  0  0  0  0  0  0  0  0  0
    4.9946   -5.2476    0.2222 C   0  0  0  0  0  0  0  0  0  0  0  0
    4.0299   -6.1364    0.5456 C   0  0  0  0  0  0  0  0  0  0  0  0
    3.3235   -6.1714    1.8894 C   0  0  2  0  0  0  0  0  0  0  0  0
    1.9840   -5.4369    2.0651 C   0  0  1  0  0  0  0  0  0  0  0  0
    0.8256   -6.2540    2.0217 O   0  0  0  0  0  0  0  0  0  0  0  0
    2.5012   -4.9159    3.4755 C   0  0  2  0  0  0  0  0  0  0  0  0
    1.5144   -5.1374    4.7368 C   0  0  0  0  0  0  0  0  0  0  0  0
    0.5849   -3.7983    5.1829 C   0  0  0  0  0  0  0  0  0  0  0  0
    0.9648   -2.1503    5.3512 C   0  0  0  0  0  0  0  0  0  0  0  0
    2.3594   -1.3468    4.8883 C   0  0  1  0  0  0  0  0  0  0  0  0
    2.4547    0.1859    4.9376 C   0  0  0  0  0  0  0  0  0  0  0  0
    3.9464    0.5954    4.6227 C   0  0  0  0  0  0  0  0  0  0  0  0
    5.1005   -0.4195    5.0492 C   0  0  1  0  0  0  0  0  0  0  0  0
    5.9937    0.2052    6.1560 C   0  0  0  0  0  0  0  0  0  0  0  0
    5.3000    0.4833    7.2590 F   0  0  0  0  0  0  0  0  0  0  0  0
    6.9920   -0.6139    6.4827 F   0  0  0  0  0  0  0  0  0  0  0  0
    6.5388    1.3349    5.7052 F   0  0  0  0  0  0  0  0  0  0  0  0
    4.6204   -1.8917    5.4211 C   0  0  1  0  0  0  0  0  0  0  0  0
    3.3048   -1.6713    6.0911 C   0  0  0  0  0  0  0  0  0  0  0  0
    4.3969   -3.0424    4.3121 C   0  0  2  0  0  0  0  0  0  0  0  0
    4.3754   -2.5177    2.9792 C   0  0  2  0  0  0  0  0  0  0  0  0
    2.9627   -1.6792    3.3309 C   0  0  1  0  0  0  0  0  0  0  0  0
    2.1024   -2.7084    2.9855 C   0  0  0  0  0  0  0  0  0  0  0  0
    2.8967   -3.6099    3.9965 C   0  0  1  0  0  0  0  0  0  0  0  0
    4.4299   -3.8221    2.1028 N   0  0  0  0  0  0  0  0  0  0  0  0
    3.9052   -5.1174    2.7973 C   0  0  2  0  0  0  0  0  0  0  0  0
    6.6089   -3.1796   -3.4333 H   0  0  0  0  0  0  0  0  0  0  0  0
    4.8163   -2.1604    0.1640 H   0  0  0  0  0  0  0  0  0  0  0  0
    6.3346   -1.4143    1.4440 H   0  0  0  0  0  0  0  0  0  0  0  0
    6.3955   -4.3538    1.5196 H   0  0  0  0  0  0  0  0  0  0  0  0
    5.4860   -5.4040   -0.7249 H   0  0  0  0  0  0  0  0  0  0  0  0
    3.8162   -6.9310   -0.1510 H   0  0  0  0  0  0  0  0  0  0  0  0
    3.3317   -7.1688    2.3393 H   0  0  0  0  0  0  0  0  0  0  0  0
    1.8930   -4.6903    1.2809 H   0  0  0  0  0  0  0  0  0  0  0  0
    1.0311   -7.0313    2.5224 H   0  0  0  0  0  0  0  0  0  0  0  0
    0.8168   -5.9525    4.5273 H   0  0  0  0  0  0  0  0  0  0  0  0
    2.0698   -5.5055    5.6031 H   0  0  0  0  0  0  0  0  0  0  0  0
   -0.2340   -3.8047    4.4666 H   0  0  0  0  0  0  0  0  0  0  0  0
    0.0873   -4.0869    6.1085 H   0  0  0  0  0  0  0  0  0  0  0  0
    0.1390   -1.6090    4.8874 H   0  0  0  0  0  0  0  0  0  0  0  0
    0.8196   -1.9282    6.4102 H   0  0  0  0  0  0  0  0  0  0  0  0
    1.7761    0.6475    4.2181 H   0  0  0  0  0  0  0  0  0  0  0  0
    2.1482    0.5765    5.9099 H   0  0  0  0  0  0  0  0  0  0  0  0
    4.0313    0.7522    3.5447 H   0  0  0  0  0  0  0  0  0  0  0  0
    4.1302    1.5875    5.0374 H   0  0  0  0  0  0  0  0  0  0  0  0
    5.7861   -0.4838    4.2081 H   0  0  0  0  0  0  0  0  0  0  0  0
    5.3038   -2.2965    6.1650 H   0  0  0  0  0  0  0  0  0  0  0  0
    3.3415   -0.9026    6.8672 H   0  0  0  0  0  0  0  0  0  0  0  0
    3.0268   -2.5427    6.6851 H   0  0  0  0  0  0  0  0  0  0  0  0
    5.1659   -3.7988    4.4778 H   0  0  0  0  0  0  0  0  0  0  0  0
    5.2202   -1.8633    2.7860 H   0  0  0  0  0  0  0  0  0  0  0  0
    2.7952   -0.8613    2.6296 H   0  0  0  0  0  0  0  0  0  0  0  0
    1.0332   -2.5447    3.0475 H   0  0  0  0  0  0  0  0  0  0  0  0
    2.2452   -2.8330    1.9174 H   0  0  0  0  0  0  0  0  0  0  0  0
    2.8715   -3.6447    5.0628 H   0  0  0  0  0  0  0  0  0  0  0  0
    4.6484   -5.5657    3.4513 H   0  0  0  0  0  0  0  0  0  0  0  0
  1  2  3  0
  1 32  1  0
  2  3  1  0
  3  4  1  0
  3  5  1  0
  3 33  1  6
  4 34  1  0
  5 30  1  0
  5  6  1  0
  5 35  1  1
  6  7  2  0
  6 36  1  0
  7  8  1  0
  7 37  1  0
  8 31  1  0
  8  9  1  0
  8 38  1  1
  9 10  1  0
  9 11  1  0
  9 39  1  6
 10 40  1  0
 11 29  1  0
 11 31  1  0
 11 12  1  1
 12 13  1  0
 12 41  1  0
 12 42  1  0
 13 14  1  0
 13 43  1  0
 13 44  1  0
 15 14  1  1
 14 45  1  0
 14 46  1  0
 15 24  1  0
 15 27  1  0
 15 16  1  0
 16 17  1  0
 16 47  1  0
 16 48  1  0
 17 18  1  0
 17 49  1  0
 17 50  1  0
 18 19  1  0
 18 23  1  0
 18 51  1  6
 19 20  1  0
 19 21  1  0
 19 22  1  0
 23 24  1  0
 23 25  1  0
 23 52  1  1
 24 53  1  0
 24 54  1  0
 25 29  1  0
 25 26  1  0
 25 55  1  6
 26 27  1  0
 26 30  1  0
 26 56  1  1
 27 28  1  0
 27 57  1  6
 28 29  1  0
 28 58  1  0
 28 59  1  0
 29 60  1  1
 30 31  1  0
 31 61  1  1
M  END
>  <i_m_ct_stereo_status>  (288) 
1

>  <s_m_source_file>  (288) 
/var/tmp/pbs.5076255.sched01/tmpegbcst3k/90u3quomt0.sdf

>  <i_m_source_file_index>  (288) 
22

>  <i_lp_mmshare_version>  (288) 
48012

>  <i_f3d_flags>  (288) 
0

>  <s_epik_input>  (288) 
W0NIXSNDW0NASF0oW09IXSlbQ0BASF0xW0NIXT1bQ0hdW0NASF0oW0NASF0yW09IXSlbQ0BIXTNOMVtDQEhdNFtDQEBIXShbQ0gyXTUpW0NAXShbQ0gyXTYpKFtDSDJdW0NIMl1bQ0gyXTcpW0NIMl1bQ0gyXVtDQEBIXShDKEYpKEYpRilbQ0BASF02W0NASF00W0NIXTVbQ0BAXTIzNw==

>  <s_epik_cmdline>  (288) 
J2VwaWtfcHl0aG9uJywgJy1waHQnLCAnMi4wJywgJy1waCcsICc3LjAnLCAnLXRuJywgJzgnLCAnLW1hJywgJzIwMCcsICctaW1hZScsICc8aW5maWxlLm1hZT4nLCAnLW9tYWUnLCAnPG91dGZpbGUubWFlPic=

>  <r_epik_Ionization_Penalty>  (288) 
0.30149

>  <r_epik_Ionization_Penalty_Charging>  (288) 
0

>  <r_epik_Ionization_Penalty_Neutral>  (288) 
0.30149

>  <r_epik_State_Penalty>  (288) 
0.294723

>  <r_epik_Charging_Adjusted_Penalty>  (288) 
0.294723

>  <i_epik_Tot_Q>  (288) 
0

>  <i_epik_Tot_abs_Q>  (288) 
0

>  <s_lp_Force_Field>  (288) 
OPLS3e

>  <r_lp_Energy>  (288) 
394.558

>  <b_lp_Chiralities_Consistent>  (288) 
1

>  <s_lp_Variant>  (288) 
73:0-1

>  <s_i_glide_gridfile>  (288) 
pfpi4k_grid

>  <i_i_glide_lignum>  (288) 
22

>  <i_i_glide_rotatable_bonds>  (288) 
5

>  <r_i_docking_score>  (288) 
-2.83848

>  <r_i_glide_ligand_efficiency>  (288) 
-0.0915638

>  <r_i_glide_ligand_efficiency_sa>  (288) 
-0.287637

>  <r_i_glide_ligand_efficiency_ln>  (288) 
-0.640163

>  <r_i_glide_gscore>  (288) 
-2.83848

>  <r_i_glide_lipo>  (288) 
-0.566727

>  <r_i_glide_hbond>  (288) 
-0.0637437

>  <r_i_glide_metal>  (288) 
-0

>  <r_i_glide_rewards>  (288) 
-0.668935

>  <r_i_glide_evdw>  (288) 
-23.975

>  <r_i_glide_ecoul>  (288) 
-3.68125

>  <r_i_glide_erotb>  (288) 
0.211866

>  <r_i_glide_esite>  (288) 
0

>  <r_i_glide_emodel>  (288) 
-31.3951

>  <r_i_glide_energy>  (288) 
-27.6562

>  <r_i_glide_einternal>  (288) 
4.71611

>  <r_i_glide_intrahb_reward>  (288) 
-0

>  <i_i_glide_confnum>  (288) 
4

>  <i_i_glide_posenum>  (288) 
4

>  <r_i_glide_eff_state_penalty>  (288) 
0

>  <ligand_id>  (288) 
73

>  <original_smiles>  (288) 
C#CC(O)C1C=CC2C(O)C34CCCC56CCC(C(F)(F)F)C(C5)C5C(C6CC53)N1C24

>  <smiles>  (288) 
[H]C#CC([H])(O[H])C1([H])C([H])=C([H])C2([H])C([H])(O[H])C34C([H])([H])C([H])([H])C([H])([H])C56C([H])([H])C([H])([H])C([H])(C(F)(F)F)C([H])(C5([H])[H])C5([H])C([H])(N1C23[H])C6([H])C([H])([H])C54[H]

$$$$
73:1:0
     RDKit          3D

 62 68  0  0  1  0  0  0  0  0999 V2000
    4.7918   -3.5414   -3.4164 C   0  0  0  0  0  0  0  0  0  0  0  0
    4.1080   -3.5155   -2.4066 C   0  0  0  0  0  0  0  0  0  0  0  0
    3.3576   -3.5723   -1.1357 C   0  0  2  0  0  0  0  0  0  0  0  0
    2.0006   -3.8624   -1.3936 O   0  0  0  0  0  0  0  0  0  0  0  0
    3.4565   -2.3131   -0.2338 C   0  0  2  0  0  0  0  0  0  0  0  0
    4.8065   -1.6111   -0.2420 C   0  0  0  0  0  0  0  0  0  0  0  0
    5.1884   -0.7380    0.6904 C   0  0  0  0  0  0  0  0  0  0  0  0
    4.3011   -0.3403    1.8572 C   0  0  2  0  0  0  0  0  0  0  0  0
    4.9051   -0.6070    3.2421 C   0  0  1  0  0  0  0  0  0  0  0  0
    4.9843    0.5131    4.0952 O   0  0  0  0  0  0  0  0  0  0  0  0
    3.8009   -1.6316    3.5477 C   0  0  2  0  0  0  0  0  0  0  0  0
    3.3075   -1.8653    5.0831 C   0  0  0  0  0  0  0  0  0  0  0  0
    4.0648   -3.0021    6.0578 C   0  0  0  0  0  0  0  0  0  0  0  0
    4.5949   -4.5259    5.5894 C   0  0  0  0  0  0  0  0  0  0  0  0
    3.9392   -5.3059    4.3046 C   0  0  1  0  0  0  0  0  0  0  0  0
    4.0552   -6.8279    4.1933 C   0  0  0  0  0  0  0  0  0  0  0  0
    3.0050   -7.3195    3.1438 C   0  0  0  0  0  0  0  0  0  0  0  0
    1.6817   -6.4629    3.0068 C   0  0  1  0  0  0  0  0  0  0  0  0
    0.4525   -7.2849    3.4934 C   0  0  0  0  0  0  0  0  0  0  0  0
    0.4549   -7.4834    4.8095 F   0  0  0  0  0  0  0  0  0  0  0  0
   -0.6701   -6.6509    3.1670 F   0  0  0  0  0  0  0  0  0  0  0  0
    0.4170   -8.4709    2.8895 F   0  0  0  0  0  0  0  0  0  0  0  0
    1.7283   -5.0156    3.6824 C   0  0  1  0  0  0  0  0  0  0  0  0
    2.5009   -5.1944    4.8803 C   0  0  0  0  0  0  0  0  0  0  0  0
    2.4259   -3.6863    3.0925 C   0  0  2  0  0  0  0  0  0  0  0  0
    2.9481   -3.9741    1.8081 C   0  0  2  0  0  0  0  0  0  0  0  0
    4.1614   -4.7492    2.6353 C   0  0  1  0  0  0  0  0  0  0  0  0
    5.0936   -3.6401    2.5687 C   0  0  0  0  0  0  0  0  0  0  0  0
    3.9687   -2.9946    3.3589 C   0  0  1  0  0  0  0  0  0  0  0  0
    2.9600   -2.5197    1.1732 N   0  0  1  0  0  0  0  0  0  0  0  0
    3.1272   -1.2984    2.1542 C   0  0  2  0  0  0  0  0  0  0  0  0
    5.4034   -3.6110   -4.2871 H   0  0  0  0  0  0  0  0  0  0  0  0
    3.7748   -4.4473   -0.6402 H   0  0  0  0  0  0  0  0  0  0  0  0
    1.9952   -4.4731   -2.1310 H   0  0  0  0  0  0  0  0  0  0  0  0
    2.7916   -1.5732   -0.6735 H   0  0  0  0  0  0  0  0  0  0  0  0
    5.4523   -1.7770   -1.0910 H   0  0  0  0  0  0  0  0  0  0  0  0
    6.1481   -0.2475    0.6229 H   0  0  0  0  0  0  0  0  0  0  0  0
    3.9563    0.6855    1.7385 H   0  0  0  0  0  0  0  0  0  0  0  0
    5.8844   -1.0870    3.1845 H   0  0  0  0  0  0  0  0  0  0  0  0
    4.1759    0.9999    3.9979 H   0  0  0  0  0  0  0  0  0  0  0  0
    3.3817   -0.9144    5.6086 H   0  0  0  0  0  0  0  0  0  0  0  0
    2.2353   -2.0641    5.0961 H   0  0  0  0  0  0  0  0  0  0  0  0
    4.9458   -2.5041    6.4650 H   0  0  0  0  0  0  0  0  0  0  0  0
    3.4350   -3.1221    6.9371 H   0  0  0  0  0  0  0  0  0  0  0  0
    5.6692   -4.4753    5.4259 H   0  0  0  0  0  0  0  0  0  0  0  0
    4.5069   -5.1734    6.4689 H   0  0  0  0  0  0  0  0  0  0  0  0
    5.0588   -7.1292    3.8993 H   0  0  0  0  0  0  0  0  0  0  0  0
    3.8779   -7.3081    5.1582 H   0  0  0  0  0  0  0  0  0  0  0  0
    3.4745   -7.3559    2.1606 H   0  0  0  0  0  0  0  0  0  0  0  0
    2.7723   -8.3604    3.3628 H   0  0  0  0  0  0  0  0  0  0  0  0
    1.4816   -6.3695    1.9406 H   0  0  0  0  0  0  0  0  0  0  0  0
    0.7041   -4.7354    3.9430 H   0  0  0  0  0  0  0  0  0  0  0  0
    2.1841   -6.0301    5.5066 H   0  0  0  0  0  0  0  0  0  0  0  0
    2.2295   -4.3366    5.4786 H   0  0  0  0  0  0  0  0  0  0  0  0
    1.6115   -2.9571    3.0699 H   0  0  0  0  0  0  0  0  0  0  0  0
    2.3193   -4.6243    1.2044 H   0  0  0  0  0  0  0  0  0  0  0  0
    4.6011   -5.5195    2.0087 H   0  0  0  0  0  0  0  0  0  0  0  0
    6.0538   -3.9084    3.0307 H   0  0  0  0  0  0  0  0  0  0  0  0
    5.2908   -3.3171    1.5544 H   0  0  0  0  0  0  0  0  0  0  0  0
    4.7895   -3.0346    4.0231 H   0  0  0  0  0  0  0  0  0  0  0  0
    2.2008   -0.7319    2.2702 H   0  0  0  0  0  0  0  0  0  0  0  0
    1.9742   -2.4338    0.9700 H   0  0  0  0  0  0  0  0  0  0  0  0
  1  2  3  0
  1 32  1  0
  2  3  1  0
  3  4  1  0
  3  5  1  0
  3 33  1  1
  4 34  1  0
  5 30  1  0
  5  6  1  0
  5 35  1  6
  6  7  2  0
  6 36  1  0
  7  8  1  0
  7 37  1  0
  8 31  1  0
  8  9  1  0
  8 38  1  6
  9 10  1  0
  9 11  1  0
  9 39  1  6
 10 40  1  0
 11 29  1  0
 11 31  1  0
 11 12  1  1
 12 13  1  0
 12 41  1  0
 12 42  1  0
 13 14  1  0
 13 43  1  0
 13 44  1  0
 15 14  1  1
 14 45  1  0
 14 46  1  0
 15 24  1  0
 15 27  1  0
 15 16  1  0
 16 17  1  0
 16 47  1  0
 16 48  1  0
 17 18  1  0
 17 49  1  0
 17 50  1  0
 18 19  1  0
 18 23  1  0
 18 51  1  6
 19 20  1  0
 19 21  1  0
 19 22  1  0
 23 24  1  0
 23 25  1  0
 23 52  1  1
 24 53  1  0
 24 54  1  0
 25 29  1  0
 25 26  1  0
 25 55  1  6
 26 27  1  0
 26 30  1  0
 26 56  1  6
 27 28  1  0
 27 57  1  6
 28 29  1  0
 28 58  1  0
 28 59  1  0
 29 60  1  1
 30 31  1  0
 30 62  1  6
 31 61  1  1
M  CHG  1  30   1
M  END
>  <i_m_ct_stereo_status>  (289) 
1

>  <s_m_source_file>  (289) 
/var/tmp/pbs.5076255.sched01/tmpegbcst3k/90u3quomt0.sdf

>  <i_m_source_file_index>  (289) 
23

>  <i_lp_mmshare_version>  (289) 
48012

>  <i_f3d_flags>  (289) 
0

>  <s_epik_input>  (289) 
W0NIXSNDW0NASF0oW09IXSlbQ0BASF0xW0NIXT1bQ0hdW0NASF0oW0NASF0yW09IXSlbQ0BIXTNOMVtDQEhdNFtDQEBIXShbQ0gyXTUpW0NAXShbQ0gyXTYpKFtDSDJdW0NIMl1bQ0gyXTcpW0NIMl1bQ0gyXVtDQEBIXShDKEYpKEYpRilbQ0BASF02W0NASF00W0NIXTVbQ0BAXTIzNw==

>  <s_epik_cmdline>  (289) 
J2VwaWtfcHl0aG9uJywgJy1waHQnLCAnMi4wJywgJy1waCcsICc3LjAnLCAnLXRuJywgJzgnLCAnLW1hJywgJzIwMCcsICctaW1hZScsICc8aW5maWxlLm1hZT4nLCAnLW9tYWUnLCAnPG91dGZpbGUubWFlPic=

>  <r_epik_Ionization_Penalty>  (289) 
0.545981

>  <r_epik_Ionization_Penalty_Charging>  (289) 
0.545097

>  <r_epik_Ionization_Penalty_Neutral>  (289) 
0.000883845

>  <r_epik_State_Penalty>  (289) 
0.554992

>  <r_epik_Charging_Adjusted_Penalty>  (289) 
1.10009

>  <i_epik_Tot_Q>  (289) 
1

>  <i_epik_Tot_abs_Q>  (289) 
1

>  <s_lp_Force_Field>  (289) 
OPLS3e

>  <r_lp_Energy>  (289) 
400.432

>  <b_lp_Chiralities_Consistent>  (289) 
1

>  <s_lp_Variant>  (289) 
73:0-2

>  <s_i_glide_gridfile>  (289) 
pfpi4k_grid

>  <i_i_glide_lignum>  (289) 
23

>  <i_i_glide_rotatable_bonds>  (289) 
5

>  <r_i_docking_score>  (289) 
-3.51838

>  <r_i_glide_ligand_efficiency>  (289) 
-0.113496

>  <r_i_glide_ligand_efficiency_sa>  (289) 
-0.356535

>  <r_i_glide_ligand_efficiency_ln>  (289) 
-0.793503

>  <r_i_glide_gscore>  (289) 
-3.51838

>  <r_i_glide_lipo>  (289) 
-0.589698

>  <r_i_glide_hbond>  (289) 
-0.237212

>  <r_i_glide_metal>  (289) 
-0

>  <r_i_glide_rewards>  (289) 
-0.446493

>  <r_i_glide_evdw>  (289) 
-23.4484

>  <r_i_glide_ecoul>  (289) 
-7.3866

>  <r_i_glide_erotb>  (289) 
0.210976

>  <r_i_glide_esite>  (289) 
-0.175549

>  <r_i_glide_emodel>  (289) 
-36.2025

>  <r_i_glide_energy>  (289) 
-30.835

>  <r_i_glide_einternal>  (289) 
2.38345

>  <r_i_glide_intrahb_reward>  (289) 
-0

>  <i_i_glide_confnum>  (289) 
4

>  <i_i_glide_posenum>  (289) 
33

>  <r_i_glide_eff_state_penalty>  (289) 
0

>  <ligand_id>  (289) 
73

>  <original_smiles>  (289) 
C#CC(O)C1C=CC2C(O)C34CCCC56CCC(C(F)(F)F)C(C5)C5C(C6CC53)N1C24

>  <smiles>  (289) 
[H]C#CC([H])(O[H])C1([H])C([H])=C([H])C2([H])C([H])(O[H])C34C([H])([H])C([H])([H])C([H])([H])C56C([H])([H])C([H])([H])C([H])(C(F)(F)F)C([H])(C5([H])[H])C5([H])C3([H])C([H])([H])C6([H])C5([H])[N+]1([H])C24[H]

$$$$
73:1:1
     RDKit          3D

 62 68  0  0  1  0  0  0  0  0999 V2000
    7.7470   -2.9391   -1.5807 C   0  0  0  0  0  0  0  0  0  0  0  0
    6.5649   -3.1263   -1.8283 C   0  0  0  0  0  0  0  0  0  0  0  0
    5.1216   -3.3052   -2.1083 C   0  0  2  0  0  0  0  0  0  0  0  0
    4.8110   -3.0021   -3.4533 O   0  0  0  0  0  0  0  0  0  0  0  0
    4.1702   -2.5078   -1.1584 C   0  0  2  0  0  0  0  0  0  0  0  0
    4.6511   -1.1048   -0.8225 C   0  0  0  0  0  0  0  0  0  0  0  0
    4.2167   -0.4097    0.2414 C   0  0  0  0  0  0  0  0  0  0  0  0
    3.1060   -0.9007    1.1439 C   0  0  2  0  0  0  0  0  0  0  0  0
    3.4479   -0.9787    2.6396 C   0  0  1  0  0  0  0  0  0  0  0  0
    2.5861   -0.2657    3.5020 O   0  0  0  0  0  0  0  0  0  0  0  0
    3.2812   -2.5087    2.6058 C   0  0  2  0  0  0  0  0  0  0  0  0
    2.7964   -3.3016    3.9442 C   0  0  0  0  0  0  0  0  0  0  0  0
    3.9251   -3.8547    5.0571 C   0  0  0  0  0  0  0  0  0  0  0  0
    5.4133   -4.5549    4.7095 C   0  0  0  0  0  0  0  0  0  0  0  0
    5.7036   -5.2962    3.2711 C   0  0  1  0  0  0  0  0  0  0  0  0
    6.8282   -6.3325    3.1561 C   0  0  0  0  0  0  0  0  0  0  0  0
    6.5898   -7.1626    1.8511 C   0  0  0  0  0  0  0  0  0  0  0  0
    5.0828   -7.3428    1.3907 C   0  0  1  0  0  0  0  0  0  0  0  0
    4.6554   -8.8319    1.5159 C   0  0  0  0  0  0  0  0  0  0  0  0
    4.5747   -9.2330    2.7838 F   0  0  0  0  0  0  0  0  0  0  0  0
    3.4690   -9.0126    0.9405 F   0  0  0  0  0  0  0  0  0  0  0  0
    5.5335   -9.6031    0.8854 F   0  0  0  0  0  0  0  0  0  0  0  0
    4.0270   -6.3712    2.0906 C   0  0  1  0  0  0  0  0  0  0  0  0
    4.4843   -6.2445    3.4450 C   0  0  0  0  0  0  0  0  0  0  0  0
    3.7494   -4.8232    1.7431 C   0  0  2  0  0  0  0  0  0  0  0  0
    4.5559   -4.4604    0.6380 C   0  0  2  0  0  0  0  0  0  0  0  0
    5.7983   -4.4110    1.7356 C   0  0  1  0  0  0  0  0  0  0  0  0
    5.7238   -2.9719    1.9337 C   0  0  0  0  0  0  0  0  0  0  0  0
    4.3474   -3.3745    2.4306 C   0  0  1  0  0  0  0  0  0  0  0  0
    3.7090   -3.2497    0.0665 N   0  0  1  0  0  0  0  0  0  0  0  0
    2.8387   -2.4218    1.0882 C   0  0  2  0  0  0  0  0  0  0  0  0
    8.7913   -2.7841   -1.4140 H   0  0  0  0  0  0  0  0  0  0  0  0
    4.9339   -4.3793   -2.0466 H   0  0  0  0  0  0  0  0  0  0  0  0
    4.1596   -3.6290   -3.7439 H   0  0  0  0  0  0  0  0  0  0  0  0
    3.2466   -2.3426   -1.7155 H   0  0  0  0  0  0  0  0  0  0  0  0
    5.3770   -0.6611   -1.4833 H   0  0  0  0  0  0  0  0  0  0  0  0
    4.6053    0.5728    0.4561 H   0  0  0  0  0  0  0  0  0  0  0  0
    2.2027   -0.3183    0.9621 H   0  0  0  0  0  0  0  0  0  0  0  0
    4.4810   -0.6920    2.8523 H   0  0  0  0  0  0  0  0  0  0  0  0
    1.7070   -0.3523    3.1607 H   0  0  0  0  0  0  0  0  0  0  0  0
    2.1115   -2.6558    4.4943 H   0  0  0  0  0  0  0  0  0  0  0  0
    2.1557   -4.1384    3.6650 H   0  0  0  0  0  0  0  0  0  0  0  0
    4.1526   -3.0005    5.6967 H   0  0  0  0  0  0  0  0  0  0  0  0
    3.3932   -4.5217    5.7339 H   0  0  0  0  0  0  0  0  0  0  0  0
    6.1826   -3.7959    4.8533 H   0  0  0  0  0  0  0  0  0  0  0  0
    5.6249   -5.2663    5.5146 H   0  0  0  0  0  0  0  0  0  0  0  0
    7.8080   -5.8573    3.1312 H   0  0  0  0  0  0  0  0  0  0  0  0
    6.8481   -6.9945    4.0251 H   0  0  0  0  0  0  0  0  0  0  0  0
    7.1321   -6.6901    1.0320 H   0  0  0  0  0  0  0  0  0  0  0  0
    7.0885   -8.1260    1.9576 H   0  0  0  0  0  0  0  0  0  0  0  0
    5.0624   -7.1971    0.3125 H   0  0  0  0  0  0  0  0  0  0  0  0
    3.0580   -6.8745    2.0775 H   0  0  0  0  0  0  0  0  0  0  0  0
    4.7005   -7.1909    3.9424 H   0  0  0  0  0  0  0  0  0  0  0  0
    3.6047   -5.9020    3.9726 H   0  0  0  0  0  0  0  0  0  0  0  0
    2.6796   -4.8030    1.5181 H   0  0  0  0  0  0  0  0  0  0  0  0
    4.6389   -5.2375   -0.1127 H   0  0  0  0  0  0  0  0  0  0  0  0
    6.7477   -4.5779    1.2330 H   0  0  0  0  0  0  0  0  0  0  0  0
    6.4984   -2.6072    2.6128 H   0  0  0  0  0  0  0  0  0  0  0  0
    5.8291   -2.4091    1.0156 H   0  0  0  0  0  0  0  0  0  0  0  0
    4.8474   -3.0196    3.2907 H   0  0  0  0  0  0  0  0  0  0  0  0
    1.7785   -2.6092    0.9577 H   0  0  0  0  0  0  0  0  0  0  0  0
    2.9779   -3.7887   -0.3727 H   0  0  0  0  0  0  0  0  0  0  0  0
  1  2  3  0
  1 32  1  0
  2  3  1  0
  3  4  1  0
  3  5  1  0
  3 33  1  6
  4 34  1  0
  5 30  1  0
  5  6  1  0
  5 35  1  6
  6  7  2  0
  6 36  1  0
  7  8  1  0
  7 37  1  0
  8 31  1  0
  8  9  1  0
  8 38  1  1
  9 10  1  0
  9 11  1  0
  9 39  1  6
 10 40  1  0
 11 29  1  0
 11 31  1  0
 11 12  1  1
 12 13  1  0
 12 41  1  0
 12 42  1  0
 13 14  1  0
 13 43  1  0
 13 44  1  0
 15 14  1  1
 14 45  1  0
 14 46  1  0
 15 24  1  0
 15 27  1  0
 15 16  1  0
 16 17  1  0
 16 47  1  0
 16 48  1  0
 17 18  1  0
 17 49  1  0
 17 50  1  0
 18 19  1  0
 18 23  1  0
 18 51  1  6
 19 20  1  0
 19 21  1  0
 19 22  1  0
 23 24  1  0
 23 25  1  0
 23 52  1  1
 24 53  1  0
 24 54  1  0
 25 29  1  0
 25 26  1  0
 25 55  1  6
 26 27  1  0
 26 30  1  0
 26 56  1  6
 27 28  1  0
 27 57  1  6
 28 29  1  0
 28 58  1  0
 28 59  1  0
 29 60  1  1
 30 31  1  0
 30 62  1  6
 31 61  1  1
M  CHG  1  30   1
M  END
>  <i_m_ct_stereo_status>  (290) 
1

>  <s_m_source_file>  (290) 
/var/tmp/pbs.5076255.sched01/tmpegbcst3k/90u3quomt0.sdf

>  <i_m_source_file_index>  (290) 
23

>  <i_lp_mmshare_version>  (290) 
48012

>  <i_f3d_flags>  (290) 
0

>  <s_epik_input>  (290) 
W0NIXSNDW0NASF0oW09IXSlbQ0BASF0xW0NIXT1bQ0hdW0NASF0oW0NASF0yW09IXSlbQ0BIXTNOMVtDQEhdNFtDQEBIXShbQ0gyXTUpW0NAXShbQ0gyXTYpKFtDSDJdW0NIMl1bQ0gyXTcpW0NIMl1bQ0gyXVtDQEBIXShDKEYpKEYpRilbQ0BASF02W0NASF00W0NIXTVbQ0BAXTIzNw==

>  <s_epik_cmdline>  (290) 
J2VwaWtfcHl0aG9uJywgJy1waHQnLCAnMi4wJywgJy1waCcsICc3LjAnLCAnLXRuJywgJzgnLCAnLW1hJywgJzIwMCcsICctaW1hZScsICc8aW5maWxlLm1hZT4nLCAnLW9tYWUnLCAnPG91dGZpbGUubWFlPic=

>  <r_epik_Ionization_Penalty>  (290) 
0.545981

>  <r_epik_Ionization_Penalty_Charging>  (290) 
0.545097

>  <r_epik_Ionization_Penalty_Neutral>  (290) 
0.000883845

>  <r_epik_State_Penalty>  (290) 
0.554992

>  <r_epik_Charging_Adjusted_Penalty>  (290) 
1.10009

>  <i_epik_Tot_Q>  (290) 
1

>  <i_epik_Tot_abs_Q>  (290) 
1

>  <s_lp_Force_Field>  (290) 
OPLS3e

>  <r_lp_Energy>  (290) 
400.432

>  <b_lp_Chiralities_Consistent>  (290) 
1

>  <s_lp_Variant>  (290) 
73:0-2

>  <s_i_glide_gridfile>  (290) 
pfpi4k_grid

>  <i_i_glide_lignum>  (290) 
23

>  <i_i_glide_rotatable_bonds>  (290) 
5

>  <r_i_docking_score>  (290) 
-3.30532

>  <r_i_glide_ligand_efficiency>  (290) 
-0.106623

>  <r_i_glide_ligand_efficiency_sa>  (290) 
-0.334944

>  <r_i_glide_ligand_efficiency_ln>  (290) 
-0.745451

>  <r_i_glide_gscore>  (290) 
-3.30532

>  <r_i_glide_lipo>  (290) 
-0.665652

>  <r_i_glide_hbond>  (290) 
0

>  <r_i_glide_metal>  (290) 
-0

>  <r_i_glide_rewards>  (290) 
-0.446493

>  <r_i_glide_evdw>  (290) 
-27.7312

>  <r_i_glide_ecoul>  (290) 
-5.97693

>  <r_i_glide_erotb>  (290) 
0.210976

>  <r_i_glide_esite>  (290) 
-0.121052

>  <r_i_glide_emodel>  (290) 
-38.2577

>  <r_i_glide_energy>  (290) 
-33.7081

>  <r_i_glide_einternal>  (290) 
3.24182

>  <r_i_glide_intrahb_reward>  (290) 
-0

>  <i_i_glide_confnum>  (290) 
4

>  <i_i_glide_posenum>  (290) 
1

>  <r_i_glide_eff_state_penalty>  (290) 
0

>  <ligand_id>  (290) 
73

>  <original_smiles>  (290) 
C#CC(O)C1C=CC2C(O)C34CCCC56CCC(C(F)(F)F)C(C5)C5C(C6CC53)N1C24

>  <smiles>  (290) 
[H]C#CC([H])(O[H])C1([H])C([H])=C([H])C2([H])C([H])(O[H])C34C([H])([H])C([H])([H])C([H])([H])C56C([H])([H])C([H])([H])C([H])(C(F)(F)F)C([H])(C5([H])[H])C5([H])C3([H])C([H])([H])C6([H])C5([H])[N+]1([H])C24[H]

$$$$
73:1:2
     RDKit          3D

 62 68  0  0  1  0  0  0  0  0999 V2000
    7.7858   -3.0597   -1.7021 C   0  0  0  0  0  0  0  0  0  0  0  0
    6.6084   -3.2956   -1.9325 C   0  0  0  0  0  0  0  0  0  0  0  0
    5.1704   -3.5290   -2.1967 C   0  0  2  0  0  0  0  0  0  0  0  0
    4.8362   -3.2584   -3.5392 O   0  0  0  0  0  0  0  0  0  0  0  0
    4.2045   -2.7472   -1.2566 C   0  0  2  0  0  0  0  0  0  0  0  0
    4.6546   -1.3300   -0.9387 C   0  0  0  0  0  0  0  0  0  0  0  0
    4.2057   -0.6346    0.1136 C   0  0  0  0  0  0  0  0  0  0  0  0
    3.1161   -1.1464    1.0321 C   0  0  2  0  0  0  0  0  0  0  0  0
    3.4648   -1.1995    2.5245 C   0  0  1  0  0  0  0  0  0  0  0  0
    2.5571   -0.5189    3.3634 O   0  0  0  0  0  0  0  0  0  0  0  0
    3.3255   -2.7323    2.5029 C   0  0  2  0  0  0  0  0  0  0  0  0
    2.8531   -3.5221    3.8476 C   0  0  0  0  0  0  0  0  0  0  0  0
    3.9853   -4.0474    4.9670 C   0  0  0  0  0  0  0  0  0  0  0  0
    5.4868   -4.7183    4.6282 C   0  0  0  0  0  0  0  0  0  0  0  0
    5.7999   -5.4626    3.1941 C   0  0  1  0  0  0  0  0  0  0  0  0
    6.9476   -6.4751    3.0860 C   0  0  0  0  0  0  0  0  0  0  0  0
    6.7281   -7.3194    1.7877 C   0  0  0  0  0  0  0  0  0  0  0  0
    5.2250   -7.5387    1.3362 C   0  0  1  0  0  0  0  0  0  0  0  0
    4.8315   -9.0345    1.4838 C   0  0  0  0  0  0  0  0  0  0  0  0
    3.6561   -9.2322    0.8918 F   0  0  0  0  0  0  0  0  0  0  0  0
    5.7332   -9.8057    0.8852 F   0  0  0  0  0  0  0  0  0  0  0  0
    4.7343   -9.4165    2.7572 F   0  0  0  0  0  0  0  0  0  0  0  0
    4.1484   -6.5835    2.0226 C   0  0  1  0  0  0  0  0  0  0  0  0
    4.6029   -6.4366    3.3742 C   0  0  0  0  0  0  0  0  0  0  0  0
    3.8382   -5.0437    1.6634 C   0  0  2  0  0  0  0  0  0  0  0  0
    4.6333   -4.6743    0.5540 C   0  0  2  0  0  0  0  0  0  0  0  0
    5.8756   -4.5902    1.6484 C   0  0  1  0  0  0  0  0  0  0  0  0
    5.7754   -3.1511    1.8281 C   0  0  0  0  0  0  0  0  0  0  0  0
    4.4097   -3.5765    2.3381 C   0  0  1  0  0  0  0  0  0  0  0  0
    3.7601   -3.4870   -0.0252 N   0  0  1  0  0  0  0  0  0  0  0  0
    2.8711   -2.6691    0.9875 C   0  0  2  0  0  0  0  0  0  0  0  0
    8.8288   -2.8799   -1.5562 H   0  0  0  0  0  0  0  0  0  0  0  0
    5.0136   -4.6072   -2.1214 H   0  0  0  0  0  0  0  0  0  0  0  0
    4.2225   -3.9275   -3.8183 H   0  0  0  0  0  0  0  0  0  0  0  0
    3.2772   -2.6069   -1.8147 H   0  0  0  0  0  0  0  0  0  0  0  0
    5.3695   -0.8747   -1.6102 H   0  0  0  0  0  0  0  0  0  0  0  0
    4.5676    0.3664    0.3064 H   0  0  0  0  0  0  0  0  0  0  0  0
    2.2039   -0.5785    0.8756 H   0  0  0  0  0  0  0  0  0  0  0  0
    4.4873   -0.8724    2.7449 H   0  0  0  0  0  0  0  0  0  0  0  0
    2.6383    0.4057    3.1814 H   0  0  0  0  0  0  0  0  0  0  0  0
    2.1559   -2.8866    4.3936 H   0  0  0  0  0  0  0  0  0  0  0  0
    2.2308   -4.3746    3.5773 H   0  0  0  0  0  0  0  0  0  0  0  0
    4.2016   -3.1839    5.5982 H   0  0  0  0  0  0  0  0  0  0  0  0
    3.4685   -4.7185    5.6534 H   0  0  0  0  0  0  0  0  0  0  0  0
    6.2181   -3.9279    4.7677 H   0  0  0  0  0  0  0  0  0  0  0  0
    5.7192   -5.4185    5.4385 H   0  0  0  0  0  0  0  0  0  0  0  0
    7.9175   -5.9807    3.0555 H   0  0  0  0  0  0  0  0  0  0  0  0
    6.9826   -7.1307    3.9594 H   0  0  0  0  0  0  0  0  0  0  0  0
    7.2585   -6.8439    0.9621 H   0  0  0  0  0  0  0  0  0  0  0  0
    7.2476   -8.2705    1.9028 H   0  0  0  0  0  0  0  0  0  0  0  0
    5.1916   -7.4034    0.2577 H   0  0  0  0  0  0  0  0  0  0  0  0
    3.1902   -7.1076    2.0130 H   0  0  0  0  0  0  0  0  0  0  0  0
    4.8410   -7.3711    3.8836 H   0  0  0  0  0  0  0  0  0  0  0  0
    3.7152   -6.1091    3.8977 H   0  0  0  0  0  0  0  0  0  0  0  0
    2.7679   -5.0485    1.4396 H   0  0  0  0  0  0  0  0  0  0  0  0
    4.7322   -5.4577   -0.1892 H   0  0  0  0  0  0  0  0  0  0  0  0
    6.8285   -4.7419    1.1465 H   0  0  0  0  0  0  0  0  0  0  0  0
    6.5551   -2.7696    2.4894 H   0  0  0  0  0  0  0  0  0  0  0  0
    5.8615   -2.5940    0.9051 H   0  0  0  0  0  0  0  0  0  0  0  0
    4.9069   -3.2045    3.1950 H   0  0  0  0  0  0  0  0  0  0  0  0
    1.8168   -2.8774    0.8620 H   0  0  0  0  0  0  0  0  0  0  0  0
    3.0421   -4.0475   -0.4591 H   0  0  0  0  0  0  0  0  0  0  0  0
  1  2  3  0
  1 32  1  0
  2  3  1  0
  3  4  1  0
  3  5  1  0
  3 33  1  6
  4 34  1  0
  5 30  1  0
  5  6  1  0
  5 35  1  6
  6  7  2  0
  6 36  1  0
  7  8  1  0
  7 37  1  0
  8 31  1  0
  8  9  1  0
  8 38  1  1
  9 10  1  0
  9 11  1  0
  9 39  1  6
 10 40  1  0
 11 29  1  0
 11 31  1  0
 11 12  1  1
 12 13  1  0
 12 41  1  0
 12 42  1  0
 13 14  1  0
 13 43  1  0
 13 44  1  0
 15 14  1  1
 14 45  1  0
 14 46  1  0
 15 24  1  0
 15 27  1  0
 15 16  1  0
 16 17  1  0
 16 47  1  0
 16 48  1  0
 17 18  1  0
 17 49  1  0
 17 50  1  0
 18 19  1  0
 18 23  1  0
 18 51  1  6
 19 20  1  0
 19 21  1  0
 19 22  1  0
 23 24  1  0
 23 25  1  0
 23 52  1  1
 24 53  1  0
 24 54  1  0
 25 29  1  0
 25 26  1  0
 25 55  1  6
 26 27  1  0
 26 30  1  0
 26 56  1  6
 27 28  1  0
 27 57  1  6
 28 29  1  0
 28 58  1  0
 28 59  1  0
 29 60  1  1
 30 31  1  0
 30 62  1  6
 31 61  1  1
M  CHG  1  30   1
M  END
>  <i_m_ct_stereo_status>  (291) 
1

>  <s_m_source_file>  (291) 
/var/tmp/pbs.5076255.sched01/tmpegbcst3k/90u3quomt0.sdf

>  <i_m_source_file_index>  (291) 
23

>  <i_lp_mmshare_version>  (291) 
48012

>  <i_f3d_flags>  (291) 
0

>  <s_epik_input>  (291) 
W0NIXSNDW0NASF0oW09IXSlbQ0BASF0xW0NIXT1bQ0hdW0NASF0oW0NASF0yW09IXSlbQ0BIXTNOMVtDQEhdNFtDQEBIXShbQ0gyXTUpW0NAXShbQ0gyXTYpKFtDSDJdW0NIMl1bQ0gyXTcpW0NIMl1bQ0gyXVtDQEBIXShDKEYpKEYpRilbQ0BASF02W0NASF00W0NIXTVbQ0BAXTIzNw==

>  <s_epik_cmdline>  (291) 
J2VwaWtfcHl0aG9uJywgJy1waHQnLCAnMi4wJywgJy1waCcsICc3LjAnLCAnLXRuJywgJzgnLCAnLW1hJywgJzIwMCcsICctaW1hZScsICc8aW5maWxlLm1hZT4nLCAnLW9tYWUnLCAnPG91dGZpbGUubWFlPic=

>  <r_epik_Ionization_Penalty>  (291) 
0.545981

>  <r_epik_Ionization_Penalty_Charging>  (291) 
0.545097

>  <r_epik_Ionization_Penalty_Neutral>  (291) 
0.000883845

>  <r_epik_State_Penalty>  (291) 
0.554992

>  <r_epik_Charging_Adjusted_Penalty>  (291) 
1.10009

>  <i_epik_Tot_Q>  (291) 
1

>  <i_epik_Tot_abs_Q>  (291) 
1

>  <s_lp_Force_Field>  (291) 
OPLS3e

>  <r_lp_Energy>  (291) 
400.432

>  <b_lp_Chiralities_Consistent>  (291) 
1

>  <s_lp_Variant>  (291) 
73:0-2

>  <s_i_glide_gridfile>  (291) 
pfpi4k_grid

>  <i_i_glide_lignum>  (291) 
23

>  <i_i_glide_rotatable_bonds>  (291) 
5

>  <r_i_docking_score>  (291) 
-3.27835

>  <r_i_glide_ligand_efficiency>  (291) 
-0.105753

>  <r_i_glide_ligand_efficiency_sa>  (291) 
-0.332211

>  <r_i_glide_ligand_efficiency_ln>  (291) 
-0.739368

>  <r_i_glide_gscore>  (291) 
-3.27835

>  <r_i_glide_lipo>  (291) 
-0.641936

>  <r_i_glide_hbond>  (291) 
0

>  <r_i_glide_metal>  (291) 
-0

>  <r_i_glide_rewards>  (291) 
-0.446493

>  <r_i_glide_evdw>  (291) 
-28.4332

>  <r_i_glide_ecoul>  (291) 
-5.5259

>  <r_i_glide_erotb>  (291) 
0.210976

>  <r_i_glide_esite>  (291) 
-0.150352

>  <r_i_glide_emodel>  (291) 
-37.6709

>  <r_i_glide_energy>  (291) 
-33.9591

>  <r_i_glide_einternal>  (291) 
4.69129

>  <r_i_glide_intrahb_reward>  (291) 
-0

>  <i_i_glide_confnum>  (291) 
4

>  <i_i_glide_posenum>  (291) 
15

>  <r_i_glide_eff_state_penalty>  (291) 
0

>  <ligand_id>  (291) 
73

>  <original_smiles>  (291) 
C#CC(O)C1C=CC2C(O)C34CCCC56CCC(C(F)(F)F)C(C5)C5C(C6CC53)N1C24

>  <smiles>  (291) 
[H]C#CC([H])(O[H])C1([H])C([H])=C([H])C2([H])C([H])(O[H])C34C([H])([H])C([H])([H])C([H])([H])C56C([H])([H])C([H])([H])C([H])(C(F)(F)F)C([H])(C5([H])[H])C5([H])C3([H])C([H])([H])C6([H])C5([H])[N+]1([H])C24[H]

$$$$
74:0:0
     RDKit          3D

 37 39  0  0  1  0  0  0  0  0999 V2000
   -7.9879   -7.7351  -10.1212 C   0  0  0  0  0  0  0  0  0  0  0  0
   -8.1208   -8.1091   -8.6393 C   0  0  2  0  0  0  0  0  0  0  0  0
   -6.9950   -7.4803   -7.8071 C   0  0  0  0  0  0  0  0  0  0  0  0
   -7.0616   -7.9139   -6.3322 C   0  0  2  0  0  0  0  0  0  0  0  0
   -5.9868   -7.2747   -5.4396 C   0  0  0  0  0  0  0  0  0  0  0  0
   -4.6169   -7.8799   -5.7492 C   0  0  0  0  0  0  0  0  0  0  0  0
   -4.6524   -9.4226   -5.7368 C   0  0  0  0  0  0  0  0  0  0  0  0
   -5.6898   -9.9608   -6.6276 N   0  0  0  0  0  0  0  0  0  0  0  0
   -5.6087  -11.4207   -6.5559 C   0  0  0  0  0  0  0  0  0  0  0  0
   -6.6713  -12.0946   -7.4393 C   0  0  0  0  0  0  0  0  0  0  0  0
   -8.0877  -11.6122   -7.0843 C   0  0  0  0  0  0  0  0  0  0  0  0
   -8.1420  -10.0815   -7.1121 C   0  0  2  0  0  0  0  0  0  0  0  0
   -8.0922   -9.5790   -8.5010 N   0  0  0  0  0  0  0  0  0  0  0  0
   -7.0236   -9.4589   -6.2407 C   0  0  2  0  0  0  0  0  0  0  0  0
   -8.0192   -6.6547  -10.2620 H   0  0  0  0  0  0  0  0  0  0  0  0
   -8.7898   -8.1735  -10.7180 H   0  0  0  0  0  0  0  0  0  0  0  0
   -7.0395   -8.0896  -10.5293 H   0  0  0  0  0  0  0  0  0  0  0  0
   -9.0814   -7.7412   -8.2710 H   0  0  0  0  0  0  0  0  0  0  0  0
   -6.0293   -7.7697   -8.2328 H   0  0  0  0  0  0  0  0  0  0  0  0
   -7.0742   -6.3953   -7.8636 H   0  0  0  0  0  0  0  0  0  0  0  0
   -8.0134   -7.5528   -5.9465 H   0  0  0  0  0  0  0  0  0  0  0  0
   -5.9725   -6.1909   -5.5711 H   0  0  0  0  0  0  0  0  0  0  0  0
   -6.2299   -7.4508   -4.3887 H   0  0  0  0  0  0  0  0  0  0  0  0
   -4.2902   -7.5255   -6.7250 H   0  0  0  0  0  0  0  0  0  0  0  0
   -3.8810   -7.5240   -5.0261 H   0  0  0  0  0  0  0  0  0  0  0  0
   -3.6799   -9.7948   -6.0687 H   0  0  0  0  0  0  0  0  0  0  0  0
   -4.7989   -9.7841   -4.7159 H   0  0  0  0  0  0  0  0  0  0  0  0
   -4.6165  -11.7445   -6.8728 H   0  0  0  0  0  0  0  0  0  0  0  0
   -5.7296  -11.7574   -5.5240 H   0  0  0  0  0  0  0  0  0  0  0  0
   -6.4511  -11.8878   -8.4911 H   0  0  0  0  0  0  0  0  0  0  0  0
   -6.6109  -13.1814   -7.3188 H   0  0  0  0  0  0  0  0  0  0  0  0
   -8.8222  -12.0484   -7.7649 H   0  0  0  0  0  0  0  0  0  0  0  0
   -8.3443  -11.9542   -6.0825 H   0  0  0  0  0  0  0  0  0  0  0  0
   -9.1075   -9.7809   -6.7108 H   0  0  0  0  0  0  0  0  0  0  0  0
   -8.8766   -9.9621   -9.0031 H   0  0  0  0  0  0  0  0  0  0  0  0
   -7.2096   -9.7548   -5.2090 H   0  0  0  0  0  0  0  0  0  0  0  0
   -7.2297   -9.9184   -8.9067 H   0  0  0  0  0  0  0  0  0  0  0  0
  1  2  1  0
  1 15  1  0
  1 16  1  0
  1 17  1  0
  2 13  1  0
  2  3  1  0
  2 18  1  1
  3  4  1  0
  3 19  1  0
  3 20  1  0
  4 14  1  0
  4  5  1  0
  4 21  1  1
  5  6  1  0
  5 22  1  0
  5 23  1  0
  6  7  1  0
  6 24  1  0
  6 25  1  0
  7  8  1  0
  7 26  1  0
  7 27  1  0
  8 14  1  0
  8  9  1  0
  9 10  1  0
  9 28  1  0
  9 29  1  0
 10 11  1  0
 10 30  1  0
 10 31  1  0
 11 12  1  0
 11 32  1  0
 11 33  1  0
 12 13  1  0
 12 14  1  0
 12 34  1  1
 13 35  1  0
 13 37  1  0
 14 36  1  1
M  CHG  1  13   1
M  END
>  <i_m_ct_stereo_status>  (292) 
1

>  <s_m_source_file>  (292) 
/var/tmp/pbs.5076255.sched01/tmpegbcst3k/90u3quomt0.sdf

>  <i_m_source_file_index>  (292) 
24

>  <i_lp_mmshare_version>  (292) 
48012

>  <i_f3d_flags>  (292) 
0

>  <s_epik_input>  (292) 
W0NIM11bQ0BIXShbQ0gyXTEpW05IXVtDQEhdMltDSDJdW0NIMl1bQ0gyXU4oW0NASF0yW0NASF0xMylbQ0gyXVtDSDJdW0NIMl0z

>  <s_epik_cmdline>  (292) 
J2VwaWtfcHl0aG9uJywgJy1waHQnLCAnMi4wJywgJy1waCcsICc3LjAnLCAnLXRuJywgJzgnLCAnLW1hJywgJzIwMCcsICctaW1hZScsICc8aW5maWxlLm1hZT4nLCAnLW9tYWUnLCAnPG91dGZpbGUubWFlPic=

>  <r_epik_Ionization_Penalty>  (292) 
0.0494499

>  <r_epik_Ionization_Penalty_Charging>  (292) 
0.00389773

>  <r_epik_Ionization_Penalty_Neutral>  (292) 
0.0455522

>  <r_epik_State_Penalty>  (292) 
0.120816

>  <r_epik_Charging_Adjusted_Penalty>  (292) 
0.124713

>  <i_epik_Tot_Q>  (292) 
1

>  <i_epik_Tot_abs_Q>  (292) 
1

>  <s_lp_Force_Field>  (292) 
OPLS3e

>  <r_lp_Energy>  (292) 
19.9073

>  <b_lp_Chiralities_Consistent>  (292) 
1

>  <s_lp_Variant>  (292) 
74:0-1

>  <s_i_glide_gridfile>  (292) 
pfpi4k_grid

>  <i_i_glide_lignum>  (292) 
24

>  <i_i_glide_rotatable_bonds>  (292) 
0

>  <r_i_docking_score>  (292) 
-5.43363

>  <r_i_glide_ligand_efficiency>  (292) 
-0.388116

>  <r_i_glide_ligand_efficiency_sa>  (292) 
-0.935415

>  <r_i_glide_ligand_efficiency_ln>  (292) 
-1.49314

>  <r_i_glide_gscore>  (292) 
-5.43363

>  <r_i_glide_lipo>  (292) 
-2.01028

>  <r_i_glide_hbond>  (292) 
0

>  <r_i_glide_metal>  (292) 
-0

>  <r_i_glide_rewards>  (292) 
-2.26231

>  <r_i_glide_evdw>  (292) 
-19.4729

>  <r_i_glide_ecoul>  (292) 
-1.24929

>  <r_i_glide_erotb>  (292) 
0

>  <r_i_glide_esite>  (292) 
0

>  <r_i_glide_emodel>  (292) 
-26.2933

>  <r_i_glide_energy>  (292) 
-20.7222

>  <r_i_glide_einternal>  (292) 
0

>  <r_i_glide_intrahb_reward>  (292) 
-0

>  <i_i_glide_confnum>  (292) 
1

>  <i_i_glide_posenum>  (292) 
5

>  <r_i_glide_eff_state_penalty>  (292) 
0

>  <ligand_id>  (292) 
74

>  <original_smiles>  (292) 
CC1CC2CCCN3CCCC(N1)C23

>  <smiles>  (292) 
[H]C([H])([H])C1([H])C([H])([H])C2([H])C([H])([H])C([H])([H])C([H])([H])N3C([H])([H])C([H])([H])C([H])([H])C([H])(C32[H])[N+]1([H])[H]

$$$$
74:0:1
     RDKit          3D

 37 39  0  0  1  0  0  0  0  0999 V2000
   -5.3580   -4.2767   -5.0529 C   0  0  0  0  0  0  0  0  0  0  0  0
   -6.3725   -5.3744   -5.1710 C   0  0  2  0  0  0  0  0  0  0  0  0
   -5.7135   -6.7350   -5.4396 C   0  0  0  0  0  0  0  0  0  0  0  0
   -6.7936   -7.8033   -5.6711 C   0  0  2  0  0  0  0  0  0  0  0  0
   -6.2448   -9.2150   -5.9251 C   0  0  0  0  0  0  0  0  0  0  0  0
   -5.6352   -9.2967   -7.3253 C   0  0  0  0  0  0  0  0  0  0  0  0
   -6.6208   -8.7923   -8.3950 C   0  0  0  0  0  0  0  0  0  0  0  0
   -7.1089   -7.4495   -8.1004 N   0  0  0  0  0  0  0  0  0  0  0  0
   -8.0060   -7.0532   -9.1912 C   0  0  0  0  0  0  0  0  0  0  0  0
   -8.5752   -5.6373   -8.9866 C   0  0  0  0  0  0  0  0  0  0  0  0
   -9.2784   -5.4949   -7.6297 C   0  0  0  0  0  0  0  0  0  0  0  0
   -8.3439   -5.9537   -6.5157 C   0  0  2  0  0  0  0  0  0  0  0  0
   -7.2875   -4.9833   -6.2547 N   0  0  0  0  0  0  0  0  0  0  0  0
   -7.7672   -7.3742   -6.7877 C   0  0  2  0  0  0  0  0  0  0  0  0
   -4.6141   -4.5768   -4.3252 H   0  0  0  0  0  0  0  0  0  0  0  0
   -5.8165   -3.3391   -4.7286 H   0  0  0  0  0  0  0  0  0  0  0  0
   -4.7734   -4.1026   -5.9528 H   0  0  0  0  0  0  0  0  0  0  0  0
   -6.9155   -5.4273   -4.2193 H   0  0  0  0  0  0  0  0  0  0  0  0
   -5.0519   -6.6870   -6.3123 H   0  0  0  0  0  0  0  0  0  0  0  0
   -5.0979   -7.0187   -4.5819 H   0  0  0  0  0  0  0  0  0  0  0  0
   -7.3673   -7.8520   -4.7412 H   0  0  0  0  0  0  0  0  0  0  0  0
   -5.5074   -9.4896   -5.1659 H   0  0  0  0  0  0  0  0  0  0  0  0
   -7.0609   -9.9353   -5.8532 H   0  0  0  0  0  0  0  0  0  0  0  0
   -4.7194   -8.7016   -7.3492 H   0  0  0  0  0  0  0  0  0  0  0  0
   -5.3549  -10.3278   -7.5490 H   0  0  0  0  0  0  0  0  0  0  0  0
   -6.1115   -8.7380   -9.3604 H   0  0  0  0  0  0  0  0  0  0  0  0
   -7.4605   -9.4846   -8.4988 H   0  0  0  0  0  0  0  0  0  0  0  0
   -7.4453   -7.0700  -10.1330 H   0  0  0  0  0  0  0  0  0  0  0  0
   -8.8217   -7.7700   -9.2817 H   0  0  0  0  0  0  0  0  0  0  0  0
   -7.7832   -4.8917   -9.0599 H   0  0  0  0  0  0  0  0  0  0  0  0
   -9.2759   -5.4347   -9.7978 H   0  0  0  0  0  0  0  0  0  0  0  0
   -9.6266   -4.4724   -7.4644 H   0  0  0  0  0  0  0  0  0  0  0  0
  -10.1592   -6.1404   -7.6156 H   0  0  0  0  0  0  0  0  0  0  0  0
   -8.9251   -5.9407   -5.5972 H   0  0  0  0  0  0  0  0  0  0  0  0
   -7.7265   -4.1139   -5.9928 H   0  0  0  0  0  0  0  0  0  0  0  0
   -8.5985   -8.0778   -6.8116 H   0  0  0  0  0  0  0  0  0  0  0  0
   -6.7629   -4.8766   -7.1094 H   0  0  0  0  0  0  0  0  0  0  0  0
  1  2  1  0
  1 15  1  0
  1 16  1  0
  1 17  1  0
  2 13  1  0
  2  3  1  0
  2 18  1  1
  3  4  1  0
  3 19  1  0
  3 20  1  0
  4 14  1  0
  4  5  1  0
  4 21  1  1
  5  6  1  0
  5 22  1  0
  5 23  1  0
  6  7  1  0
  6 24  1  0
  6 25  1  0
  7  8  1  0
  7 26  1  0
  7 27  1  0
  8 14  1  0
  8  9  1  0
  9 10  1  0
  9 28  1  0
  9 29  1  0
 10 11  1  0
 10 30  1  0
 10 31  1  0
 11 12  1  0
 11 32  1  0
 11 33  1  0
 12 13  1  0
 12 14  1  0
 12 34  1  1
 13 35  1  0
 13 37  1  0
 14 36  1  6
M  CHG  1  13   1
M  END
>  <i_m_ct_stereo_status>  (293) 
1

>  <s_m_source_file>  (293) 
/var/tmp/pbs.5076255.sched01/tmpegbcst3k/90u3quomt0.sdf

>  <i_m_source_file_index>  (293) 
24

>  <i_lp_mmshare_version>  (293) 
48012

>  <i_f3d_flags>  (293) 
0

>  <s_epik_input>  (293) 
W0NIM11bQ0BIXShbQ0gyXTEpW05IXVtDQEhdMltDSDJdW0NIMl1bQ0gyXU4oW0NASF0yW0NASF0xMylbQ0gyXVtDSDJdW0NIMl0z

>  <s_epik_cmdline>  (293) 
J2VwaWtfcHl0aG9uJywgJy1waHQnLCAnMi4wJywgJy1waCcsICc3LjAnLCAnLXRuJywgJzgnLCAnLW1hJywgJzIwMCcsICctaW1hZScsICc8aW5maWxlLm1hZT4nLCAnLW9tYWUnLCAnPG91dGZpbGUubWFlPic=

>  <r_epik_Ionization_Penalty>  (293) 
0.0494499

>  <r_epik_Ionization_Penalty_Charging>  (293) 
0.00389773

>  <r_epik_Ionization_Penalty_Neutral>  (293) 
0.0455522

>  <r_epik_State_Penalty>  (293) 
0.120816

>  <r_epik_Charging_Adjusted_Penalty>  (293) 
0.124713

>  <i_epik_Tot_Q>  (293) 
1

>  <i_epik_Tot_abs_Q>  (293) 
1

>  <s_lp_Force_Field>  (293) 
OPLS3e

>  <r_lp_Energy>  (293) 
19.9073

>  <b_lp_Chiralities_Consistent>  (293) 
1

>  <s_lp_Variant>  (293) 
74:0-1

>  <s_i_glide_gridfile>  (293) 
pfpi4k_grid

>  <i_i_glide_lignum>  (293) 
24

>  <i_i_glide_rotatable_bonds>  (293) 
0

>  <r_i_docking_score>  (293) 
-5.2014

>  <r_i_glide_ligand_efficiency>  (293) 
-0.371528

>  <r_i_glide_ligand_efficiency_sa>  (293) 
-0.895437

>  <r_i_glide_ligand_efficiency_ln>  (293) 
-1.42933

>  <r_i_glide_gscore>  (293) 
-5.2014

>  <r_i_glide_lipo>  (293) 
-2.34484

>  <r_i_glide_hbond>  (293) 
0

>  <r_i_glide_metal>  (293) 
-0

>  <r_i_glide_rewards>  (293) 
-2.07733

>  <r_i_glide_evdw>  (293) 
-15.9743

>  <r_i_glide_ecoul>  (293) 
0.129893

>  <r_i_glide_erotb>  (293) 
0

>  <r_i_glide_esite>  (293) 
0

>  <r_i_glide_emodel>  (293) 
-20.9434

>  <r_i_glide_energy>  (293) 
-15.8444

>  <r_i_glide_einternal>  (293) 
0

>  <r_i_glide_intrahb_reward>  (293) 
-0

>  <i_i_glide_confnum>  (293) 
2

>  <i_i_glide_posenum>  (293) 
11

>  <r_i_glide_eff_state_penalty>  (293) 
0

>  <ligand_id>  (293) 
74

>  <original_smiles>  (293) 
CC1CC2CCCN3CCCC(N1)C23

>  <smiles>  (293) 
[H]C([H])([H])C1([H])C([H])([H])C2([H])C([H])([H])C([H])([H])C([H])([H])N3C([H])([H])C([H])([H])C([H])([H])C([H])(C32[H])[N+]1([H])[H]

$$$$
74:0:2
     RDKit          3D

 37 39  0  0  1  0  0  0  0  0999 V2000
   -8.9652   -4.0975   -7.9276 C   0  0  0  0  0  0  0  0  0  0  0  0
   -8.7804   -5.3424   -7.0945 C   0  0  2  0  0  0  0  0  0  0  0  0
   -7.6490   -5.1198   -6.1018 C   0  0  0  0  0  0  0  0  0  0  0  0
   -7.4037   -6.4015   -5.2960 C   0  0  2  0  0  0  0  0  0  0  0  0
   -6.3309   -6.2087   -4.2361 C   0  0  0  0  0  0  0  0  0  0  0  0
   -4.9775   -6.2002   -4.9090 C   0  0  0  0  0  0  0  0  0  0  0  0
   -4.7609   -7.4085   -5.8275 C   0  0  0  0  0  0  0  0  0  0  0  0
   -5.7919   -7.4622   -6.8557 N   0  0  0  0  0  0  0  0  0  0  0  0
   -5.5050   -8.5607   -7.7791 C   0  0  0  0  0  0  0  0  0  0  0  0
   -6.5734   -8.7047   -8.8641 C   0  0  0  0  0  0  0  0  0  0  0  0
   -7.9647   -8.8911   -8.2729 C   0  0  0  0  0  0  0  0  0  0  0  0
   -8.2201   -7.7746   -7.2853 C   0  0  2  0  0  0  0  0  0  0  0  0
   -8.4990   -6.4943   -7.9742 N   0  0  0  0  0  0  0  0  0  0  0  0
   -7.1080   -7.6086   -6.2346 C   0  0  2  0  0  0  0  0  0  0  0  0
   -9.2102   -3.2351   -7.3057 H   0  0  0  0  0  0  0  0  0  0  0  0
   -9.7864   -4.2640   -8.6233 H   0  0  0  0  0  0  0  0  0  0  0  0
   -8.0685   -3.8617   -8.5060 H   0  0  0  0  0  0  0  0  0  0  0  0
   -9.7114   -5.5157   -6.5454 H   0  0  0  0  0  0  0  0  0  0  0  0
   -6.7474   -4.7998   -6.6254 H   0  0  0  0  0  0  0  0  0  0  0  0
   -7.9285   -4.3092   -5.4198 H   0  0  0  0  0  0  0  0  0  0  0  0
   -8.3242   -6.5948   -4.7456 H   0  0  0  0  0  0  0  0  0  0  0  0
   -6.5102   -5.3016   -3.6471 H   0  0  0  0  0  0  0  0  0  0  0  0
   -6.3585   -7.0257   -3.5215 H   0  0  0  0  0  0  0  0  0  0  0  0
   -4.8471   -5.2544   -5.4401 H   0  0  0  0  0  0  0  0  0  0  0  0
   -4.2530   -6.2798   -4.1115 H   0  0  0  0  0  0  0  0  0  0  0  0
   -3.7792   -7.2594   -6.2736 H   0  0  0  0  0  0  0  0  0  0  0  0
   -4.7463   -8.3441   -5.2596 H   0  0  0  0  0  0  0  0  0  0  0  0
   -4.5268   -8.3472   -8.2404 H   0  0  0  0  0  0  0  0  0  0  0  0
   -5.4055   -9.4866   -7.2085 H   0  0  0  0  0  0  0  0  0  0  0  0
   -6.5583   -7.8316   -9.5202 H   0  0  0  0  0  0  0  0  0  0  0  0
   -6.3652   -9.5820   -9.4838 H   0  0  0  0  0  0  0  0  0  0  0  0
   -8.7188   -8.9247   -9.0563 H   0  0  0  0  0  0  0  0  0  0  0  0
   -7.9964   -9.8396   -7.7367 H   0  0  0  0  0  0  0  0  0  0  0  0
   -9.0999   -8.1509   -6.7696 H   0  0  0  0  0  0  0  0  0  0  0  0
   -9.2804   -6.6372   -8.5842 H   0  0  0  0  0  0  0  0  0  0  0  0
   -7.0967   -8.5220   -5.6399 H   0  0  0  0  0  0  0  0  0  0  0  0
   -7.6923   -6.2556   -8.5416 H   0  0  0  0  0  0  0  0  0  0  0  0
  1  2  1  0
  1 15  1  0
  1 16  1  0
  1 17  1  0
  2 13  1  0
  2  3  1  0
  2 18  1  1
  3  4  1  0
  3 19  1  0
  3 20  1  0
  4 14  1  0
  4  5  1  0
  4 21  1  1
  5  6  1  0
  5 22  1  0
  5 23  1  0
  6  7  1  0
  6 24  1  0
  6 25  1  0
  7  8  1  0
  7 26  1  0
  7 27  1  0
  8 14  1  0
  8  9  1  0
  9 10  1  0
  9 28  1  0
  9 29  1  0
 10 11  1  0
 10 30  1  0
 10 31  1  0
 11 12  1  0
 11 32  1  0
 11 33  1  0
 12 13  1  0
 12 14  1  0
 12 34  1  1
 13 35  1  0
 13 37  1  0
 14 36  1  1
M  CHG  1  13   1
M  END
>  <i_m_ct_stereo_status>  (294) 
1

>  <s_m_source_file>  (294) 
/var/tmp/pbs.5076255.sched01/tmpegbcst3k/90u3quomt0.sdf

>  <i_m_source_file_index>  (294) 
24

>  <i_lp_mmshare_version>  (294) 
48012

>  <i_f3d_flags>  (294) 
0

>  <s_epik_input>  (294) 
W0NIM11bQ0BIXShbQ0gyXTEpW05IXVtDQEhdMltDSDJdW0NIMl1bQ0gyXU4oW0NASF0yW0NASF0xMylbQ0gyXVtDSDJdW0NIMl0z

>  <s_epik_cmdline>  (294) 
J2VwaWtfcHl0aG9uJywgJy1waHQnLCAnMi4wJywgJy1waCcsICc3LjAnLCAnLXRuJywgJzgnLCAnLW1hJywgJzIwMCcsICctaW1hZScsICc8aW5maWxlLm1hZT4nLCAnLW9tYWUnLCAnPG91dGZpbGUubWFlPic=

>  <r_epik_Ionization_Penalty>  (294) 
0.0494499

>  <r_epik_Ionization_Penalty_Charging>  (294) 
0.00389773

>  <r_epik_Ionization_Penalty_Neutral>  (294) 
0.0455522

>  <r_epik_State_Penalty>  (294) 
0.120816

>  <r_epik_Charging_Adjusted_Penalty>  (294) 
0.124713

>  <i_epik_Tot_Q>  (294) 
1

>  <i_epik_Tot_abs_Q>  (294) 
1

>  <s_lp_Force_Field>  (294) 
OPLS3e

>  <r_lp_Energy>  (294) 
19.9073

>  <b_lp_Chiralities_Consistent>  (294) 
1

>  <s_lp_Variant>  (294) 
74:0-1

>  <s_i_glide_gridfile>  (294) 
pfpi4k_grid

>  <i_i_glide_lignum>  (294) 
24

>  <i_i_glide_rotatable_bonds>  (294) 
0

>  <r_i_docking_score>  (294) 
-4.51468

>  <r_i_glide_ligand_efficiency>  (294) 
-0.322477

>  <r_i_glide_ligand_efficiency_sa>  (294) 
-0.777216

>  <r_i_glide_ligand_efficiency_ln>  (294) 
-1.24062

>  <r_i_glide_gscore>  (294) 
-4.51468

>  <r_i_glide_lipo>  (294) 
-2.1196

>  <r_i_glide_hbond>  (294) 
0

>  <r_i_glide_metal>  (294) 
-0

>  <r_i_glide_rewards>  (294) 
-2.07733

>  <r_i_glide_evdw>  (294) 
-7.89947

>  <r_i_glide_ecoul>  (294) 
0.514805

>  <r_i_glide_erotb>  (294) 
0

>  <r_i_glide_esite>  (294) 
0

>  <r_i_glide_emodel>  (294) 
-11.8482

>  <r_i_glide_energy>  (294) 
-7.38466

>  <r_i_glide_einternal>  (294) 
0

>  <r_i_glide_intrahb_reward>  (294) 
-0

>  <i_i_glide_confnum>  (294) 
1

>  <i_i_glide_posenum>  (294) 
27

>  <r_i_glide_eff_state_penalty>  (294) 
0

>  <ligand_id>  (294) 
74

>  <original_smiles>  (294) 
CC1CC2CCCN3CCCC(N1)C23

>  <smiles>  (294) 
[H]C([H])([H])C1([H])C([H])([H])C2([H])C([H])([H])C([H])([H])C([H])([H])N3C([H])([H])C([H])([H])C([H])([H])C([H])(C32[H])[N+]1([H])[H]

$$$$
74:1:0
     RDKit          3D

 37 39  0  0  1  0  0  0  0  0999 V2000
   -5.4098   -4.2638   -5.0787 C   0  0  0  0  0  0  0  0  0  0  0  0
   -6.4299   -5.3634   -5.2041 C   0  0  2  0  0  0  0  0  0  0  0  0
   -5.7616   -6.7194   -5.4785 C   0  0  0  0  0  0  0  0  0  0  0  0
   -6.8209   -7.7934   -5.6851 C   0  0  2  0  0  0  0  0  0  0  0  0
   -6.2418   -9.1966   -5.9501 C   0  0  0  0  0  0  0  0  0  0  0  0
   -5.6685   -9.2869   -7.3670 C   0  0  0  0  0  0  0  0  0  0  0  0
   -6.6929   -8.8544   -8.4095 C   0  0  0  0  0  0  0  0  0  0  0  0
   -7.2257   -7.5026   -8.1516 N   0  0  1  0  0  0  0  0  0  0  0  0
   -8.1417   -7.0681   -9.2192 C   0  0  0  0  0  0  0  0  0  0  0  0
   -8.6371   -5.6436   -9.0072 C   0  0  0  0  0  0  0  0  0  0  0  0
   -9.3012   -5.4811   -7.6342 C   0  0  0  0  0  0  0  0  0  0  0  0
   -8.3518   -5.9368   -6.5195 C   0  0  2  0  0  0  0  0  0  0  0  0
   -7.2859   -4.9762   -6.3068 N   0  0  0  0  0  0  0  0  0  0  0  0
   -7.7867   -7.3611   -6.7959 C   0  0  2  0  0  0  0  0  0  0  0  0
   -4.6611   -4.5457   -4.3478 H   0  0  0  0  0  0  0  0  0  0  0  0
   -5.8781   -3.3415   -4.7554 H   0  0  0  0  0  0  0  0  0  0  0  0
   -4.8682   -4.0686   -6.0003 H   0  0  0  0  0  0  0  0  0  0  0  0
   -7.0113   -5.4391   -4.2875 H   0  0  0  0  0  0  0  0  0  0  0  0
   -5.1207   -6.6623   -6.3529 H   0  0  0  0  0  0  0  0  0  0  0  0
   -5.1096   -7.0036   -4.6464 H   0  0  0  0  0  0  0  0  0  0  0  0
   -7.3739   -7.8337   -4.7474 H   0  0  0  0  0  0  0  0  0  0  0  0
   -5.4854   -9.4498   -5.1957 H   0  0  0  0  0  0  0  0  0  0  0  0
   -7.0411   -9.9318   -5.8374 H   0  0  0  0  0  0  0  0  0  0  0  0
   -4.7819   -8.6612   -7.4321 H   0  0  0  0  0  0  0  0  0  0  0  0
   -5.3560  -10.3089   -7.5705 H   0  0  0  0  0  0  0  0  0  0  0  0
   -6.2156   -8.8533   -9.3765 H   0  0  0  0  0  0  0  0  0  0  0  0
   -7.5067   -9.5800   -8.4483 H   0  0  0  0  0  0  0  0  0  0  0  0
   -7.6310   -7.1068  -10.1696 H   0  0  0  0  0  0  0  0  0  0  0  0
   -8.9969   -7.7436   -9.2921 H   0  0  0  0  0  0  0  0  0  0  0  0
   -7.8120   -4.9352   -9.0809 H   0  0  0  0  0  0  0  0  0  0  0  0
   -9.3502   -5.4213   -9.7945 H   0  0  0  0  0  0  0  0  0  0  0  0
   -9.6494   -4.4516   -7.4677 H   0  0  0  0  0  0  0  0  0  0  0  0
  -10.2032   -6.1072   -7.6034 H   0  0  0  0  0  0  0  0  0  0  0  0
   -8.9149   -5.9207   -5.5873 H   0  0  0  0  0  0  0  0  0  0  0  0
   -7.6988   -4.0643   -6.1308 H   0  0  0  0  0  0  0  0  0  0  0  0
   -8.6156   -8.0675   -6.7501 H   0  0  0  0  0  0  0  0  0  0  0  0
   -6.4378   -6.8481   -8.1628 H   0  0  0  0  0  0  0  0  0  0  0  0
  1  2  1  0
  1 15  1  0
  1 16  1  0
  1 17  1  0
  2 13  1  0
  2  3  1  0
  2 18  1  1
  3  4  1  0
  3 19  1  0
  3 20  1  0
  4 14  1  0
  4  5  1  0
  4 21  1  1
  5  6  1  0
  5 22  1  0
  5 23  1  0
  6  7  1  0
  6 24  1  0
  6 25  1  0
  7  8  1  0
  7 26  1  0
  7 27  1  0
  8 14  1  0
  8  9  1  0
  8 37  1  1
  9 10  1  0
  9 28  1  0
  9 29  1  0
 10 11  1  0
 10 30  1  0
 10 31  1  0
 11 12  1  0
 11 32  1  0
 11 33  1  0
 12 13  1  0
 12 14  1  0
 12 34  1  1
 13 35  1  0
 14 36  1  6
M  CHG  1   8   1
M  END
>  <i_m_ct_stereo_status>  (295) 
1

>  <s_m_source_file>  (295) 
/var/tmp/pbs.5076255.sched01/tmpegbcst3k/90u3quomt0.sdf

>  <i_m_source_file_index>  (295) 
25

>  <i_lp_mmshare_version>  (295) 
48012

>  <i_f3d_flags>  (295) 
0

>  <s_epik_input>  (295) 
W0NIM11bQ0BIXShbQ0gyXTEpW05IXVtDQEhdMltDSDJdW0NIMl1bQ0gyXU4oW0NASF0yW0NASF0xMylbQ0gyXVtDSDJdW0NIMl0z

>  <s_epik_cmdline>  (295) 
J2VwaWtfcHl0aG9uJywgJy1waHQnLCAnMi4wJywgJy1waCcsICc3LjAnLCAnLXRuJywgJzgnLCAnLW1hJywgJzIwMCcsICctaW1hZScsICc8aW5maWxlLm1hZT4nLCAnLW9tYWUnLCAnPG91dGZpbGUubWFlPic=

>  <r_epik_Ionization_Penalty>  (295) 
0.220535

>  <r_epik_Ionization_Penalty_Charging>  (295) 
0.0010235

>  <r_epik_Ionization_Penalty_Neutral>  (295) 
0.219511

>  <r_epik_State_Penalty>  (295) 
1.2113

>  <r_epik_Charging_Adjusted_Penalty>  (295) 
1.21232

>  <i_epik_Tot_Q>  (295) 
1

>  <i_epik_Tot_abs_Q>  (295) 
1

>  <s_lp_Force_Field>  (295) 
OPLS3e

>  <r_lp_Energy>  (295) 
28.6436

>  <b_lp_Chiralities_Consistent>  (295) 
1

>  <s_lp_Variant>  (295) 
74:0-2

>  <s_i_glide_gridfile>  (295) 
pfpi4k_grid

>  <i_i_glide_lignum>  (295) 
25

>  <i_i_glide_rotatable_bonds>  (295) 
0

>  <r_i_docking_score>  (295) 
-5.6486

>  <r_i_glide_ligand_efficiency>  (295) 
-0.403472

>  <r_i_glide_ligand_efficiency_sa>  (295) 
-0.972424

>  <r_i_glide_ligand_efficiency_ln>  (295) 
-1.55222

>  <r_i_glide_gscore>  (295) 
-5.6486

>  <r_i_glide_lipo>  (295) 
-2.36046

>  <r_i_glide_hbond>  (295) 
0

>  <r_i_glide_metal>  (295) 
-0

>  <r_i_glide_rewards>  (295) 
-2.41654

>  <r_i_glide_evdw>  (295) 
-17.2709

>  <r_i_glide_ecoul>  (295) 
-0.0537095

>  <r_i_glide_erotb>  (295) 
0

>  <r_i_glide_esite>  (295) 
0

>  <r_i_glide_emodel>  (295) 
-19.9408

>  <r_i_glide_energy>  (295) 
-17.3246

>  <r_i_glide_einternal>  (295) 
0

>  <r_i_glide_intrahb_reward>  (295) 
-0

>  <i_i_glide_confnum>  (295) 
2

>  <i_i_glide_posenum>  (295) 
1

>  <r_i_glide_eff_state_penalty>  (295) 
0

>  <ligand_id>  (295) 
74

>  <original_smiles>  (295) 
CC1CC2CCCN3CCCC(N1)C23

>  <smiles>  (295) 
[H]N1C([H])(C([H])([H])[H])C([H])([H])C2([H])C([H])([H])C([H])([H])C([H])([H])[N+]3([H])C([H])([H])C([H])([H])C([H])([H])C1([H])C23[H]

$$$$
74:1:1
     RDKit          3D

 37 39  0  0  1  0  0  0  0  0999 V2000
   -8.5523   -3.5513   -6.8230 C   0  0  0  0  0  0  0  0  0  0  0  0
   -8.6343   -5.0469   -6.6404 C   0  0  2  0  0  0  0  0  0  0  0  0
   -7.2802   -5.5655   -6.1336 C   0  0  0  0  0  0  0  0  0  0  0  0
   -7.3610   -7.0638   -5.9667 C   0  0  2  0  0  0  0  0  0  0  0  0
   -6.1127   -7.7763   -5.4019 C   0  0  0  0  0  0  0  0  0  0  0  0
   -4.9957   -7.8568   -6.4238 C   0  0  0  0  0  0  0  0  0  0  0  0
   -5.4997   -8.4655   -7.7485 C   0  0  0  0  0  0  0  0  0  0  0  0
   -6.7459   -7.8326   -8.2462 N   0  0  1  0  0  0  0  0  0  0  0  0
   -7.1745   -8.3606   -9.5506 C   0  0  0  0  0  0  0  0  0  0  0  0
   -8.3718   -7.6257  -10.1622 C   0  0  0  0  0  0  0  0  0  0  0  0
   -9.5398   -7.6645   -9.1949 C   0  0  0  0  0  0  0  0  0  0  0  0
   -9.0760   -7.0738   -7.8621 C   0  0  2  0  0  0  0  0  0  0  0  0
   -8.9276   -5.6251   -7.9474 N   0  0  0  0  0  0  0  0  0  0  0  0
   -7.8298   -7.7697   -7.2609 C   0  0  2  0  0  0  0  0  0  0  0  0
   -8.3111   -3.1149   -5.8560 H   0  0  0  0  0  0  0  0  0  0  0  0
   -9.4703   -3.1031   -7.1906 H   0  0  0  0  0  0  0  0  0  0  0  0
   -7.7402   -3.3043   -7.5128 H   0  0  0  0  0  0  0  0  0  0  0  0
   -9.4200   -5.2632   -5.9106 H   0  0  0  0  0  0  0  0  0  0  0  0
   -6.5295   -5.2978   -6.8441 H   0  0  0  0  0  0  0  0  0  0  0  0
   -7.0193   -5.1302   -5.1673 H   0  0  0  0  0  0  0  0  0  0  0  0
   -8.1398   -7.0589   -5.2049 H   0  0  0  0  0  0  0  0  0  0  0  0
   -5.7599   -7.2857   -4.4971 H   0  0  0  0  0  0  0  0  0  0  0  0
   -6.3562   -8.8073   -5.1245 H   0  0  0  0  0  0  0  0  0  0  0  0
   -4.6306   -6.8448   -6.5290 H   0  0  0  0  0  0  0  0  0  0  0  0
   -4.1375   -8.4203   -6.0426 H   0  0  0  0  0  0  0  0  0  0  0  0
   -4.7217   -8.3251   -8.4999 H   0  0  0  0  0  0  0  0  0  0  0  0
   -5.6453   -9.5418   -7.6198 H   0  0  0  0  0  0  0  0  0  0  0  0
   -6.3572   -8.1751  -10.2385 H   0  0  0  0  0  0  0  0  0  0  0  0
   -7.3600   -9.4388   -9.5039 H   0  0  0  0  0  0  0  0  0  0  0  0
   -8.1178   -6.5877  -10.3877 H   0  0  0  0  0  0  0  0  0  0  0  0
   -8.6489   -8.1012  -11.1047 H   0  0  0  0  0  0  0  0  0  0  0  0
  -10.4145   -7.1394   -9.5843 H   0  0  0  0  0  0  0  0  0  0  0  0
   -9.8429   -8.7062   -9.0424 H   0  0  0  0  0  0  0  0  0  0  0  0
   -9.8948   -7.2424   -7.1894 H   0  0  0  0  0  0  0  0  0  0  0  0
   -9.8201   -5.2678   -8.2474 H   0  0  0  0  0  0  0  0  0  0  0  0
   -8.0978   -8.8041   -7.0231 H   0  0  0  0  0  0  0  0  0  0  0  0
   -6.5446   -6.8577   -8.4136 H   0  0  0  0  0  0  0  0  0  0  0  0
  1  2  1  0
  1 15  1  0
  1 16  1  0
  1 17  1  0
  2 13  1  0
  2  3  1  0
  2 18  1  1
  3  4  1  0
  3 19  1  0
  3 20  1  0
  4 14  1  0
  4  5  1  0
  4 21  1  1
  5  6  1  0
  5 22  1  0
  5 23  1  0
  6  7  1  0
  6 24  1  0
  6 25  1  0
  7  8  1  0
  7 26  1  0
  7 27  1  0
  8 14  1  0
  8  9  1  0
  8 37  1  6
  9 10  1  0
  9 28  1  0
  9 29  1  0
 10 11  1  0
 10 30  1  0
 10 31  1  0
 11 12  1  0
 11 32  1  0
 11 33  1  0
 12 13  1  0
 12 14  1  0
 12 34  1  1
 13 35  1  0
 14 36  1  1
M  CHG  1   8   1
M  END
>  <i_m_ct_stereo_status>  (296) 
1

>  <s_m_source_file>  (296) 
/var/tmp/pbs.5076255.sched01/tmpegbcst3k/90u3quomt0.sdf

>  <i_m_source_file_index>  (296) 
25

>  <i_lp_mmshare_version>  (296) 
48012

>  <i_f3d_flags>  (296) 
0

>  <s_epik_input>  (296) 
W0NIM11bQ0BIXShbQ0gyXTEpW05IXVtDQEhdMltDSDJdW0NIMl1bQ0gyXU4oW0NASF0yW0NASF0xMylbQ0gyXVtDSDJdW0NIMl0z

>  <s_epik_cmdline>  (296) 
J2VwaWtfcHl0aG9uJywgJy1waHQnLCAnMi4wJywgJy1waCcsICc3LjAnLCAnLXRuJywgJzgnLCAnLW1hJywgJzIwMCcsICctaW1hZScsICc8aW5maWxlLm1hZT4nLCAnLW9tYWUnLCAnPG91dGZpbGUubWFlPic=

>  <r_epik_Ionization_Penalty>  (296) 
0.220535

>  <r_epik_Ionization_Penalty_Charging>  (296) 
0.0010235

>  <r_epik_Ionization_Penalty_Neutral>  (296) 
0.219511

>  <r_epik_State_Penalty>  (296) 
1.2113

>  <r_epik_Charging_Adjusted_Penalty>  (296) 
1.21232

>  <i_epik_Tot_Q>  (296) 
1

>  <i_epik_Tot_abs_Q>  (296) 
1

>  <s_lp_Force_Field>  (296) 
OPLS3e

>  <r_lp_Energy>  (296) 
28.6436

>  <b_lp_Chiralities_Consistent>  (296) 
1

>  <s_lp_Variant>  (296) 
74:0-2

>  <s_i_glide_gridfile>  (296) 
pfpi4k_grid

>  <i_i_glide_lignum>  (296) 
25

>  <i_i_glide_rotatable_bonds>  (296) 
0

>  <r_i_docking_score>  (296) 
-5.10699

>  <r_i_glide_ligand_efficiency>  (296) 
-0.364785

>  <r_i_glide_ligand_efficiency_sa>  (296) 
-0.879185

>  <r_i_glide_ligand_efficiency_ln>  (296) 
-1.40338

>  <r_i_glide_gscore>  (296) 
-5.10699

>  <r_i_glide_lipo>  (296) 
-2.09368

>  <r_i_glide_hbond>  (296) 
0

>  <r_i_glide_metal>  (296) 
-0

>  <r_i_glide_rewards>  (296) 
-2.61872

>  <r_i_glide_evdw>  (296) 
-7.19944

>  <r_i_glide_ecoul>  (296) 
-0.230848

>  <r_i_glide_erotb>  (296) 
0

>  <r_i_glide_esite>  (296) 
0

>  <r_i_glide_emodel>  (296) 
-9.33579

>  <r_i_glide_energy>  (296) 
-7.43029

>  <r_i_glide_einternal>  (296) 
0

>  <r_i_glide_intrahb_reward>  (296) 
-0

>  <i_i_glide_confnum>  (296) 
1

>  <i_i_glide_posenum>  (296) 
37

>  <r_i_glide_eff_state_penalty>  (296) 
0

>  <ligand_id>  (296) 
74

>  <original_smiles>  (296) 
CC1CC2CCCN3CCCC(N1)C23

>  <smiles>  (296) 
[H]N1C([H])(C([H])([H])[H])C([H])([H])C2([H])C([H])([H])C([H])([H])C([H])([H])[N+]3([H])C([H])([H])C([H])([H])C([H])([H])C1([H])C23[H]

$$$$
74:1:2
     RDKit          3D

 37 39  0  0  1  0  0  0  0  0999 V2000
   -8.7572   -3.9264   -7.9225 C   0  0  0  0  0  0  0  0  0  0  0  0
   -8.6626   -5.2475   -7.1883 C   0  0  2  0  0  0  0  0  0  0  0  0
   -7.5208   -5.1771   -6.1860 C   0  0  0  0  0  0  0  0  0  0  0  0
   -7.4115   -6.4909   -5.4302 C   0  0  2  0  0  0  0  0  0  0  0  0
   -6.3127   -6.4602   -4.3761 C   0  0  0  0  0  0  0  0  0  0  0  0
   -4.9573   -6.5444   -5.0350 C   0  0  0  0  0  0  0  0  0  0  0  0
   -4.8712   -7.7621   -5.9438 C   0  0  0  0  0  0  0  0  0  0  0  0
   -5.9235   -7.7217   -6.9822 N   0  0  1  0  0  0  0  0  0  0  0  0
   -5.7512   -8.7954   -7.9783 C   0  0  0  0  0  0  0  0  0  0  0  0
   -6.7996   -8.6979   -9.0973 C   0  0  0  0  0  0  0  0  0  0  0  0
   -8.2101   -8.7329   -8.5370 C   0  0  0  0  0  0  0  0  0  0  0  0
   -8.3727   -7.6193   -7.5159 C   0  0  2  0  0  0  0  0  0  0  0  0
   -8.4217   -6.3099   -8.1624 N   0  0  0  0  0  0  0  0  0  0  0  0
   -7.2809   -7.6760   -6.4089 C   0  0  2  0  0  0  0  0  0  0  0  0
   -8.9669   -3.1026   -7.2370 H   0  0  0  0  0  0  0  0  0  0  0  0
   -9.5653   -4.0043   -8.6398 H   0  0  0  0  0  0  0  0  0  0  0  0
   -7.8339   -3.7037   -8.4632 H   0  0  0  0  0  0  0  0  0  0  0  0
   -9.6041   -5.4294   -6.6642 H   0  0  0  0  0  0  0  0  0  0  0  0
   -6.5929   -4.9468   -6.7152 H   0  0  0  0  0  0  0  0  0  0  0  0
   -7.6965   -4.3727   -5.4699 H   0  0  0  0  0  0  0  0  0  0  0  0
   -8.3493   -6.5957   -4.8950 H   0  0  0  0  0  0  0  0  0  0  0  0
   -6.4158   -5.5958   -3.7049 H   0  0  0  0  0  0  0  0  0  0  0  0
   -6.3959   -7.3458   -3.7574 H   0  0  0  0  0  0  0  0  0  0  0  0
   -4.7323   -5.6048   -5.5377 H   0  0  0  0  0  0  0  0  0  0  0  0
   -4.1960   -6.6942   -4.2827 H   0  0  0  0  0  0  0  0  0  0  0  0
   -3.8892   -7.7193   -6.3737 H   0  0  0  0  0  0  0  0  0  0  0  0
   -4.9127   -8.6896   -5.3668 H   0  0  0  0  0  0  0  0  0  0  0  0
   -4.7713   -8.6616   -8.4247 H   0  0  0  0  0  0  0  0  0  0  0  0
   -5.7803   -9.7743   -7.5023 H   0  0  0  0  0  0  0  0  0  0  0  0
   -6.6578   -7.7871   -9.6875 H   0  0  0  0  0  0  0  0  0  0  0  0
   -6.6879   -9.5579   -9.7559 H   0  0  0  0  0  0  0  0  0  0  0  0
   -8.9505   -8.6739   -9.3429 H   0  0  0  0  0  0  0  0  0  0  0  0
   -8.3581   -9.7004   -8.0496 H   0  0  0  0  0  0  0  0  0  0  0  0
   -9.3743   -7.7897   -7.1240 H   0  0  0  0  0  0  0  0  0  0  0  0
   -9.1777   -6.3290   -8.8275 H   0  0  0  0  0  0  0  0  0  0  0  0
   -7.4093   -8.6027   -5.8458 H   0  0  0  0  0  0  0  0  0  0  0  0
   -5.8378   -6.8462   -7.4816 H   0  0  0  0  0  0  0  0  0  0  0  0
  1  2  1  0
  1 15  1  0
  1 16  1  0
  1 17  1  0
  2 13  1  0
  2  3  1  0
  2 18  1  1
  3  4  1  0
  3 19  1  0
  3 20  1  0
  4 14  1  0
  4  5  1  0
  4 21  1  1
  5  6  1  0
  5 22  1  0
  5 23  1  0
  6  7  1  0
  6 24  1  0
  6 25  1  0
  7  8  1  0
  7 26  1  0
  7 27  1  0
  8 14  1  0
  8  9  1  0
  8 37  1  6
  9 10  1  0
  9 28  1  0
  9 29  1  0
 10 11  1  0
 10 30  1  0
 10 31  1  0
 11 12  1  0
 11 32  1  0
 11 33  1  0
 12 13  1  0
 12 14  1  0
 12 34  1  1
 13 35  1  0
 14 36  1  1
M  CHG  1   8   1
M  END
>  <i_m_ct_stereo_status>  (297) 
1

>  <s_m_source_file>  (297) 
/var/tmp/pbs.5076255.sched01/tmpegbcst3k/90u3quomt0.sdf

>  <i_m_source_file_index>  (297) 
25

>  <i_lp_mmshare_version>  (297) 
48012

>  <i_f3d_flags>  (297) 
0

>  <s_epik_input>  (297) 
W0NIM11bQ0BIXShbQ0gyXTEpW05IXVtDQEhdMltDSDJdW0NIMl1bQ0gyXU4oW0NASF0yW0NASF0xMylbQ0gyXVtDSDJdW0NIMl0z

>  <s_epik_cmdline>  (297) 
J2VwaWtfcHl0aG9uJywgJy1waHQnLCAnMi4wJywgJy1waCcsICc3LjAnLCAnLXRuJywgJzgnLCAnLW1hJywgJzIwMCcsICctaW1hZScsICc8aW5maWxlLm1hZT4nLCAnLW9tYWUnLCAnPG91dGZpbGUubWFlPic=

>  <r_epik_Ionization_Penalty>  (297) 
0.220535

>  <r_epik_Ionization_Penalty_Charging>  (297) 
0.0010235

>  <r_epik_Ionization_Penalty_Neutral>  (297) 
0.219511

>  <r_epik_State_Penalty>  (297) 
1.2113

>  <r_epik_Charging_Adjusted_Penalty>  (297) 
1.21232

>  <i_epik_Tot_Q>  (297) 
1

>  <i_epik_Tot_abs_Q>  (297) 
1

>  <s_lp_Force_Field>  (297) 
OPLS3e

>  <r_lp_Energy>  (297) 
28.6436

>  <b_lp_Chiralities_Consistent>  (297) 
1

>  <s_lp_Variant>  (297) 
74:0-2

>  <s_i_glide_gridfile>  (297) 
pfpi4k_grid

>  <i_i_glide_lignum>  (297) 
25

>  <i_i_glide_rotatable_bonds>  (297) 
0

>  <r_i_docking_score>  (297) 
-4.62839

>  <r_i_glide_ligand_efficiency>  (297) 
-0.330599

>  <r_i_glide_ligand_efficiency_sa>  (297) 
-0.796791

>  <r_i_glide_ligand_efficiency_ln>  (297) 
-1.27186

>  <r_i_glide_gscore>  (297) 
-4.62839

>  <r_i_glide_lipo>  (297) 
-2.0826

>  <r_i_glide_hbond>  (297) 
0

>  <r_i_glide_metal>  (297) 
-0

>  <r_i_glide_rewards>  (297) 
-2.07733

>  <r_i_glide_evdw>  (297) 
-10.535

>  <r_i_glide_ecoul>  (297) 
0.388596

>  <r_i_glide_erotb>  (297) 
0

>  <r_i_glide_esite>  (297) 
0

>  <r_i_glide_emodel>  (297) 
-12.0934

>  <r_i_glide_energy>  (297) 
-10.1464

>  <r_i_glide_einternal>  (297) 
0

>  <r_i_glide_intrahb_reward>  (297) 
-0

>  <i_i_glide_confnum>  (297) 
2

>  <i_i_glide_posenum>  (297) 
5

>  <r_i_glide_eff_state_penalty>  (297) 
0

>  <ligand_id>  (297) 
74

>  <original_smiles>  (297) 
CC1CC2CCCN3CCCC(N1)C23

>  <smiles>  (297) 
[H]N1C([H])(C([H])([H])[H])C([H])([H])C2([H])C([H])([H])C([H])([H])C([H])([H])[N+]3([H])C([H])([H])C([H])([H])C([H])([H])C1([H])C23[H]

$$$$
74:2:0
     RDKit          3D

 38 40  0  0  1  0  0  0  0  0999 V2000
   -5.3038   -4.2825   -5.0395 C   0  0  0  0  0  0  0  0  0  0  0  0
   -6.3607   -5.3431   -5.1644 C   0  0  2  0  0  0  0  0  0  0  0  0
   -5.7451   -6.7155   -5.4953 C   0  0  0  0  0  0  0  0  0  0  0  0
   -6.8469   -7.7563   -5.7024 C   0  0  2  0  0  0  0  0  0  0  0  0
   -6.3252   -9.1776   -5.9943 C   0  0  0  0  0  0  0  0  0  0  0  0
   -5.7597   -9.2643   -7.4199 C   0  0  0  0  0  0  0  0  0  0  0  0
   -6.7932   -8.7972   -8.4526 C   0  0  0  0  0  0  0  0  0  0  0  0
   -7.2681   -7.4210   -8.1576 N   0  0  1  0  0  0  0  0  0  0  0  0
   -8.1897   -6.9314   -9.2088 C   0  0  0  0  0  0  0  0  0  0  0  0
   -8.6256   -5.4853   -8.9406 C   0  0  0  0  0  0  0  0  0  0  0  0
   -9.3061   -5.3428   -7.5672 C   0  0  0  0  0  0  0  0  0  0  0  0
   -8.3737   -5.8533   -6.4657 C   0  0  2  0  0  0  0  0  0  0  0  0
   -7.2996   -4.8957   -6.2053 N   0  0  0  0  0  0  0  0  0  0  0  0
   -7.8390   -7.2887   -6.7846 C   0  0  2  0  0  0  0  0  0  0  0  0
   -4.5731   -4.6133   -4.3250 H   0  0  0  0  0  0  0  0  0  0  0  0
   -5.7337   -3.3425   -4.6934 H   0  0  0  0  0  0  0  0  0  0  0  0
   -4.7431   -4.0983   -5.9585 H   0  0  0  0  0  0  0  0  0  0  0  0
   -6.8723   -5.4146   -4.2055 H   0  0  0  0  0  0  0  0  0  0  0  0
   -5.1281   -6.6718   -6.3868 H   0  0  0  0  0  0  0  0  0  0  0  0
   -5.0822   -7.0357   -4.6865 H   0  0  0  0  0  0  0  0  0  0  0  0
   -7.3817   -7.8121   -4.7516 H   0  0  0  0  0  0  0  0  0  0  0  0
   -5.5672   -9.4722   -5.2597 H   0  0  0  0  0  0  0  0  0  0  0  0
   -7.1442   -9.8955   -5.8965 H   0  0  0  0  0  0  0  0  0  0  0  0
   -4.8504   -8.6630   -7.4839 H   0  0  0  0  0  0  0  0  0  0  0  0
   -5.4776  -10.2942   -7.6437 H   0  0  0  0  0  0  0  0  0  0  0  0
   -6.3134   -8.7641   -9.4291 H   0  0  0  0  0  0  0  0  0  0  0  0
   -7.6245   -9.5016   -8.5092 H   0  0  0  0  0  0  0  0  0  0  0  0
   -7.6743   -6.9618  -10.1682 H   0  0  0  0  0  0  0  0  0  0  0  0
   -9.0739   -7.5698   -9.2928 H   0  0  0  0  0  0  0  0  0  0  0  0
   -7.7814   -4.7950   -9.0044 H   0  0  0  0  0  0  0  0  0  0  0  0
   -9.3253   -5.1943   -9.7238 H   0  0  0  0  0  0  0  0  0  0  0  0
   -9.6234   -4.3068   -7.3840 H   0  0  0  0  0  0  0  0  0  0  0  0
  -10.2240   -5.9413   -7.5621 H   0  0  0  0  0  0  0  0  0  0  0  0
   -8.9547   -5.8763   -5.5476 H   0  0  0  0  0  0  0  0  0  0  0  0
   -7.7233   -4.0373   -5.8829 H   0  0  0  0  0  0  0  0  0  0  0  0
   -8.6815   -7.9696   -6.7508 H   0  0  0  0  0  0  0  0  0  0  0  0
   -6.4491   -6.8356   -8.1855 H   0  0  0  0  0  0  0  0  0  0  0  0
   -6.7909   -4.7124   -7.0568 H   0  0  0  0  0  0  0  0  0  0  0  0
  1  2  1  0
  1 15  1  0
  1 16  1  0
  1 17  1  0
  2 13  1  0
  2  3  1  0
  2 18  1  1
  3  4  1  0
  3 19  1  0
  3 20  1  0
  4 14  1  0
  4  5  1  0
  4 21  1  1
  5  6  1  0
  5 22  1  0
  5 23  1  0
  6  7  1  0
  6 24  1  0
  6 25  1  0
  7  8  1  0
  7 26  1  0
  7 27  1  0
  8 14  1  0
  8  9  1  0
  8 37  1  1
  9 10  1  0
  9 28  1  0
  9 29  1  0
 10 11  1  0
 10 30  1  0
 10 31  1  0
 11 12  1  0
 11 32  1  0
 11 33  1  0
 12 13  1  0
 12 14  1  0
 12 34  1  1
 13 35  1  0
 13 38  1  0
 14 36  1  6
M  CHG  2   8   1  13   1
M  END
>  <i_m_ct_stereo_status>  (298) 
1

>  <s_m_source_file>  (298) 
/var/tmp/pbs.5076255.sched01/tmpegbcst3k/90u3quomt0.sdf

>  <i_m_source_file_index>  (298) 
26

>  <i_lp_mmshare_version>  (298) 
48012

>  <i_f3d_flags>  (298) 
0

>  <s_epik_input>  (298) 
W0NIM11bQ0BIXShbQ0gyXTEpW05IXVtDQEhdMltDSDJdW0NIMl1bQ0gyXU4oW0NASF0yW0NASF0xMylbQ0gyXVtDSDJdW0NIMl0z

>  <s_epik_cmdline>  (298) 
J2VwaWtfcHl0aG9uJywgJy1waHQnLCAnMi4wJywgJy1waCcsICc3LjAnLCAnLXRuJywgJzgnLCAnLW1hJywgJzIwMCcsICctaW1hZScsICc8aW5maWxlLm1hZT4nLCAnLW9tYWUnLCAnPG91dGZpbGUubWFlPic=

>  <r_epik_Ionization_Penalty>  (298) 
2.2373

>  <r_epik_Ionization_Penalty_Charging>  (298) 
2.2373

>  <r_epik_Ionization_Penalty_Neutral>  (298) 
0

>  <r_epik_State_Penalty>  (298) 
1.71832

>  <r_epik_Charging_Adjusted_Penalty>  (298) 
3.95562

>  <i_epik_Tot_Q>  (298) 
2

>  <i_epik_Tot_abs_Q>  (298) 
2

>  <s_lp_Force_Field>  (298) 
OPLS3e

>  <r_lp_Energy>  (298) 
36.1299

>  <b_lp_Chiralities_Consistent>  (298) 
1

>  <s_lp_Variant>  (298) 
74:0-3

>  <s_i_glide_gridfile>  (298) 
pfpi4k_grid

>  <i_i_glide_lignum>  (298) 
26

>  <i_i_glide_rotatable_bonds>  (298) 
0

>  <r_i_docking_score>  (298) 
-5.74091

>  <r_i_glide_ligand_efficiency>  (298) 
-0.410065

>  <r_i_glide_ligand_efficiency_sa>  (298) 
-0.988315

>  <r_i_glide_ligand_efficiency_ln>  (298) 
-1.57758

>  <r_i_glide_gscore>  (298) 
-5.74091

>  <r_i_glide_lipo>  (298) 
-2.34762

>  <r_i_glide_hbond>  (298) 
0

>  <r_i_glide_metal>  (298) 
-0

>  <r_i_glide_rewards>  (298) 
-2.69173

>  <r_i_glide_evdw>  (298) 
-14.6464

>  <r_i_glide_ecoul>  (298) 
0.205065

>  <r_i_glide_erotb>  (298) 
0

>  <r_i_glide_esite>  (298) 
0

>  <r_i_glide_emodel>  (298) 
-19.5508

>  <r_i_glide_energy>  (298) 
-14.4413

>  <r_i_glide_einternal>  (298) 
0

>  <r_i_glide_intrahb_reward>  (298) 
-0

>  <i_i_glide_confnum>  (298) 
1

>  <i_i_glide_posenum>  (298) 
14

>  <r_i_glide_eff_state_penalty>  (298) 
0

>  <ligand_id>  (298) 
74

>  <original_smiles>  (298) 
CC1CC2CCCN3CCCC(N1)C23

>  <smiles>  (298) 
[H]C([H])([H])C1([H])C([H])([H])C2([H])C([H])([H])C([H])([H])C([H])([H])[N+]3([H])C([H])([H])C([H])([H])C([H])([H])C([H])(C23[H])[N+]1([H])[H]

$$$$
74:2:1
     RDKit          3D

 38 40  0  0  1  0  0  0  0  0999 V2000
   -7.9770   -7.6074  -10.1021 C   0  0  0  0  0  0  0  0  0  0  0  0
   -8.1130   -8.0337   -8.6341 C   0  0  2  0  0  0  0  0  0  0  0  0
   -6.9938   -7.4404   -7.7654 C   0  0  0  0  0  0  0  0  0  0  0  0
   -7.0949   -7.8942   -6.3034 C   0  0  2  0  0  0  0  0  0  0  0  0
   -6.0382   -7.2518   -5.3813 C   0  0  0  0  0  0  0  0  0  0  0  0
   -4.6467   -7.8211   -5.6667 C   0  0  0  0  0  0  0  0  0  0  0  0
   -4.6468   -9.3550   -5.6067 C   0  0  0  0  0  0  0  0  0  0  0  0
   -5.6734   -9.9456   -6.5106 N   0  0  1  0  0  0  0  0  0  0  0  0
   -5.5944  -11.4292   -6.5345 C   0  0  0  0  0  0  0  0  0  0  0  0
   -6.6019  -12.0340   -7.5257 C   0  0  0  0  0  0  0  0  0  0  0  0
   -8.0351  -11.5898   -7.1963 C   0  0  0  0  0  0  0  0  0  0  0  0
   -8.1313  -10.0579   -7.1614 C   0  0  2  0  0  0  0  0  0  0  0  0
   -8.0833   -9.5110   -8.5424 N   0  0  0  0  0  0  0  0  0  0  0  0
   -7.0512   -9.4364   -6.2287 C   0  0  2  0  0  0  0  0  0  0  0  0
   -8.0288   -6.5236  -10.2086 H   0  0  0  0  0  0  0  0  0  0  0  0
   -8.7708   -8.0368  -10.7140 H   0  0  0  0  0  0  0  0  0  0  0  0
   -7.0235   -7.9287  -10.5209 H   0  0  0  0  0  0  0  0  0  0  0  0
   -9.0784   -7.6847   -8.2583 H   0  0  0  0  0  0  0  0  0  0  0  0
   -6.0230   -7.7154   -8.1814 H   0  0  0  0  0  0  0  0  0  0  0  0
   -7.0641   -6.3521   -7.7976 H   0  0  0  0  0  0  0  0  0  0  0  0
   -8.0608   -7.5411   -5.9395 H   0  0  0  0  0  0  0  0  0  0  0  0
   -6.0449   -6.1634   -5.4843 H   0  0  0  0  0  0  0  0  0  0  0  0
   -6.2959   -7.4525   -4.3377 H   0  0  0  0  0  0  0  0  0  0  0  0
   -4.3168   -7.4758   -6.6459 H   0  0  0  0  0  0  0  0  0  0  0  0
   -3.9294   -7.4300   -4.9459 H   0  0  0  0  0  0  0  0  0  0  0  0
   -3.6634   -9.7145   -5.9063 H   0  0  0  0  0  0  0  0  0  0  0  0
   -4.8112   -9.6898   -4.5809 H   0  0  0  0  0  0  0  0  0  0  0  0
   -4.5866  -11.7321   -6.8188 H   0  0  0  0  0  0  0  0  0  0  0  0
   -5.7697  -11.8313   -5.5341 H   0  0  0  0  0  0  0  0  0  0  0  0
   -6.3452  -11.7455   -8.5475 H   0  0  0  0  0  0  0  0  0  0  0  0
   -6.5396  -13.1220   -7.4890 H   0  0  0  0  0  0  0  0  0  0  0  0
   -8.7428  -12.0112   -7.9152 H   0  0  0  0  0  0  0  0  0  0  0  0
   -8.3233  -11.9905   -6.2223 H   0  0  0  0  0  0  0  0  0  0  0  0
   -9.1124   -9.7954   -6.7608 H   0  0  0  0  0  0  0  0  0  0  0  0
   -8.8807   -9.8660   -9.0532 H   0  0  0  0  0  0  0  0  0  0  0  0
   -7.3025   -9.7333   -5.2088 H   0  0  0  0  0  0  0  0  0  0  0  0
   -5.4333   -9.6266   -7.4388 H   0  0  0  0  0  0  0  0  0  0  0  0
   -7.2429   -9.8334   -9.0001 H   0  0  0  0  0  0  0  0  0  0  0  0
  1  2  1  0
  1 15  1  0
  1 16  1  0
  1 17  1  0
  2 13  1  0
  2  3  1  0
  2 18  1  1
  3  4  1  0
  3 19  1  0
  3 20  1  0
  4 14  1  0
  4  5  1  0
  4 21  1  1
  5  6  1  0
  5 22  1  0
  5 23  1  0
  6  7  1  0
  6 24  1  0
  6 25  1  0
  7  8  1  0
  7 26  1  0
  7 27  1  0
  8 14  1  0
  8  9  1  0
  8 37  1  6
  9 10  1  0
  9 28  1  0
  9 29  1  0
 10 11  1  0
 10 30  1  0
 10 31  1  0
 11 12  1  0
 11 32  1  0
 11 33  1  0
 12 13  1  0
 12 14  1  0
 12 34  1  1
 13 35  1  0
 13 38  1  0
 14 36  1  1
M  CHG  2   8   1  13   1
M  END
>  <i_m_ct_stereo_status>  (299) 
1

>  <s_m_source_file>  (299) 
/var/tmp/pbs.5076255.sched01/tmpegbcst3k/90u3quomt0.sdf

>  <i_m_source_file_index>  (299) 
26

>  <i_lp_mmshare_version>  (299) 
48012

>  <i_f3d_flags>  (299) 
0

>  <s_epik_input>  (299) 
W0NIM11bQ0BIXShbQ0gyXTEpW05IXVtDQEhdMltDSDJdW0NIMl1bQ0gyXU4oW0NASF0yW0NASF0xMylbQ0gyXVtDSDJdW0NIMl0z

>  <s_epik_cmdline>  (299) 
J2VwaWtfcHl0aG9uJywgJy1waHQnLCAnMi4wJywgJy1waCcsICc3LjAnLCAnLXRuJywgJzgnLCAnLW1hJywgJzIwMCcsICctaW1hZScsICc8aW5maWxlLm1hZT4nLCAnLW9tYWUnLCAnPG91dGZpbGUubWFlPic=

>  <r_epik_Ionization_Penalty>  (299) 
2.2373

>  <r_epik_Ionization_Penalty_Charging>  (299) 
2.2373

>  <r_epik_Ionization_Penalty_Neutral>  (299) 
0

>  <r_epik_State_Penalty>  (299) 
1.71832

>  <r_epik_Charging_Adjusted_Penalty>  (299) 
3.95562

>  <i_epik_Tot_Q>  (299) 
2

>  <i_epik_Tot_abs_Q>  (299) 
2

>  <s_lp_Force_Field>  (299) 
OPLS3e

>  <r_lp_Energy>  (299) 
36.1299

>  <b_lp_Chiralities_Consistent>  (299) 
1

>  <s_lp_Variant>  (299) 
74:0-3

>  <s_i_glide_gridfile>  (299) 
pfpi4k_grid

>  <i_i_glide_lignum>  (299) 
26

>  <i_i_glide_rotatable_bonds>  (299) 
0

>  <r_i_docking_score>  (299) 
-5.66678

>  <r_i_glide_ligand_efficiency>  (299) 
-0.40477

>  <r_i_glide_ligand_efficiency_sa>  (299) 
-0.975554

>  <r_i_glide_ligand_efficiency_ln>  (299) 
-1.55721

>  <r_i_glide_gscore>  (299) 
-5.66678

>  <r_i_glide_lipo>  (299) 
-2.02575

>  <r_i_glide_hbond>  (299) 
0

>  <r_i_glide_metal>  (299) 
-0

>  <r_i_glide_rewards>  (299) 
-2.43683

>  <r_i_glide_evdw>  (299) 
-18.7013

>  <r_i_glide_ecoul>  (299) 
-1.79426

>  <r_i_glide_erotb>  (299) 
0

>  <r_i_glide_esite>  (299) 
0

>  <r_i_glide_emodel>  (299) 
-25.539

>  <r_i_glide_energy>  (299) 
-20.4956

>  <r_i_glide_einternal>  (299) 
0

>  <r_i_glide_intrahb_reward>  (299) 
-0

>  <i_i_glide_confnum>  (299) 
1

>  <i_i_glide_posenum>  (299) 
2

>  <r_i_glide_eff_state_penalty>  (299) 
0

>  <ligand_id>  (299) 
74

>  <original_smiles>  (299) 
CC1CC2CCCN3CCCC(N1)C23

>  <smiles>  (299) 
[H]C([H])([H])C1([H])C([H])([H])C2([H])C([H])([H])C([H])([H])C([H])([H])[N+]3([H])C([H])([H])C([H])([H])C([H])([H])C([H])(C23[H])[N+]1([H])[H]

$$$$
74:2:2
     RDKit          3D

 38 40  0  0  1  0  0  0  0  0999 V2000
   -9.0258   -3.5767   -7.6029 C   0  0  0  0  0  0  0  0  0  0  0  0
   -8.9538   -4.9409   -7.0343 C   0  0  2  0  0  0  0  0  0  0  0  0
   -7.7432   -4.9619   -6.1101 C   0  0  0  0  0  0  0  0  0  0  0  0
   -7.6057   -6.3492   -5.5184 C   0  0  2  0  0  0  0  0  0  0  0  0
   -6.4811   -6.4540   -4.4874 C   0  0  0  0  0  0  0  0  0  0  0  0
   -5.1331   -6.4940   -5.1633 C   0  0  0  0  0  0  0  0  0  0  0  0
   -5.1292   -7.6070   -6.2197 C   0  0  0  0  0  0  0  0  0  0  0  0
   -6.2014   -7.4714   -7.2007 N   0  0  1  0  0  0  0  0  0  0  0  0
   -6.0887   -8.3788   -8.3182 C   0  0  0  0  0  0  0  0  0  0  0  0
   -7.1562   -8.1313   -9.4095 C   0  0  0  0  0  0  0  0  0  0  0  0
   -8.5494   -8.2590   -8.8069 C   0  0  0  0  0  0  0  0  0  0  0  0
   -8.6618   -7.2846   -7.6491 C   0  0  2  0  0  0  0  0  0  0  0  0
   -8.8442   -5.9138   -8.1078 N   0  0  0  0  0  0  0  0  0  0  0  0
   -7.5282   -7.4447   -6.5963 C   0  0  2  0  0  0  0  0  0  0  0  0
   -9.1585   -2.8014   -6.8367 H   0  0  0  0  0  0  0  0  0  0  0  0
   -9.9054   -3.5635   -8.2185 H   0  0  0  0  0  0  0  0  0  0  0  0
   -8.1557   -3.3768   -8.2431 H   0  0  0  0  0  0  0  0  0  0  0  0
   -9.8636   -5.0883   -6.4545 H   0  0  0  0  0  0  0  0  0  0  0  0
   -6.8372   -4.6811   -6.6511 H   0  0  0  0  0  0  0  0  0  0  0  0
   -7.8919   -4.2321   -5.3005 H   0  0  0  0  0  0  0  0  0  0  0  0
   -8.5215   -6.4721   -4.9475 H   0  0  0  0  0  0  0  0  0  0  0  0
   -6.5546   -5.6809   -3.7130 H   0  0  0  0  0  0  0  0  0  0  0  0
   -6.5697   -7.4247   -4.0084 H   0  0  0  0  0  0  0  0  0  0  0  0
   -4.9275   -5.4811   -5.5254 H   0  0  0  0  0  0  0  0  0  0  0  0
   -4.3659   -6.7192   -4.4224 H   0  0  0  0  0  0  0  0  0  0  0  0
   -4.2177   -7.4909   -6.7624 H   0  0  0  0  0  0  0  0  0  0  0  0
   -5.0924   -8.5986   -5.7611 H   0  0  0  0  0  0  0  0  0  0  0  0
   -5.1268   -8.1989   -8.7797 H   0  0  0  0  0  0  0  0  0  0  0  0
   -6.0965   -9.4325   -8.0198 H   0  0  0  0  0  0  0  0  0  0  0  0
   -7.0466   -7.1487   -9.8908 H   0  0  0  0  0  0  0  0  0  0  0  0
   -7.0666   -8.8689  -10.2090 H   0  0  0  0  0  0  0  0  0  0  0  0
   -9.3410   -8.1163   -9.5527 H   0  0  0  0  0  0  0  0  0  0  0  0
   -8.6878   -9.2818   -8.4351 H   0  0  0  0  0  0  0  0  0  0  0  0
   -9.5674   -7.6087   -7.1462 H   0  0  0  0  0  0  0  0  0  0  0  0
   -9.7040   -5.8958   -8.6354 H   0  0  0  0  0  0  0  0  0  0  0  0
   -7.6816   -8.4189   -6.1253 H   0  0  0  0  0  0  0  0  0  0  0  0
   -6.0877   -6.5470   -7.5870 H   0  0  0  0  0  0  0  0  0  0  0  0
   -8.0731   -5.6643   -8.6988 H   0  0  0  0  0  0  0  0  0  0  0  0
  1  2  1  0
  1 15  1  0
  1 16  1  0
  1 17  1  0
  2 13  1  0
  2  3  1  0
  2 18  1  1
  3  4  1  0
  3 19  1  0
  3 20  1  0
  4 14  1  0
  4  5  1  0
  4 21  1  1
  5  6  1  0
  5 22  1  0
  5 23  1  0
  6  7  1  0
  6 24  1  0
  6 25  1  0
  7  8  1  0
  7 26  1  0
  7 27  1  0
  8 14  1  0
  8  9  1  0
  8 37  1  6
  9 10  1  0
  9 28  1  0
  9 29  1  0
 10 11  1  0
 10 30  1  0
 10 31  1  0
 11 12  1  0
 11 32  1  0
 11 33  1  0
 12 13  1  0
 12 14  1  0
 12 34  1  1
 13 35  1  0
 13 38  1  0
 14 36  1  1
M  CHG  2   8   1  13   1
M  END
>  <i_m_ct_stereo_status>  (300) 
1

>  <s_m_source_file>  (300) 
/var/tmp/pbs.5076255.sched01/tmpegbcst3k/90u3quomt0.sdf

>  <i_m_source_file_index>  (300) 
26

>  <i_lp_mmshare_version>  (300) 
48012

>  <i_f3d_flags>  (300) 
0

>  <s_epik_input>  (300) 
W0NIM11bQ0BIXShbQ0gyXTEpW05IXVtDQEhdMltDSDJdW0NIMl1bQ0gyXU4oW0NASF0yW0NASF0xMylbQ0gyXVtDSDJdW0NIMl0z

>  <s_epik_cmdline>  (300) 
J2VwaWtfcHl0aG9uJywgJy1waHQnLCAnMi4wJywgJy1waCcsICc3LjAnLCAnLXRuJywgJzgnLCAnLW1hJywgJzIwMCcsICctaW1hZScsICc8aW5maWxlLm1hZT4nLCAnLW9tYWUnLCAnPG91dGZpbGUubWFlPic=

>  <r_epik_Ionization_Penalty>  (300) 
2.2373

>  <r_epik_Ionization_Penalty_Charging>  (300) 
2.2373

>  <r_epik_Ionization_Penalty_Neutral>  (300) 
0

>  <r_epik_State_Penalty>  (300) 
1.71832

>  <r_epik_Charging_Adjusted_Penalty>  (300) 
3.95562

>  <i_epik_Tot_Q>  (300) 
2

>  <i_epik_Tot_abs_Q>  (300) 
2

>  <s_lp_Force_Field>  (300) 
OPLS3e

>  <r_lp_Energy>  (300) 
36.1299

>  <b_lp_Chiralities_Consistent>  (300) 
1

>  <s_lp_Variant>  (300) 
74:0-3

>  <s_i_glide_gridfile>  (300) 
pfpi4k_grid

>  <i_i_glide_lignum>  (300) 
26

>  <i_i_glide_rotatable_bonds>  (300) 
0

>  <r_i_docking_score>  (300) 
-5.19902

>  <r_i_glide_ligand_efficiency>  (300) 
-0.371358

>  <r_i_glide_ligand_efficiency_sa>  (300) 
-0.895027

>  <r_i_glide_ligand_efficiency_ln>  (300) 
-1.42867

>  <r_i_glide_gscore>  (300) 
-5.19902

>  <r_i_glide_lipo>  (300) 
-2.17109

>  <r_i_glide_hbond>  (300) 
0

>  <r_i_glide_metal>  (300) 
-0

>  <r_i_glide_rewards>  (300) 
-2.67044

>  <r_i_glide_evdw>  (300) 
-8.44209

>  <r_i_glide_ecoul>  (300) 
0.43075

>  <r_i_glide_erotb>  (300) 
0

>  <r_i_glide_esite>  (300) 
0

>  <r_i_glide_emodel>  (300) 
-12.4712

>  <r_i_glide_energy>  (300) 
-8.01134

>  <r_i_glide_einternal>  (300) 
0

>  <r_i_glide_intrahb_reward>  (300) 
-0

>  <i_i_glide_confnum>  (300) 
1

>  <i_i_glide_posenum>  (300) 
15

>  <r_i_glide_eff_state_penalty>  (300) 
0

>  <ligand_id>  (300) 
74

>  <original_smiles>  (300) 
CC1CC2CCCN3CCCC(N1)C23

>  <smiles>  (300) 
[H]C([H])([H])C1([H])C([H])([H])C2([H])C([H])([H])C([H])([H])C([H])([H])[N+]3([H])C([H])([H])C([H])([H])C([H])([H])C([H])(C23[H])[N+]1([H])[H]

$$$$
75:0:0
     RDKit          3D

 33 35  0  0  1  0  0  0  0  0999 V2000
   -8.6424   -9.4049   -9.4361 C   0  0  0  0  0  0  0  0  0  0  0  0
   -7.8104   -8.5393   -8.5672 N   0  0  2  0  0  0  0  0  0  0  0  0
   -8.1659   -8.3969   -7.1283 C   0  0  0  0  0  0  0  0  0  0  0  0
   -8.9852   -7.1876   -7.5620 C   0  0  1  0  0  0  0  0  0  0  0  0
   -9.1384   -5.7251   -7.1967 C   0  0  1  0  0  0  0  0  0  0  0  0
   -8.0033   -5.2536   -6.4871 O   0  0  0  0  0  0  0  0  0  0  0  0
   -8.1251   -5.3188   -5.0743 C   0  0  0  0  0  0  0  0  0  0  0  0
   -6.7568   -5.2083   -4.4435 C   0  0  0  0  0  0  0  0  0  0  0  0
   -5.6553   -4.4259   -5.1246 C   0  0  0  0  0  0  0  0  0  0  0  0
   -5.5744   -5.9285   -5.0661 C   0  0  0  0  0  0  0  0  0  0  0  0
   -9.1241   -5.0983   -8.6367 C   0  0  0  0  0  0  0  0  0  0  0  0
   -8.6403   -6.2105   -9.6370 C   0  0  0  0  0  0  0  0  0  0  0  0
   -7.9438   -7.0925   -8.6377 C   0  0  2  0  0  0  0  0  0  0  0  0
   -9.7160   -9.2097   -9.3836 H   0  0  0  0  0  0  0  0  0  0  0  0
   -8.4736  -10.4436   -9.1472 H   0  0  0  0  0  0  0  0  0  0  0  0
   -8.3211   -9.3027  -10.4761 H   0  0  0  0  0  0  0  0  0  0  0  0
   -8.7666   -9.2214   -6.7377 H   0  0  0  0  0  0  0  0  0  0  0  0
   -7.3158   -8.1597   -6.4785 H   0  0  0  0  0  0  0  0  0  0  0  0
   -9.9461   -7.5652   -7.9362 H   0  0  0  0  0  0  0  0  0  0  0  0
  -10.0724   -5.4838   -6.6879 H   0  0  0  0  0  0  0  0  0  0  0  0
   -8.7580   -4.5032   -4.7242 H   0  0  0  0  0  0  0  0  0  0  0  0
   -8.5720   -6.2555   -4.7487 H   0  0  0  0  0  0  0  0  0  0  0  0
   -6.7739   -5.1755   -3.3552 H   0  0  0  0  0  0  0  0  0  0  0  0
   -5.9016   -3.9469   -6.0732 H   0  0  0  0  0  0  0  0  0  0  0  0
   -5.0002   -3.8578   -4.4776 H   0  0  0  0  0  0  0  0  0  0  0  0
   -4.8422   -6.3677   -4.3927 H   0  0  0  0  0  0  0  0  0  0  0  0
   -5.7582   -6.4889   -5.9771 H   0  0  0  0  0  0  0  0  0  0  0  0
  -10.1252   -4.7446   -8.8894 H   0  0  0  0  0  0  0  0  0  0  0  0
   -8.4509   -4.2364   -8.6500 H   0  0  0  0  0  0  0  0  0  0  0  0
   -9.5003   -6.6946  -10.1040 H   0  0  0  0  0  0  0  0  0  0  0  0
   -7.9941   -5.8264  -10.4241 H   0  0  0  0  0  0  0  0  0  0  0  0
   -7.0069   -6.6460   -8.2817 H   0  0  0  0  0  0  0  0  0  0  0  0
   -6.8357   -8.7878   -8.6603 H   0  0  0  0  0  0  0  0  0  0  0  0
  1  2  1  0
  1 14  1  0
  1 15  1  0
  1 16  1  0
  2 13  1  0
  2  3  1  0
  2 33  1  1
  3  4  1  0
  3 17  1  0
  3 18  1  0
  4 13  1  0
  4  5  1  0
  4 19  1  6
  5  6  1  0
  5 11  1  0
  5 20  1  1
  6  7  1  0
  7  8  1  0
  7 21  1  0
  7 22  1  0
  8 10  1  0
  8  9  1  0
  8 23  1  0
  9 10  1  0
  9 24  1  0
  9 25  1  0
 10 26  1  0
 10 27  1  0
 11 12  1  0
 11 28  1  0
 11 29  1  0
 12 13  1  0
 12 30  1  0
 12 31  1  0
 13 32  1  1
M  CHG  1   2   1
M  END
>  <i_m_ct_stereo_status>  (301) 
1

>  <s_m_source_file>  (301) 
/var/tmp/pbs.5076255.sched01/tmpegbcst3k/90u3quomt0.sdf

>  <i_m_source_file_index>  (301) 
27

>  <i_lp_mmshare_version>  (301) 
48012

>  <i_f3d_flags>  (301) 
0

>  <s_epik_input>  (301) 
W0NIM11OKFtDSDJdMSlbQ0BIXShbQ0BASF0xMilbQ0gyXVtDSDJdW0NAQEhdMk9bQ0gyXVtDSF0zW0NIMl1bQ0gyXTM=

>  <s_epik_cmdline>  (301) 
J2VwaWtfcHl0aG9uJywgJy1waHQnLCAnMi4wJywgJy1waCcsICc3LjAnLCAnLXRuJywgJzgnLCAnLW1hJywgJzIwMCcsICctaW1hZScsICc8aW5maWxlLm1hZT4nLCAnLW9tYWUnLCAnPG91dGZpbGUubWFlPic=

>  <r_epik_Ionization_Penalty>  (301) 
0.000905251

>  <r_epik_Ionization_Penalty_Charging>  (301) 
0.000905251

>  <r_epik_Ionization_Penalty_Neutral>  (301) 
5.69345e-12

>  <r_epik_State_Penalty>  (301) 
0.00058616

>  <r_epik_Charging_Adjusted_Penalty>  (301) 
0.00149141

>  <i_epik_Tot_Q>  (301) 
1

>  <i_epik_Tot_abs_Q>  (301) 
1

>  <s_lp_Force_Field>  (301) 
OPLS3e

>  <r_lp_Energy>  (301) 
63.5425

>  <b_lp_Chiralities_Consistent>  (301) 
1

>  <s_lp_Variant>  (301) 
75:0-1

>  <s_i_glide_gridfile>  (301) 
pfpi4k_grid

>  <i_i_glide_lignum>  (301) 
27

>  <i_i_glide_rotatable_bonds>  (301) 
3

>  <r_i_docking_score>  (301) 
-3.51217

>  <r_i_glide_ligand_efficiency>  (301) 
-0.270167

>  <r_i_glide_ligand_efficiency_sa>  (301) 
-0.635253

>  <r_i_glide_ligand_efficiency_ln>  (301) 
-0.985195

>  <r_i_glide_gscore>  (301) 
-3.51217

>  <r_i_glide_lipo>  (301) 
-1.81555

>  <r_i_glide_hbond>  (301) 
0

>  <r_i_glide_metal>  (301) 
-0

>  <r_i_glide_rewards>  (301) 
-2.26883

>  <r_i_glide_evdw>  (301) 
-15.1317

>  <r_i_glide_ecoul>  (301) 
-0.664272

>  <r_i_glide_erotb>  (301) 
1.42843

>  <r_i_glide_esite>  (301) 
0

>  <r_i_glide_emodel>  (301) 
-20.4108

>  <r_i_glide_energy>  (301) 
-15.7959

>  <r_i_glide_einternal>  (301) 
1.09259

>  <r_i_glide_intrahb_reward>  (301) 
-0

>  <i_i_glide_confnum>  (301) 
2

>  <i_i_glide_posenum>  (301) 
2

>  <r_i_glide_eff_state_penalty>  (301) 
0

>  <ligand_id>  (301) 
75

>  <original_smiles>  (301) 
CN1CC2C(OCC3CC3)CCC21

>  <smiles>  (301) 
[H]C([H])(OC1([H])C([H])([H])C([H])([H])C2([H])C1([H])C([H])([H])[N+]2([H])C([H])([H])[H])C1([H])C([H])([H])C1([H])[H]

$$$$
75:0:1
     RDKit          3D

 33 35  0  0  1  0  0  0  0  0999 V2000
    2.1876   -1.3842    2.3470 C   0  0  0  0  0  0  0  0  0  0  0  0
    2.6598   -1.3733    0.9506 N   0  0  2  0  0  0  0  0  0  0  0  0
    2.8715   -2.6629    0.2597 C   0  0  0  0  0  0  0  0  0  0  0  0
    4.3405   -2.5402    0.6819 C   0  0  1  0  0  0  0  0  0  0  0  0
    5.7163   -2.5877    0.0435 C   0  0  1  0  0  0  0  0  0  0  0  0
    5.6820   -2.4068   -1.3707 O   0  0  0  0  0  0  0  0  0  0  0  0
    5.2093   -3.5454   -2.0901 C   0  0  0  0  0  0  0  0  0  0  0  0
    3.8262   -3.3248   -2.6838 C   0  0  0  0  0  0  0  0  0  0  0  0
    3.5270   -3.4115   -4.1516 C   0  0  0  0  0  0  0  0  0  0  0  0
    3.5791   -2.0569   -3.4918 C   0  0  0  0  0  0  0  0  0  0  0  0
    6.3467   -1.3318    0.7502 C   0  0  0  0  0  0  0  0  0  0  0  0
    5.1779   -0.5285    1.4280 C   0  0  0  0  0  0  0  0  0  0  0  0
    4.0570   -1.0761    0.6037 C   0  0  2  0  0  0  0  0  0  0  0  0
    2.8010   -2.0246    2.9819 H   0  0  0  0  0  0  0  0  0  0  0  0
    1.1686   -1.7604    2.3470 H   0  0  0  0  0  0  0  0  0  0  0  0
    2.1799   -0.3643    2.7184 H   0  0  0  0  0  0  0  0  0  0  0  0
    2.3468   -3.5232    0.6869 H   0  0  0  0  0  0  0  0  0  0  0  0
    2.5716   -2.4058   -0.7256 H   0  0  0  0  0  0  0  0  0  0  0  0
    4.4292   -2.9023    1.7048 H   0  0  0  0  0  0  0  0  0  0  0  0
    6.2854   -3.4780    0.2992 H   0  0  0  0  0  0  0  0  0  0  0  0
    5.9085   -3.7320   -2.8981 H   0  0  0  0  0  0  0  0  0  0  0  0
    5.1838   -4.4504   -1.4814 H   0  0  0  0  0  0  0  0  0  0  0  0
    3.0410   -3.8477   -2.1663 H   0  0  0  0  0  0  0  0  0  0  0  0
    4.3513   -3.7887   -4.7499 H   0  0  0  0  0  0  0  0  0  0  0  0
    2.5439   -3.8305   -4.3521 H   0  0  0  0  0  0  0  0  0  0  0  0
    2.6406   -1.5259   -3.3476 H   0  0  0  0  0  0  0  0  0  0  0  0
    4.4375   -1.4243   -3.7215 H   0  0  0  0  0  0  0  0  0  0  0  0
    7.0875   -1.6095    1.4996 H   0  0  0  0  0  0  0  0  0  0  0  0
    6.8665   -0.6978    0.0347 H   0  0  0  0  0  0  0  0  0  0  0  0
    5.0769   -0.7833    2.4908 H   0  0  0  0  0  0  0  0  0  0  0  0
    5.2941    0.5293    1.3042 H   0  0  0  0  0  0  0  0  0  0  0  0
    4.0817   -0.6948   -0.4174 H   0  0  0  0  0  0  0  0  0  0  0  0
    2.0025   -0.8981    0.3336 H   0  0  0  0  0  0  0  0  0  0  0  0
  1  2  1  0
  1 14  1  0
  1 15  1  0
  1 16  1  0
  2 13  1  0
  2  3  1  0
  2 33  1  6
  3  4  1  0
  3 17  1  0
  3 18  1  0
  4 13  1  0
  4  5  1  0
  4 19  1  1
  5  6  1  0
  5 11  1  0
  5 20  1  6
  6  7  1  0
  7  8  1  0
  7 21  1  0
  7 22  1  0
  8 10  1  0
  8  9  1  0
  8 23  1  0
  9 10  1  0
  9 24  1  0
  9 25  1  0
 10 26  1  0
 10 27  1  0
 11 12  1  0
 11 28  1  0
 11 29  1  0
 12 13  1  0
 12 30  1  0
 12 31  1  0
 13 32  1  6
M  CHG  1   2   1
M  END
>  <i_m_ct_stereo_status>  (302) 
1

>  <s_m_source_file>  (302) 
/var/tmp/pbs.5076255.sched01/tmpegbcst3k/90u3quomt0.sdf

>  <i_m_source_file_index>  (302) 
27

>  <i_lp_mmshare_version>  (302) 
48012

>  <i_f3d_flags>  (302) 
0

>  <s_epik_input>  (302) 
W0NIM11OKFtDSDJdMSlbQ0BIXShbQ0BASF0xMilbQ0gyXVtDSDJdW0NAQEhdMk9bQ0gyXVtDSF0zW0NIMl1bQ0gyXTM=

>  <s_epik_cmdline>  (302) 
J2VwaWtfcHl0aG9uJywgJy1waHQnLCAnMi4wJywgJy1waCcsICc3LjAnLCAnLXRuJywgJzgnLCAnLW1hJywgJzIwMCcsICctaW1hZScsICc8aW5maWxlLm1hZT4nLCAnLW9tYWUnLCAnPG91dGZpbGUubWFlPic=

>  <r_epik_Ionization_Penalty>  (302) 
0.000905251

>  <r_epik_Ionization_Penalty_Charging>  (302) 
0.000905251

>  <r_epik_Ionization_Penalty_Neutral>  (302) 
5.69345e-12

>  <r_epik_State_Penalty>  (302) 
0.00058616

>  <r_epik_Charging_Adjusted_Penalty>  (302) 
0.00149141

>  <i_epik_Tot_Q>  (302) 
1

>  <i_epik_Tot_abs_Q>  (302) 
1

>  <s_lp_Force_Field>  (302) 
OPLS3e

>  <r_lp_Energy>  (302) 
63.5425

>  <b_lp_Chiralities_Consistent>  (302) 
1

>  <s_lp_Variant>  (302) 
75:0-1

>  <s_i_glide_gridfile>  (302) 
pfpi4k_grid

>  <i_i_glide_lignum>  (302) 
27

>  <i_i_glide_rotatable_bonds>  (302) 
3

>  <r_i_docking_score>  (302) 
-3.31403

>  <r_i_glide_ligand_efficiency>  (302) 
-0.254926

>  <r_i_glide_ligand_efficiency_sa>  (302) 
-0.599415

>  <r_i_glide_ligand_efficiency_ln>  (302) 
-0.929616

>  <r_i_glide_gscore>  (302) 
-3.31403

>  <r_i_glide_lipo>  (302) 
-0.564539

>  <r_i_glide_hbond>  (302) 
-0.198104

>  <r_i_glide_metal>  (302) 
-0

>  <r_i_glide_rewards>  (302) 
-2.16626

>  <r_i_glide_evdw>  (302) 
-14.3576

>  <r_i_glide_ecoul>  (302) 
-6.90567

>  <r_i_glide_erotb>  (302) 
1.42843

>  <r_i_glide_esite>  (302) 
-0.0598301

>  <r_i_glide_emodel>  (302) 
-22.4976

>  <r_i_glide_energy>  (302) 
-21.2633

>  <r_i_glide_einternal>  (302) 
3.73154

>  <r_i_glide_intrahb_reward>  (302) 
-0

>  <i_i_glide_confnum>  (302) 
2

>  <i_i_glide_posenum>  (302) 
38

>  <r_i_glide_eff_state_penalty>  (302) 
0

>  <ligand_id>  (302) 
75

>  <original_smiles>  (302) 
CN1CC2C(OCC3CC3)CCC21

>  <smiles>  (302) 
[H]C([H])(OC1([H])C([H])([H])C([H])([H])C2([H])C1([H])C([H])([H])[N+]2([H])C([H])([H])[H])C1([H])C([H])([H])C1([H])[H]

$$$$
75:0:2
     RDKit          3D

 33 35  0  0  1  0  0  0  0  0999 V2000
    4.8566   -2.3111    2.2043 C   0  0  0  0  0  0  0  0  0  0  0  0
    4.7239   -1.5110    0.9633 N   0  0  2  0  0  0  0  0  0  0  0  0
    3.4223   -1.5200    0.2387 C   0  0  0  0  0  0  0  0  0  0  0  0
    4.0041   -2.6716   -0.5664 C   0  0  1  0  0  0  0  0  0  0  0  0
    4.1974   -3.0473   -2.0180 C   0  0  1  0  0  0  0  0  0  0  0  0
    4.1319   -1.9285   -2.8833 O   0  0  0  0  0  0  0  0  0  0  0  0
    2.8137   -1.5244   -3.2232 C   0  0  0  0  0  0  0  0  0  0  0  0
    2.8835   -0.3042   -4.1251 C   0  0  0  0  0  0  0  0  0  0  0  0
    4.0060   -0.2177   -5.1211 C   0  0  0  0  0  0  0  0  0  0  0  0
    3.9926    0.7062   -3.9392 C   0  0  0  0  0  0  0  0  0  0  0  0
    5.6861   -3.5495   -1.9465 C   0  0  0  0  0  0  0  0  0  0  0  0
    6.2769   -3.1067   -0.5566 C   0  0  0  0  0  0  0  0  0  0  0  0
    5.3108   -1.9881   -0.2822 C   0  0  2  0  0  0  0  0  0  0  0  0
    4.5318   -3.3485    2.1093 H   0  0  0  0  0  0  0  0  0  0  0  0
    4.2577   -1.8374    2.9848 H   0  0  0  0  0  0  0  0  0  0  0  0
    5.8957   -2.2973    2.5408 H   0  0  0  0  0  0  0  0  0  0  0  0
    2.5632   -1.7909    0.8563 H   0  0  0  0  0  0  0  0  0  0  0  0
    3.2433   -0.6223   -0.3475 H   0  0  0  0  0  0  0  0  0  0  0  0
    3.8609   -3.5808    0.0219 H   0  0  0  0  0  0  0  0  0  0  0  0
    3.5352   -3.8472   -2.3537 H   0  0  0  0  0  0  0  0  0  0  0  0
    2.2928   -2.3289   -3.7400 H   0  0  0  0  0  0  0  0  0  0  0  0
    2.2384   -1.2729   -2.3364 H   0  0  0  0  0  0  0  0  0  0  0  0
    1.9299    0.0918   -4.4618 H   0  0  0  0  0  0  0  0  0  0  0  0
    4.6969   -1.0515   -5.1199 H   0  0  0  0  0  0  0  0  0  0  0  0
    3.7735    0.2138   -6.0932 H   0  0  0  0  0  0  0  0  0  0  0  0
    3.8148    1.7538   -4.1623 H   0  0  0  0  0  0  0  0  0  0  0  0
    4.6295    0.5175   -3.0801 H   0  0  0  0  0  0  0  0  0  0  0  0
    5.7018   -4.6335   -2.0512 H   0  0  0  0  0  0  0  0  0  0  0  0
    6.2658   -3.1298   -2.7762 H   0  0  0  0  0  0  0  0  0  0  0  0
    6.2016   -3.9250    0.1619 H   0  0  0  0  0  0  0  0  0  0  0  0
    7.3199   -2.7952   -0.6186 H   0  0  0  0  0  0  0  0  0  0  0  0
    5.4944   -1.1271   -0.9297 H   0  0  0  0  0  0  0  0  0  0  0  0
    5.0056   -0.5583    1.1287 H   0  0  0  0  0  0  0  0  0  0  0  0
  1  2  1  0
  1 14  1  0
  1 15  1  0
  1 16  1  0
  2 13  1  0
  2  3  1  0
  2 33  1  1
  3  4  1  0
  3 17  1  0
  3 18  1  0
  4 13  1  0
  4  5  1  0
  4 19  1  1
  5  6  1  0
  5 11  1  0
  5 20  1  6
  6  7  1  0
  7  8  1  0
  7 21  1  0
  7 22  1  0
  8 10  1  0
  8  9  1  0
  8 23  1  0
  9 10  1  0
  9 24  1  0
  9 25  1  0
 10 26  1  0
 10 27  1  0
 11 12  1  0
 11 28  1  0
 11 29  1  0
 12 13  1  0
 12 30  1  0
 12 31  1  0
 13 32  1  6
M  CHG  1   2   1
M  END
>  <i_m_ct_stereo_status>  (303) 
1

>  <s_m_source_file>  (303) 
/var/tmp/pbs.5076255.sched01/tmpegbcst3k/90u3quomt0.sdf

>  <i_m_source_file_index>  (303) 
27

>  <i_lp_mmshare_version>  (303) 
48012

>  <i_f3d_flags>  (303) 
0

>  <s_epik_input>  (303) 
W0NIM11OKFtDSDJdMSlbQ0BIXShbQ0BASF0xMilbQ0gyXVtDSDJdW0NAQEhdMk9bQ0gyXVtDSF0zW0NIMl1bQ0gyXTM=

>  <s_epik_cmdline>  (303) 
J2VwaWtfcHl0aG9uJywgJy1waHQnLCAnMi4wJywgJy1waCcsICc3LjAnLCAnLXRuJywgJzgnLCAnLW1hJywgJzIwMCcsICctaW1hZScsICc8aW5maWxlLm1hZT4nLCAnLW9tYWUnLCAnPG91dGZpbGUubWFlPic=

>  <r_epik_Ionization_Penalty>  (303) 
0.000905251

>  <r_epik_Ionization_Penalty_Charging>  (303) 
0.000905251

>  <r_epik_Ionization_Penalty_Neutral>  (303) 
5.69345e-12

>  <r_epik_State_Penalty>  (303) 
0.00058616

>  <r_epik_Charging_Adjusted_Penalty>  (303) 
0.00149141

>  <i_epik_Tot_Q>  (303) 
1

>  <i_epik_Tot_abs_Q>  (303) 
1

>  <s_lp_Force_Field>  (303) 
OPLS3e

>  <r_lp_Energy>  (303) 
63.5425

>  <b_lp_Chiralities_Consistent>  (303) 
1

>  <s_lp_Variant>  (303) 
75:0-1

>  <s_i_glide_gridfile>  (303) 
pfpi4k_grid

>  <i_i_glide_lignum>  (303) 
27

>  <i_i_glide_rotatable_bonds>  (303) 
3

>  <r_i_docking_score>  (303) 
-2.55484

>  <r_i_glide_ligand_efficiency>  (303) 
-0.196526

>  <r_i_glide_ligand_efficiency_sa>  (303) 
-0.462099

>  <r_i_glide_ligand_efficiency_ln>  (303) 
-0.716655

>  <r_i_glide_gscore>  (303) 
-2.55484

>  <r_i_glide_lipo>  (303) 
-0.629052

>  <r_i_glide_hbond>  (303) 
0

>  <r_i_glide_metal>  (303) 
-0

>  <r_i_glide_rewards>  (303) 
-2.21625

>  <r_i_glide_evdw>  (303) 
-13.5793

>  <r_i_glide_ecoul>  (303) 
-3.05998

>  <r_i_glide_erotb>  (303) 
1.42843

>  <r_i_glide_esite>  (303) 
0

>  <r_i_glide_emodel>  (303) 
-20.1285

>  <r_i_glide_energy>  (303) 
-16.6393

>  <r_i_glide_einternal>  (303) 
0.312209

>  <r_i_glide_intrahb_reward>  (303) 
-0

>  <i_i_glide_confnum>  (303) 
2

>  <i_i_glide_posenum>  (303) 
1

>  <r_i_glide_eff_state_penalty>  (303) 
0

>  <ligand_id>  (303) 
75

>  <original_smiles>  (303) 
CN1CC2C(OCC3CC3)CCC21

>  <smiles>  (303) 
[H]C([H])(OC1([H])C([H])([H])C([H])([H])C2([H])C1([H])C([H])([H])[N+]2([H])C([H])([H])[H])C1([H])C([H])([H])C1([H])[H]

$$$$
76:0:0
     RDKit          3D

 28 30  0  0  1  0  0  0  0  0999 V2000
   -1.8548   -8.3655    3.3366 C   0  0  0  0  0  0  0  0  0  0  0  0
   -0.8399   -8.3043    2.1884 C   0  0  0  0  0  0  0  0  0  0  0  0
   -0.1226   -7.0253    2.0741 N   0  0  0  0  0  0  0  0  0  0  0  0
    0.7471   -6.9621    0.9855 N   0  0  0  0  0  0  0  0  0  0  0  0
    1.7345   -6.4992    1.6150 C   0  0  0  0  0  0  0  0  0  0  0  0
    3.1131   -6.1299    1.2418 C   0  0  0  0  0  0  0  0  0  0  0  0
    4.2007   -6.9340    1.6588 C   0  0  0  0  0  0  0  0  0  0  0  0
    5.5256   -6.6072    1.2920 C   0  0  0  0  0  0  0  0  0  0  0  0
    5.7763   -5.4693    0.5017 C   0  0  0  0  0  0  0  0  0  0  0  0
    4.7007   -4.6687    0.0862 C   0  0  0  0  0  0  0  0  0  0  0  0
    3.3526   -4.9748    0.4512 C   0  0  0  0  0  0  0  0  0  0  0  0
    2.4781   -4.0391   -0.0751 N   0  0  0  0  0  0  0  0  0  0  0  0
    3.3000   -3.2199   -0.7297 C   0  0  0  0  0  0  0  0  0  0  0  0
    4.6149   -3.5128   -0.6864 N   0  0  0  0  0  0  0  0  0  0  0  0
    5.7063   -2.7794   -1.3018 C   0  0  0  0  0  0  0  0  0  0  0  0
    1.0833   -6.6026    3.1963 S   0  0  0  0  0  0  0  0  0  0  0  0
   -2.3406   -9.3451    3.3697 H   0  0  0  0  0  0  0  0  0  0  0  0
   -2.6371   -7.6147    3.2205 H   0  0  0  0  0  0  0  0  0  0  0  0
   -1.3764   -8.2120    4.3049 H   0  0  0  0  0  0  0  0  0  0  0  0
   -0.1167   -9.1110    2.2972 H   0  0  0  0  0  0  0  0  0  0  0  0
   -1.3676   -8.4929    1.2551 H   0  0  0  0  0  0  0  0  0  0  0  0
    4.0271   -7.8150    2.2601 H   0  0  0  0  0  0  0  0  0  0  0  0
    6.3572   -7.2246    1.6068 H   0  0  0  0  0  0  0  0  0  0  0  0
    6.7780   -5.2097    0.2055 H   0  0  0  0  0  0  0  0  0  0  0  0
    2.9246   -2.3537   -1.2614 H   0  0  0  0  0  0  0  0  0  0  0  0
    5.3226   -1.9496   -1.8956 H   0  0  0  0  0  0  0  0  0  0  0  0
    6.2813   -3.4410   -1.9506 H   0  0  0  0  0  0  0  0  0  0  0  0
    6.3636   -2.3839   -0.5272 H   0  0  0  0  0  0  0  0  0  0  0  0
  1  2  1  0
  1 17  1  0
  1 18  1  0
  1 19  1  0
  2  3  1  0
  2 20  1  0
  2 21  1  0
  3 16  1  0
  3  4  1  0
  4  5  2  0
  5  6  1  0
  5 16  1  0
  6 11  1  0
  6  7  2  0
  7  8  1  0
  7 22  1  0
  8  9  2  0
  8 23  1  0
  9 10  1  0
  9 24  1  0
 10 14  1  0
 10 11  2  0
 11 12  1  0
 12 13  2  0
 13 14  1  0
 13 25  1  0
 14 15  1  0
 15 26  1  0
 15 27  1  0
 15 28  1  0
M  END
>  <i_m_ct_stereo_status>  (304) 
1

>  <s_m_source_file>  (304) 
/var/tmp/pbs.5076255.sched01/tmpegbcst3k/90u3quomt0.sdf

>  <i_m_source_file_index>  (304) 
28

>  <i_lp_mmshare_version>  (304) 
48012

>  <i_f3d_flags>  (304) 
0

>  <s_epik_input>  (304) 
W0NIM11bQ0gyXW4xbmMoczEpLWMoW2NIXVtjSF1bY0hdMiljKGMyMyluW2NIXW4zW0NIM10=

>  <s_epik_cmdline>  (304) 
J2VwaWtfcHl0aG9uJywgJy1waHQnLCAnMi4wJywgJy1waCcsICc3LjAnLCAnLXRuJywgJzgnLCAnLW1hJywgJzIwMCcsICctaW1hZScsICc8aW5maWxlLm1hZT4nLCAnLW9tYWUnLCAnPG91dGZpbGUubWFlPic=

>  <r_epik_Ionization_Penalty>  (304) 
0.0127223

>  <r_epik_Ionization_Penalty_Charging>  (304) 
0

>  <r_epik_Ionization_Penalty_Neutral>  (304) 
0.0127223

>  <r_epik_State_Penalty>  (304) 
0.00986356

>  <r_epik_Charging_Adjusted_Penalty>  (304) 
0.00986356

>  <i_epik_Tot_Q>  (304) 
0

>  <i_epik_Tot_abs_Q>  (304) 
0

>  <s_epik_Chemistry_Notes>  (304) 
This compound has an imine and may undergo hydrolysis. This compound has a N-S or N-O group and may undergo hydrolysis at high or low pH.

>  <s_lp_Force_Field>  (304) 
OPLS3e

>  <r_lp_Energy>  (304) 
21.7416

>  <b_lp_Chiralities_Consistent>  (304) 
1

>  <s_lp_Variant>  (304) 
76:0-1

>  <s_i_glide_gridfile>  (304) 
pfpi4k_grid

>  <i_i_glide_lignum>  (304) 
28

>  <i_i_glide_rotatable_bonds>  (304) 
2

>  <r_i_docking_score>  (304) 
-3.39747

>  <r_i_glide_ligand_efficiency>  (304) 
-0.212342

>  <r_i_glide_ligand_efficiency_sa>  (304) 
-0.535068

>  <r_i_glide_ligand_efficiency_ln>  (304) 
-0.900567

>  <r_i_glide_gscore>  (304) 
-3.39747

>  <r_i_glide_lipo>  (304) 
-0.311951

>  <r_i_glide_hbond>  (304) 
0

>  <r_i_glide_metal>  (304) 
-0

>  <r_i_glide_rewards>  (304) 
-1.92379

>  <r_i_glide_evdw>  (304) 
-22.2587

>  <r_i_glide_ecoul>  (304) 
-1.77445

>  <r_i_glide_erotb>  (304) 
0.317372

>  <r_i_glide_esite>  (304) 
-0.1

>  <r_i_glide_emodel>  (304) 
-29.2946

>  <r_i_glide_energy>  (304) 
-24.0331

>  <r_i_glide_einternal>  (304) 
1.08044

>  <r_i_glide_intrahb_reward>  (304) 
-0

>  <i_i_glide_confnum>  (304) 
2

>  <i_i_glide_posenum>  (304) 
4

>  <r_i_glide_eff_state_penalty>  (304) 
0

>  <ligand_id>  (304) 
76

>  <original_smiles>  (304) 
CCn1nc(-c2cccc3c2ncn3C)s1

>  <smiles>  (304) 
[H]c1c([H])c([H])c2c(nc([H])n2C([H])([H])[H])c1-c1nn(C([H])([H])C([H])([H])[H])s1

$$$$
76:0:1
     RDKit          3D

 28 30  0  0  1  0  0  0  0  0999 V2000
    3.0305   -0.4318    1.8195 C   0  0  0  0  0  0  0  0  0  0  0  0
    3.6678   -1.7121    1.2632 C   0  0  0  0  0  0  0  0  0  0  0  0
    2.7030   -2.7961    1.0194 N   0  0  0  0  0  0  0  0  0  0  0  0
    2.6749   -3.7694    2.0173 N   0  0  0  0  0  0  0  0  0  0  0  0
    2.6711   -4.7604    1.2418 C   0  0  0  0  0  0  0  0  0  0  0  0
    2.6600   -6.2170    1.4536 C   0  0  0  0  0  0  0  0  0  0  0  0
    3.8552   -6.9611    1.2902 C   0  0  0  0  0  0  0  0  0  0  0  0
    3.8751   -8.3533    1.5223 C   0  0  0  0  0  0  0  0  0  0  0  0
    2.7027   -9.0149    1.9253 C   0  0  0  0  0  0  0  0  0  0  0  0
    1.5164   -8.2796    2.0912 C   0  0  0  0  0  0  0  0  0  0  0  0
    1.4659   -6.8718    1.8468 C   0  0  0  0  0  0  0  0  0  0  0  0
    0.1844   -6.3786    2.0651 N   0  0  0  0  0  0  0  0  0  0  0  0
   -0.4714   -7.4785    2.4418 C   0  0  0  0  0  0  0  0  0  0  0  0
    0.2265   -8.6278    2.4766 N   0  0  0  0  0  0  0  0  0  0  0  0
   -0.2706   -9.9479    2.8236 C   0  0  0  0  0  0  0  0  0  0  0  0
    2.9720   -3.9237   -0.2250 S   0  0  0  0  0  0  0  0  0  0  0  0
    3.7815    0.3449    1.9899 H   0  0  0  0  0  0  0  0  0  0  0  0
    2.5294   -0.6208    2.7693 H   0  0  0  0  0  0  0  0  0  0  0  0
    2.2937   -0.0265    1.1239 H   0  0  0  0  0  0  0  0  0  0  0  0
    4.1852   -1.4804    0.3337 H   0  0  0  0  0  0  0  0  0  0  0  0
    4.4295   -2.0640    1.9580 H   0  0  0  0  0  0  0  0  0  0  0  0
    4.7657   -6.4631    0.9915 H   0  0  0  0  0  0  0  0  0  0  0  0
    4.7838   -8.9322    1.4016 H   0  0  0  0  0  0  0  0  0  0  0  0
    2.6971  -10.0766    2.1057 H   0  0  0  0  0  0  0  0  0  0  0  0
   -1.5234   -7.4586    2.6976 H   0  0  0  0  0  0  0  0  0  0  0  0
   -1.3135   -9.8926    3.1386 H   0  0  0  0  0  0  0  0  0  0  0  0
    0.3193  -10.3751    3.6356 H   0  0  0  0  0  0  0  0  0  0  0  0
   -0.2021  -10.6123    1.9623 H   0  0  0  0  0  0  0  0  0  0  0  0
  1  2  1  0
  1 17  1  0
  1 18  1  0
  1 19  1  0
  2  3  1  0
  2 20  1  0
  2 21  1  0
  3 16  1  0
  3  4  1  0
  4  5  2  0
  5  6  1  0
  5 16  1  0
  6 11  1  0
  6  7  2  0
  7  8  1  0
  7 22  1  0
  8  9  2  0
  8 23  1  0
  9 10  1  0
  9 24  1  0
 10 14  1  0
 10 11  2  0
 11 12  1  0
 12 13  2  0
 13 14  1  0
 13 25  1  0
 14 15  1  0
 15 26  1  0
 15 27  1  0
 15 28  1  0
M  END
>  <i_m_ct_stereo_status>  (305) 
1

>  <s_m_source_file>  (305) 
/var/tmp/pbs.5076255.sched01/tmpegbcst3k/90u3quomt0.sdf

>  <i_m_source_file_index>  (305) 
28

>  <i_lp_mmshare_version>  (305) 
48012

>  <i_f3d_flags>  (305) 
0

>  <s_epik_input>  (305) 
W0NIM11bQ0gyXW4xbmMoczEpLWMoW2NIXVtjSF1bY0hdMiljKGMyMyluW2NIXW4zW0NIM10=

>  <s_epik_cmdline>  (305) 
J2VwaWtfcHl0aG9uJywgJy1waHQnLCAnMi4wJywgJy1waCcsICc3LjAnLCAnLXRuJywgJzgnLCAnLW1hJywgJzIwMCcsICctaW1hZScsICc8aW5maWxlLm1hZT4nLCAnLW9tYWUnLCAnPG91dGZpbGUubWFlPic=

>  <r_epik_Ionization_Penalty>  (305) 
0.0127223

>  <r_epik_Ionization_Penalty_Charging>  (305) 
0

>  <r_epik_Ionization_Penalty_Neutral>  (305) 
0.0127223

>  <r_epik_State_Penalty>  (305) 
0.00986356

>  <r_epik_Charging_Adjusted_Penalty>  (305) 
0.00986356

>  <i_epik_Tot_Q>  (305) 
0

>  <i_epik_Tot_abs_Q>  (305) 
0

>  <s_epik_Chemistry_Notes>  (305) 
This compound has an imine and may undergo hydrolysis. This compound has a N-S or N-O group and may undergo hydrolysis at high or low pH.

>  <s_lp_Force_Field>  (305) 
OPLS3e

>  <r_lp_Energy>  (305) 
21.7416

>  <b_lp_Chiralities_Consistent>  (305) 
1

>  <s_lp_Variant>  (305) 
76:0-1

>  <s_i_glide_gridfile>  (305) 
pfpi4k_grid

>  <i_i_glide_lignum>  (305) 
28

>  <i_i_glide_rotatable_bonds>  (305) 
2

>  <r_i_docking_score>  (305) 
-3.36343

>  <r_i_glide_ligand_efficiency>  (305) 
-0.210214

>  <r_i_glide_ligand_efficiency_sa>  (305) 
-0.529707

>  <r_i_glide_ligand_efficiency_ln>  (305) 
-0.891544

>  <r_i_glide_gscore>  (305) 
-3.36343

>  <r_i_glide_lipo>  (305) 
-0.0799086

>  <r_i_glide_hbond>  (305) 
-0.221928

>  <r_i_glide_metal>  (305) 
-0

>  <r_i_glide_rewards>  (305) 
-1.82519

>  <r_i_glide_evdw>  (305) 
-20.3247

>  <r_i_glide_ecoul>  (305) 
-2.61554

>  <r_i_glide_erotb>  (305) 
0.317372

>  <r_i_glide_esite>  (305) 
-0.145207

>  <r_i_glide_emodel>  (305) 
-28.4013

>  <r_i_glide_energy>  (305) 
-22.9403

>  <r_i_glide_einternal>  (305) 
0.589668

>  <r_i_glide_intrahb_reward>  (305) 
-0

>  <i_i_glide_confnum>  (305) 
2

>  <i_i_glide_posenum>  (305) 
23

>  <r_i_glide_eff_state_penalty>  (305) 
0

>  <ligand_id>  (305) 
76

>  <original_smiles>  (305) 
CCn1nc(-c2cccc3c2ncn3C)s1

>  <smiles>  (305) 
[H]c1c([H])c([H])c2c(nc([H])n2C([H])([H])[H])c1-c1nn(C([H])([H])C([H])([H])[H])s1

$$$$
76:0:2
     RDKit          3D

 28 30  0  0  1  0  0  0  0  0999 V2000
    2.7361   -2.4883    0.9031 C   0  0  0  0  0  0  0  0  0  0  0  0
    3.0429   -3.4532   -0.2516 C   0  0  0  0  0  0  0  0  0  0  0  0
    3.1432   -4.8714    0.1354 N   0  0  0  0  0  0  0  0  0  0  0  0
    1.9236   -5.4842    0.4057 N   0  0  0  0  0  0  0  0  0  0  0  0
    2.2765   -6.0138    1.4875 C   0  0  0  0  0  0  0  0  0  0  0  0
    1.5682   -6.8106    2.4952 C   0  0  0  0  0  0  0  0  0  0  0  0
    0.6154   -6.1948    3.3440 C   0  0  0  0  0  0  0  0  0  0  0  0
   -0.1170   -6.9546    4.2813 C   0  0  0  0  0  0  0  0  0  0  0  0
    0.1182   -8.3367    4.3952 C   0  0  0  0  0  0  0  0  0  0  0  0
    1.0852   -8.9435    3.5747 C   0  0  0  0  0  0  0  0  0  0  0  0
    1.8284   -8.1988    2.6100 C   0  0  0  0  0  0  0  0  0  0  0  0
    2.7135   -9.0174    1.9230 N   0  0  0  0  0  0  0  0  0  0  0  0
    2.4846  -10.2046    2.4864 C   0  0  0  0  0  0  0  0  0  0  0  0
    1.5495  -10.2471    3.4574 N   0  0  0  0  0  0  0  0  0  0  0  0
    1.1191  -11.4016    4.2250 C   0  0  0  0  0  0  0  0  0  0  0  0
    3.8618   -5.3723    1.5943 S   0  0  0  0  0  0  0  0  0  0  0  0
    2.6177   -1.4581    0.5533 H   0  0  0  0  0  0  0  0  0  0  0  0
    3.5335   -2.4900    1.6449 H   0  0  0  0  0  0  0  0  0  0  0  0
    1.8142   -2.7723    1.4057 H   0  0  0  0  0  0  0  0  0  0  0  0
    2.2743   -3.3448   -1.0219 H   0  0  0  0  0  0  0  0  0  0  0  0
    3.9747   -3.1548   -0.7309 H   0  0  0  0  0  0  0  0  0  0  0  0
    0.4342   -5.1344    3.2635 H   0  0  0  0  0  0  0  0  0  0  0  0
   -0.8617   -6.4928    4.9174 H   0  0  0  0  0  0  0  0  0  0  0  0
   -0.4203   -8.9451    5.1017 H   0  0  0  0  0  0  0  0  0  0  0  0
    3.0253  -11.0906    2.1764 H   0  0  0  0  0  0  0  0  0  0  0  0
    1.6244  -12.2874    3.8588 H   0  0  0  0  0  0  0  0  0  0  0  0
    0.0440  -11.5389    4.1260 H   0  0  0  0  0  0  0  0  0  0  0  0
    1.3653  -11.2725    5.2780 H   0  0  0  0  0  0  0  0  0  0  0  0
  1  2  1  0
  1 17  1  0
  1 18  1  0
  1 19  1  0
  2  3  1  0
  2 20  1  0
  2 21  1  0
  3 16  1  0
  3  4  1  0
  4  5  2  0
  5  6  1  0
  5 16  1  0
  6 11  1  0
  6  7  2  0
  7  8  1  0
  7 22  1  0
  8  9  2  0
  8 23  1  0
  9 10  1  0
  9 24  1  0
 10 14  1  0
 10 11  2  0
 11 12  1  0
 12 13  2  0
 13 14  1  0
 13 25  1  0
 14 15  1  0
 15 26  1  0
 15 27  1  0
 15 28  1  0
M  END
>  <i_m_ct_stereo_status>  (306) 
1

>  <s_m_source_file>  (306) 
/var/tmp/pbs.5076255.sched01/tmpegbcst3k/90u3quomt0.sdf

>  <i_m_source_file_index>  (306) 
28

>  <i_lp_mmshare_version>  (306) 
48012

>  <i_f3d_flags>  (306) 
0

>  <s_epik_input>  (306) 
W0NIM11bQ0gyXW4xbmMoczEpLWMoW2NIXVtjSF1bY0hdMiljKGMyMyluW2NIXW4zW0NIM10=

>  <s_epik_cmdline>  (306) 
J2VwaWtfcHl0aG9uJywgJy1waHQnLCAnMi4wJywgJy1waCcsICc3LjAnLCAnLXRuJywgJzgnLCAnLW1hJywgJzIwMCcsICctaW1hZScsICc8aW5maWxlLm1hZT4nLCAnLW9tYWUnLCAnPG91dGZpbGUubWFlPic=

>  <r_epik_Ionization_Penalty>  (306) 
0.0127223

>  <r_epik_Ionization_Penalty_Charging>  (306) 
0

>  <r_epik_Ionization_Penalty_Neutral>  (306) 
0.0127223

>  <r_epik_State_Penalty>  (306) 
0.00986356

>  <r_epik_Charging_Adjusted_Penalty>  (306) 
0.00986356

>  <i_epik_Tot_Q>  (306) 
0

>  <i_epik_Tot_abs_Q>  (306) 
0

>  <s_epik_Chemistry_Notes>  (306) 
This compound has an imine and may undergo hydrolysis. This compound has a N-S or N-O group and may undergo hydrolysis at high or low pH.

>  <s_lp_Force_Field>  (306) 
OPLS3e

>  <r_lp_Energy>  (306) 
21.7416

>  <b_lp_Chiralities_Consistent>  (306) 
1

>  <s_lp_Variant>  (306) 
76:0-1

>  <s_i_glide_gridfile>  (306) 
pfpi4k_grid

>  <i_i_glide_lignum>  (306) 
28

>  <i_i_glide_rotatable_bonds>  (306) 
2

>  <r_i_docking_score>  (306) 
-3.29427

>  <r_i_glide_ligand_efficiency>  (306) 
-0.205892

>  <r_i_glide_ligand_efficiency_sa>  (306) 
-0.518814

>  <r_i_glide_ligand_efficiency_ln>  (306) 
-0.873211

>  <r_i_glide_gscore>  (306) 
-3.29427

>  <r_i_glide_lipo>  (306) 
-0.187449

>  <r_i_glide_hbond>  (306) 
-0.067152

>  <r_i_glide_metal>  (306) 
-0

>  <r_i_glide_rewards>  (306) 
-1.92092

>  <r_i_glide_evdw>  (306) 
-19.6983

>  <r_i_glide_ecoul>  (306) 
-2.77639

>  <r_i_glide_erotb>  (306) 
0.317372

>  <r_i_glide_esite>  (306) 
-0.034739

>  <r_i_glide_emodel>  (306) 
-27.6321

>  <r_i_glide_energy>  (306) 
-22.4747

>  <r_i_glide_einternal>  (306) 
0.98177

>  <r_i_glide_intrahb_reward>  (306) 
-0

>  <i_i_glide_confnum>  (306) 
2

>  <i_i_glide_posenum>  (306) 
19

>  <r_i_glide_eff_state_penalty>  (306) 
0

>  <ligand_id>  (306) 
76

>  <original_smiles>  (306) 
CCn1nc(-c2cccc3c2ncn3C)s1

>  <smiles>  (306) 
[H]c1c([H])c([H])c2c(nc([H])n2C([H])([H])[H])c1-c1nn(C([H])([H])C([H])([H])[H])s1

$$$$
76:1:0
     RDKit          3D

 29 31  0  0  1  0  0  0  0  0999 V2000
    3.4567   -3.2073   -3.6907 C   0  0  0  0  0  0  0  0  0  0  0  0
    2.8623   -2.9602   -2.2977 C   0  0  0  0  0  0  0  0  0  0  0  0
    3.8523   -2.6305   -1.2589 N   0  0  0  0  0  0  0  0  0  0  0  0
    3.3176   -2.5904    0.0240 N   0  0  0  0  0  0  0  0  0  0  0  0
    3.7924   -1.4668    0.3443 C   0  0  0  0  0  0  0  0  0  0  0  0
    3.8033   -0.6712    1.5874 C   0  0  0  0  0  0  0  0  0  0  0  0
    4.8672   -0.7838    2.5066 C   0  0  0  0  0  0  0  0  0  0  0  0
    4.8691   -0.0641    3.7282 C   0  0  0  0  0  0  0  0  0  0  0  0
    3.8034    0.8094    4.0698 C   0  0  0  0  0  0  0  0  0  0  0  0
    2.7659    0.9229    3.1473 C   0  0  0  0  0  0  0  0  0  0  0  0
    2.7673    0.1993    1.9356 C   0  0  0  0  0  0  0  0  0  0  0  0
    1.5803    0.5315    1.2804 N   0  0  0  0  0  0  0  0  0  0  0  0
    0.8674    1.4363    2.0046 C   0  0  0  0  0  0  0  0  0  0  0  0
    1.5714    1.6696    3.1445 N   0  0  0  0  0  0  0  0  0  0  0  0
    1.2443    2.5498    4.2681 C   0  0  0  0  0  0  0  0  0  0  0  0
    4.4952   -1.0632   -1.1601 S   0  0  0  0  0  0  0  0  0  0  0  0
    2.6657   -3.4307   -4.4118 H   0  0  0  0  0  0  0  0  0  0  0  0
    4.1415   -4.0581   -3.6862 H   0  0  0  0  0  0  0  0  0  0  0  0
    3.9975   -2.3325   -4.0537 H   0  0  0  0  0  0  0  0  0  0  0  0
    2.1279   -2.1602   -2.3530 H   0  0  0  0  0  0  0  0  0  0  0  0
    2.3185   -3.8485   -1.9866 H   0  0  0  0  0  0  0  0  0  0  0  0
    5.6925   -1.4559    2.2834 H   0  0  0  0  0  0  0  0  0  0  0  0
    5.6948   -0.1854    4.4116 H   0  0  0  0  0  0  0  0  0  0  0  0
    3.8078    1.3641    4.9993 H   0  0  0  0  0  0  0  0  0  0  0  0
   -0.0783    1.8849    1.7224 H   0  0  0  0  0  0  0  0  0  0  0  0
    0.3086    3.0582    4.0380 H   0  0  0  0  0  0  0  0  0  0  0  0
    2.0176    3.3081    4.4012 H   0  0  0  0  0  0  0  0  0  0  0  0
    1.1019    1.9700    5.1815 H   0  0  0  0  0  0  0  0  0  0  0  0
    1.2607    0.1055    0.3892 H   0  0  0  0  0  0  0  0  0  0  0  0
  1  2  1  0
  1 17  1  0
  1 18  1  0
  1 19  1  0
  2  3  1  0
  2 20  1  0
  2 21  1  0
  3 16  1  0
  3  4  1  0
  4  5  2  0
  5  6  1  0
  5 16  1  0
  6 11  1  0
  6  7  2  0
  7  8  1  0
  7 22  1  0
  8  9  2  0
  8 23  1  0
  9 10  1  0
  9 24  1  0
 10 14  1  0
 10 11  2  0
 11 12  1  0
 12 13  2  0
 12 29  1  0
 13 14  1  0
 13 25  1  0
 14 15  1  0
 15 26  1  0
 15 27  1  0
 15 28  1  0
M  CHG  1  12   1
M  END
>  <i_m_ct_stereo_status>  (307) 
1

>  <s_m_source_file>  (307) 
/var/tmp/pbs.5076255.sched01/tmpegbcst3k/90u3quomt0.sdf

>  <i_m_source_file_index>  (307) 
29

>  <i_lp_mmshare_version>  (307) 
48012

>  <i_f3d_flags>  (307) 
0

>  <s_epik_input>  (307) 
W0NIM11bQ0gyXW4xbmMoczEpLWMoW2NIXVtjSF1bY0hdMiljKGMyMyluW2NIXW4zW0NIM10=

>  <s_epik_cmdline>  (307) 
J2VwaWtfcHl0aG9uJywgJy1waHQnLCAnMi4wJywgJy1waCcsICc3LjAnLCAnLXRuJywgJzgnLCAnLW1hJywgJzIwMCcsICctaW1hZScsICc8aW5maWxlLm1hZT4nLCAnLW9tYWUnLCAnPG91dGZpbGUubWFlPic=

>  <r_epik_Ionization_Penalty>  (307) 
2.28207

>  <r_epik_Ionization_Penalty_Charging>  (307) 
2.28207

>  <r_epik_Ionization_Penalty_Neutral>  (307) 
2.59358e-11

>  <r_epik_State_Penalty>  (307) 
2.43144

>  <r_epik_Charging_Adjusted_Penalty>  (307) 
4.71351

>  <i_epik_Tot_Q>  (307) 
1

>  <i_epik_Tot_abs_Q>  (307) 
1

>  <s_epik_Chemistry_Notes>  (307) 
This compound has an imine and may undergo hydrolysis. This compound has a N-S or N-O group and may undergo hydrolysis at high or low pH.

>  <s_lp_Force_Field>  (307) 
OPLS3e

>  <r_lp_Energy>  (307) 
26.52

>  <b_lp_Chiralities_Consistent>  (307) 
1

>  <s_lp_Variant>  (307) 
76:0-2

>  <s_i_glide_gridfile>  (307) 
pfpi4k_grid

>  <i_i_glide_lignum>  (307) 
29

>  <i_i_glide_rotatable_bonds>  (307) 
2

>  <r_i_docking_score>  (307) 
-4.10714

>  <r_i_glide_ligand_efficiency>  (307) 
-0.256696

>  <r_i_glide_ligand_efficiency_sa>  (307) 
-0.646833

>  <r_i_glide_ligand_efficiency_ln>  (307) 
-1.08868

>  <r_i_glide_gscore>  (307) 
-4.10714

>  <r_i_glide_lipo>  (307) 
-0.389628

>  <r_i_glide_hbond>  (307) 
-0.2

>  <r_i_glide_metal>  (307) 
-0

>  <r_i_glide_rewards>  (307) 
-1.81832

>  <r_i_glide_evdw>  (307) 
-21.4516

>  <r_i_glide_ecoul>  (307) 
-5.08879

>  <r_i_glide_erotb>  (307) 
0.315045

>  <r_i_glide_esite>  (307) 
-0.178339

>  <r_i_glide_emodel>  (307) 
-35.2082

>  <r_i_glide_energy>  (307) 
-26.5404

>  <r_i_glide_einternal>  (307) 
0.569456

>  <r_i_glide_intrahb_reward>  (307) 
-0

>  <i_i_glide_confnum>  (307) 
1

>  <i_i_glide_posenum>  (307) 
34

>  <r_i_glide_eff_state_penalty>  (307) 
0

>  <ligand_id>  (307) 
76

>  <original_smiles>  (307) 
CCn1nc(-c2cccc3c2ncn3C)s1

>  <smiles>  (307) 
[H]c1c([H])c(-c2nn(C([H])([H])C([H])([H])[H])s2)c2c(c1[H])n(C([H])([H])[H])c([H])[n+]2[H]

$$$$
76:1:1
     RDKit          3D

 29 31  0  0  1  0  0  0  0  0999 V2000
    3.2856   -1.6649   -2.5895 C   0  0  0  0  0  0  0  0  0  0  0  0
    3.6989   -2.9461   -1.8410 C   0  0  0  0  0  0  0  0  0  0  0  0
    4.3267   -2.7378   -0.5249 N   0  0  0  0  0  0  0  0  0  0  0  0
    3.4234   -2.4333    0.4856 N   0  0  0  0  0  0  0  0  0  0  0  0
    4.0355   -1.4105    0.8985 C   0  0  0  0  0  0  0  0  0  0  0  0
    3.8383   -0.4845    2.0249 C   0  0  0  0  0  0  0  0  0  0  0  0
    4.7733   -0.4149    3.0883 C   0  0  0  0  0  0  0  0  0  0  0  0
    4.5583    0.4494    4.1938 C   0  0  0  0  0  0  0  0  0  0  0  0
    3.4144    1.2769    4.2740 C   0  0  0  0  0  0  0  0  0  0  0  0
    2.5061    1.2016    3.2179 C   0  0  0  0  0  0  0  0  0  0  0  0
    2.7161    0.3374    2.1182 C   0  0  0  0  0  0  0  0  0  0  0  0
    1.6067    0.4851    1.2809 N   0  0  0  0  0  0  0  0  0  0  0  0
    0.7485    1.4035    1.7914 C   0  0  0  0  0  0  0  0  0  0  0  0
    1.2809    1.8322    2.9672 N   0  0  0  0  0  0  0  0  0  0  0  0
    0.7431    2.8122    3.9200 C   0  0  0  0  0  0  0  0  0  0  0  0
    5.3312   -1.4004   -0.2167 S   0  0  0  0  0  0  0  0  0  0  0  0
    2.7576   -1.8885   -3.5231 H   0  0  0  0  0  0  0  0  0  0  0  0
    4.1539   -1.0554   -2.8382 H   0  0  0  0  0  0  0  0  0  0  0  0
    2.6181   -1.0674   -1.9727 H   0  0  0  0  0  0  0  0  0  0  0  0
    2.8159   -3.5752   -1.7080 H   0  0  0  0  0  0  0  0  0  0  0  0
    4.3793   -3.5309   -2.4608 H   0  0  0  0  0  0  0  0  0  0  0  0
    5.6550   -1.0405    3.0531 H   0  0  0  0  0  0  0  0  0  0  0  0
    5.2888    0.4766    4.9830 H   0  0  0  0  0  0  0  0  0  0  0  0
    3.2435    1.9378    5.1136 H   0  0  0  0  0  0  0  0  0  0  0  0
   -0.1820    1.7211    1.3274 H   0  0  0  0  0  0  0  0  0  0  0  0
   -0.1775    3.2156    3.5033 H   0  0  0  0  0  0  0  0  0  0  0  0
    1.4406    3.6384    4.0479 H   0  0  0  0  0  0  0  0  0  0  0  0
    0.5099    2.3355    4.8732 H   0  0  0  0  0  0  0  0  0  0  0  0
    1.4123   -0.0424    0.4121 H   0  0  0  0  0  0  0  0  0  0  0  0
  1  2  1  0
  1 17  1  0
  1 18  1  0
  1 19  1  0
  2  3  1  0
  2 20  1  0
  2 21  1  0
  3 16  1  0
  3  4  1  0
  4  5  2  0
  5  6  1  0
  5 16  1  0
  6 11  1  0
  6  7  2  0
  7  8  1  0
  7 22  1  0
  8  9  2  0
  8 23  1  0
  9 10  1  0
  9 24  1  0
 10 14  1  0
 10 11  2  0
 11 12  1  0
 12 13  2  0
 12 29  1  0
 13 14  1  0
 13 25  1  0
 14 15  1  0
 15 26  1  0
 15 27  1  0
 15 28  1  0
M  CHG  1  12   1
M  END
>  <i_m_ct_stereo_status>  (308) 
1

>  <s_m_source_file>  (308) 
/var/tmp/pbs.5076255.sched01/tmpegbcst3k/90u3quomt0.sdf

>  <i_m_source_file_index>  (308) 
29

>  <i_lp_mmshare_version>  (308) 
48012

>  <i_f3d_flags>  (308) 
0

>  <s_epik_input>  (308) 
W0NIM11bQ0gyXW4xbmMoczEpLWMoW2NIXVtjSF1bY0hdMiljKGMyMyluW2NIXW4zW0NIM10=

>  <s_epik_cmdline>  (308) 
J2VwaWtfcHl0aG9uJywgJy1waHQnLCAnMi4wJywgJy1waCcsICc3LjAnLCAnLXRuJywgJzgnLCAnLW1hJywgJzIwMCcsICctaW1hZScsICc8aW5maWxlLm1hZT4nLCAnLW9tYWUnLCAnPG91dGZpbGUubWFlPic=

>  <r_epik_Ionization_Penalty>  (308) 
2.28207

>  <r_epik_Ionization_Penalty_Charging>  (308) 
2.28207

>  <r_epik_Ionization_Penalty_Neutral>  (308) 
2.59358e-11

>  <r_epik_State_Penalty>  (308) 
2.43144

>  <r_epik_Charging_Adjusted_Penalty>  (308) 
4.71351

>  <i_epik_Tot_Q>  (308) 
1

>  <i_epik_Tot_abs_Q>  (308) 
1

>  <s_epik_Chemistry_Notes>  (308) 
This compound has an imine and may undergo hydrolysis. This compound has a N-S or N-O group and may undergo hydrolysis at high or low pH.

>  <s_lp_Force_Field>  (308) 
OPLS3e

>  <r_lp_Energy>  (308) 
26.52

>  <b_lp_Chiralities_Consistent>  (308) 
1

>  <s_lp_Variant>  (308) 
76:0-2

>  <s_i_glide_gridfile>  (308) 
pfpi4k_grid

>  <i_i_glide_lignum>  (308) 
29

>  <i_i_glide_rotatable_bonds>  (308) 
2

>  <r_i_docking_score>  (308) 
-3.88767

>  <r_i_glide_ligand_efficiency>  (308) 
-0.24298

>  <r_i_glide_ligand_efficiency_sa>  (308) 
-0.61227

>  <r_i_glide_ligand_efficiency_ln>  (308) 
-1.03051

>  <r_i_glide_gscore>  (308) 
-3.88767

>  <r_i_glide_lipo>  (308) 
-0.182431

>  <r_i_glide_hbond>  (308) 
-0.2

>  <r_i_glide_metal>  (308) 
-0

>  <r_i_glide_rewards>  (308) 
-1.81832

>  <r_i_glide_evdw>  (308) 
-19.427

>  <r_i_glide_ecoul>  (308) 
-5.62126

>  <r_i_glide_erotb>  (308) 
0.315045

>  <r_i_glide_esite>  (308) 
-0.187434

>  <r_i_glide_emodel>  (308) 
-32.7344

>  <r_i_glide_energy>  (308) 
-25.0483

>  <r_i_glide_einternal>  (308) 
1.52461

>  <r_i_glide_intrahb_reward>  (308) 
-0

>  <i_i_glide_confnum>  (308) 
3

>  <i_i_glide_posenum>  (308) 
10

>  <r_i_glide_eff_state_penalty>  (308) 
0

>  <ligand_id>  (308) 
76

>  <original_smiles>  (308) 
CCn1nc(-c2cccc3c2ncn3C)s1

>  <smiles>  (308) 
[H]c1c([H])c(-c2nn(C([H])([H])C([H])([H])[H])s2)c2c(c1[H])n(C([H])([H])[H])c([H])[n+]2[H]

$$$$
76:1:2
     RDKit          3D

 29 31  0  0  1  0  0  0  0  0999 V2000
    8.0542   -6.1807    1.8712 C   0  0  0  0  0  0  0  0  0  0  0  0
    7.7340   -7.6238    2.2755 C   0  0  0  0  0  0  0  0  0  0  0  0
    6.4775   -8.1314    1.7084 N   0  0  0  0  0  0  0  0  0  0  0  0
    5.3487   -7.8054    2.4629 N   0  0  0  0  0  0  0  0  0  0  0  0
    4.8081   -8.9412    2.3937 C   0  0  0  0  0  0  0  0  0  0  0  0
    3.5682   -9.5036    2.9576 C   0  0  0  0  0  0  0  0  0  0  0  0
    3.5856  -10.5654    3.8900 C   0  0  0  0  0  0  0  0  0  0  0  0
    2.3904  -11.0850    4.4421 C   0  0  0  0  0  0  0  0  0  0  0  0
    1.1241  -10.5652    4.0836 C   0  0  0  0  0  0  0  0  0  0  0  0
    1.1162   -9.5165    3.1664 C   0  0  0  0  0  0  0  0  0  0  0  0
    2.3144   -9.0004    2.6141 C   0  0  0  0  0  0  0  0  0  0  0  0
    1.9551   -7.9606    1.7509 N   0  0  0  0  0  0  0  0  0  0  0  0
    0.5978   -7.8278    1.7440 C   0  0  0  0  0  0  0  0  0  0  0  0
    0.0848   -8.7505    2.6043 N   0  0  0  0  0  0  0  0  0  0  0  0
   -1.3157   -9.0288    2.9363 C   0  0  0  0  0  0  0  0  0  0  0  0
    6.1301   -9.7971    1.7114 S   0  0  0  0  0  0  0  0  0  0  0  0
    8.9994   -5.8460    2.3143 H   0  0  0  0  0  0  0  0  0  0  0  0
    7.2716   -5.4989    2.2020 H   0  0  0  0  0  0  0  0  0  0  0  0
    8.1495   -6.0934    0.7893 H   0  0  0  0  0  0  0  0  0  0  0  0
    8.5619   -8.2526    1.9630 H   0  0  0  0  0  0  0  0  0  0  0  0
    7.6852   -7.6990    3.3595 H   0  0  0  0  0  0  0  0  0  0  0  0
    4.5331  -10.9857    4.1976 H   0  0  0  0  0  0  0  0  0  0  0  0
    2.4403  -11.8889    5.1645 H   0  0  0  0  0  0  0  0  0  0  0  0
    0.2190  -10.9561    4.5131 H   0  0  0  0  0  0  0  0  0  0  0  0
    0.0225   -7.1376    1.1451 H   0  0  0  0  0  0  0  0  0  0  0  0
   -1.9512   -8.3185    2.4065 H   0  0  0  0  0  0  0  0  0  0  0  0
   -1.4847   -8.9209    4.0091 H   0  0  0  0  0  0  0  0  0  0  0  0
   -1.5819  -10.0335    2.6063 H   0  0  0  0  0  0  0  0  0  0  0  0
    2.6061   -7.3965    1.2184 H   0  0  0  0  0  0  0  0  0  0  0  0
  1  2  1  0
  1 17  1  0
  1 18  1  0
  1 19  1  0
  2  3  1  0
  2 20  1  0
  2 21  1  0
  3 16  1  0
  3  4  1  0
  4  5  2  0
  5  6  1  0
  5 16  1  0
  6 11  1  0
  6  7  2  0
  7  8  1  0
  7 22  1  0
  8  9  2  0
  8 23  1  0
  9 10  1  0
  9 24  1  0
 10 14  1  0
 10 11  2  0
 11 12  1  0
 12 13  2  0
 12 29  1  0
 13 14  1  0
 13 25  1  0
 14 15  1  0
 15 26  1  0
 15 27  1  0
 15 28  1  0
M  CHG  1  12   1
M  END
>  <i_m_ct_stereo_status>  (309) 
1

>  <s_m_source_file>  (309) 
/var/tmp/pbs.5076255.sched01/tmpegbcst3k/90u3quomt0.sdf

>  <i_m_source_file_index>  (309) 
29

>  <i_lp_mmshare_version>  (309) 
48012

>  <i_f3d_flags>  (309) 
0

>  <s_epik_input>  (309) 
W0NIM11bQ0gyXW4xbmMoczEpLWMoW2NIXVtjSF1bY0hdMiljKGMyMyluW2NIXW4zW0NIM10=

>  <s_epik_cmdline>  (309) 
J2VwaWtfcHl0aG9uJywgJy1waHQnLCAnMi4wJywgJy1waCcsICc3LjAnLCAnLXRuJywgJzgnLCAnLW1hJywgJzIwMCcsICctaW1hZScsICc8aW5maWxlLm1hZT4nLCAnLW9tYWUnLCAnPG91dGZpbGUubWFlPic=

>  <r_epik_Ionization_Penalty>  (309) 
2.28207

>  <r_epik_Ionization_Penalty_Charging>  (309) 
2.28207

>  <r_epik_Ionization_Penalty_Neutral>  (309) 
2.59358e-11

>  <r_epik_State_Penalty>  (309) 
2.43144

>  <r_epik_Charging_Adjusted_Penalty>  (309) 
4.71351

>  <i_epik_Tot_Q>  (309) 
1

>  <i_epik_Tot_abs_Q>  (309) 
1

>  <s_epik_Chemistry_Notes>  (309) 
This compound has an imine and may undergo hydrolysis. This compound has a N-S or N-O group and may undergo hydrolysis at high or low pH.

>  <s_lp_Force_Field>  (309) 
OPLS3e

>  <r_lp_Energy>  (309) 
26.52

>  <b_lp_Chiralities_Consistent>  (309) 
1

>  <s_lp_Variant>  (309) 
76:0-2

>  <s_i_glide_gridfile>  (309) 
pfpi4k_grid

>  <i_i_glide_lignum>  (309) 
29

>  <i_i_glide_rotatable_bonds>  (309) 
2

>  <r_i_docking_score>  (309) 
-3.21199

>  <r_i_glide_ligand_efficiency>  (309) 
-0.200749

>  <r_i_glide_ligand_efficiency_sa>  (309) 
-0.505857

>  <r_i_glide_ligand_efficiency_ln>  (309) 
-0.851402

>  <r_i_glide_gscore>  (309) 
-3.21199

>  <r_i_glide_lipo>  (309) 
-0.0274133

>  <r_i_glide_hbond>  (309) 
0

>  <r_i_glide_metal>  (309) 
-0

>  <r_i_glide_rewards>  (309) 
-1.96924

>  <r_i_glide_evdw>  (309) 
-21.6397

>  <r_i_glide_ecoul>  (309) 
-2.16618

>  <r_i_glide_erotb>  (309) 
0.315045

>  <r_i_glide_esite>  (309) 
-0.123466

>  <r_i_glide_emodel>  (309) 
-30.2323

>  <r_i_glide_energy>  (309) 
-23.8059

>  <r_i_glide_einternal>  (309) 
1.07297

>  <r_i_glide_intrahb_reward>  (309) 
-0

>  <i_i_glide_confnum>  (309) 
4

>  <i_i_glide_posenum>  (309) 
4

>  <r_i_glide_eff_state_penalty>  (309) 
0

>  <ligand_id>  (309) 
76

>  <original_smiles>  (309) 
CCn1nc(-c2cccc3c2ncn3C)s1

>  <smiles>  (309) 
[H]c1c([H])c(-c2nn(C([H])([H])C([H])([H])[H])s2)c2c(c1[H])n(C([H])([H])[H])c([H])[n+]2[H]

$$$$
77:0:0
     RDKit          3D

 62 67  0  0  1  0  0  0  0  0999 V2000
    2.6739   -2.4963   -3.8642 C   0  0  0  0  0  0  0  0  0  0  0  0
    3.5050   -2.8001   -2.8601 C   0  0  0  0  0  0  0  0  0  0  0  0
    4.7061   -3.5759   -3.0728 C   0  0  0  0  0  0  0  0  0  0  0  0
    5.0237   -4.1638   -4.1017 O   0  0  0  0  0  0  0  0  0  0  0  0
    5.4071   -3.5372   -1.9275 O   0  0  0  0  0  0  0  0  0  0  0  0
    4.9635   -2.4884   -1.0740 C   0  0  1  0  0  0  0  0  0  0  0  0
    3.4761   -2.3651   -1.4342 C   0  0  2  0  0  0  0  0  0  0  0  0
    2.6012   -3.3238   -0.6152 C   0  0  0  0  0  0  0  0  0  0  0  0
    2.8759   -3.2300    0.8807 C   0  0  0  0  0  0  0  0  0  0  0  0
    4.3496   -3.5524    1.2075 C   0  0  2  0  0  0  0  0  0  0  0  0
    4.6258   -3.5409    2.7357 C   0  0  2  0  0  0  0  0  0  0  0  0
    3.8095   -4.5316    3.5643 C   0  0  0  0  0  0  0  0  0  0  0  0
    3.9926   -5.8544    3.6200 C   0  0  0  0  0  0  0  0  0  0  0  0
    3.2482   -6.3750    4.7316 C   0  0  0  0  0  0  0  0  0  0  0  0
    2.6248   -5.3815    5.3907 C   0  0  0  0  0  0  0  0  0  0  0  0
    1.7605   -5.5812    6.5912 C   0  0  0  0  0  0  0  0  0  0  0  0
    1.5547   -6.8654    7.1555 C   0  0  0  0  0  0  0  0  0  0  0  0
    0.7574   -7.1000    8.2254 N   0  0  0  0  0  0  0  0  0  0  0  0
    0.1171   -6.0501    8.7762 C   0  0  0  0  0  0  0  0  0  0  0  0
    0.2279   -4.7388    8.2939 C   0  0  0  0  0  0  0  0  0  0  0  0
   -0.4785   -3.7278    8.8573 F   0  0  0  0  0  0  0  0  0  0  0  0
    1.0832   -4.5048    7.2029 C   0  0  0  0  0  0  0  0  0  0  0  0
    2.8739   -4.0459    4.6728 C   0  0  2  0  0  0  0  0  0  0  0  0
    1.5513   -3.5256    4.0590 C   0  0  0  0  0  0  0  0  0  0  0  0
    3.6033   -2.9821    5.5562 C   0  0  0  0  0  0  0  0  0  0  0  0
    4.7327   -2.1828    4.8552 C   0  0  0  0  0  0  0  0  0  0  0  0
    4.5471   -2.1140    3.3316 C   0  0  1  0  0  0  0  0  0  0  0  0
    5.5206   -1.1693    2.6048 C   0  0  0  0  0  0  0  0  0  0  0  0
    5.2757   -1.1733    1.0818 C   0  0  1  0  0  0  0  0  0  0  0  0
    6.2102   -0.3053    0.4705 O   0  0  0  0  0  0  0  0  0  0  0  0
    5.3364   -2.6028    0.4395 C   0  0  2  0  0  0  0  0  0  0  0  0
    6.7838   -3.1559    0.5081 C   0  0  0  0  0  0  0  0  0  0  0  0
    1.8144   -1.8688   -3.7422 H   0  0  0  0  0  0  0  0  0  0  0  0
    2.8869   -2.9014   -4.8362 H   0  0  0  0  0  0  0  0  0  0  0  0
    5.4759   -1.6125   -1.4676 H   0  0  0  0  0  0  0  0  0  0  0  0
    3.1174   -1.3373   -1.3518 H   0  0  0  0  0  0  0  0  0  0  0  0
    1.5616   -3.0688   -0.8134 H   0  0  0  0  0  0  0  0  0  0  0  0
    2.7278   -4.3602   -0.9412 H   0  0  0  0  0  0  0  0  0  0  0  0
    2.5893   -2.2349    1.2242 H   0  0  0  0  0  0  0  0  0  0  0  0
    2.2179   -3.9358    1.3872 H   0  0  0  0  0  0  0  0  0  0  0  0
    4.5266   -4.5658    0.8468 H   0  0  0  0  0  0  0  0  0  0  0  0
    5.6463   -3.8979    2.8840 H   0  0  0  0  0  0  0  0  0  0  0  0
    4.6903   -6.4179    3.0145 H   0  0  0  0  0  0  0  0  0  0  0  0
    3.2230   -7.4255    4.9796 H   0  0  0  0  0  0  0  0  0  0  0  0
    2.0346   -7.7539    6.7721 H   0  0  0  0  0  0  0  0  0  0  0  0
   -0.5092   -6.2693    9.6291 H   0  0  0  0  0  0  0  0  0  0  0  0
    1.1847   -3.4867    6.8582 H   0  0  0  0  0  0  0  0  0  0  0  0
    1.1073   -4.3007    3.4367 H   0  0  0  0  0  0  0  0  0  0  0  0
    1.6947   -2.6460    3.4372 H   0  0  0  0  0  0  0  0  0  0  0  0
    0.8040   -3.2515    4.7993 H   0  0  0  0  0  0  0  0  0  0  0  0
    2.8668   -2.2788    5.9383 H   0  0  0  0  0  0  0  0  0  0  0  0
    4.0323   -3.4541    6.4432 H   0  0  0  0  0  0  0  0  0  0  0  0
    4.7809   -1.1742    5.2703 H   0  0  0  0  0  0  0  0  0  0  0  0
    5.6941   -2.6513    5.0687 H   0  0  0  0  0  0  0  0  0  0  0  0
    3.5660   -1.6869    3.1565 H   0  0  0  0  0  0  0  0  0  0  0  0
    5.4021   -0.1578    2.9958 H   0  0  0  0  0  0  0  0  0  0  0  0
    6.5510   -1.4487    2.8168 H   0  0  0  0  0  0  0  0  0  0  0  0
    4.2871   -0.7399    0.9078 H   0  0  0  0  0  0  0  0  0  0  0  0
    6.8049    0.0357    1.1321 H   0  0  0  0  0  0  0  0  0  0  0  0
    7.2157   -3.1151    1.5034 H   0  0  0  0  0  0  0  0  0  0  0  0
    7.4506   -2.5990   -0.1531 H   0  0  0  0  0  0  0  0  0  0  0  0
    6.8184   -4.1972    0.1878 H   0  0  0  0  0  0  0  0  0  0  0  0
  1  2  2  0
  1 33  1  0
  1 34  1  0
  2  7  1  0
  2  3  1  0
  3  4  2  0
  3  5  1  0
  5  6  1  0
  6 31  1  0
  6  7  1  0
  6 35  1  6
  7  8  1  0
  7 36  1  6
  8  9  1  0
  8 37  1  0
  8 38  1  0
  9 10  1  0
  9 39  1  0
  9 40  1  0
 10 31  1  0
 10 11  1  0
 10 41  1  6
 11 27  1  0
 11 12  1  0
 11 42  1  6
 12 23  1  0
 12 13  2  0
 13 14  1  0
 13 43  1  0
 14 15  2  0
 14 44  1  0
 15 16  1  0
 15 23  1  0
 16 22  1  0
 16 17  2  0
 17 18  1  0
 17 45  1  0
 18 19  2  0
 19 20  1  0
 19 46  1  0
 20 21  1  0
 20 22  2  0
 22 47  1  0
 23 24  1  6
 23 25  1  0
 24 48  1  0
 24 49  1  0
 24 50  1  0
 25 26  1  0
 25 51  1  0
 25 52  1  0
 26 27  1  0
 26 53  1  0
 26 54  1  0
 27 28  1  0
 27 55  1  1
 28 29  1  0
 28 56  1  0
 28 57  1  0
 29 30  1  0
 29 31  1  0
 29 58  1  1
 30 59  1  0
 31 32  1  6
 32 60  1  0
 32 61  1  0
 32 62  1  0
M  END
>  <i_m_ct_stereo_status>  (310) 
1

>  <s_m_source_file>  (310) 
/var/tmp/pbs.5076255.sched01/tmpegbcst3k/90u3quomt0.sdf

>  <i_m_source_file_index>  (310) 
30

>  <i_lp_mmshare_version>  (310) 
48012

>  <i_f3d_flags>  (310) 
0

>  <s_epik_input>  (310) 
Tz1DKE8xKUMoPVtDSDJdKVtDQEBIXShbQ0gyXVtDSDJdMilbQ0BIXTFbQ0BAXShbQ0gzXSkoW0NASF0oW09IXSlbQ0gyXVtDQEBIXTNbQ0gyXVtDSDJdNClbQ0BIXTJbQ0BASF0zQyhbQ0BdNDVbQ0gzXSk9W0NIXVtDSF09QzVjNltjSF1uW2NIXWMoRilbY0hdNg==

>  <s_epik_cmdline>  (310) 
J2VwaWtfcHl0aG9uJywgJy1waHQnLCAnMi4wJywgJy1waCcsICc3LjAnLCAnLXRuJywgJzgnLCAnLW1hJywgJzIwMCcsICctaW1hZScsICc8aW5maWxlLm1hZT4nLCAnLW9tYWUnLCAnPG91dGZpbGUubWFlPic=

>  <r_epik_Ionization_Penalty>  (310) 
0.000582845

>  <r_epik_Ionization_Penalty_Charging>  (310) 
0

>  <r_epik_Ionization_Penalty_Neutral>  (310) 
0.000582845

>  <r_epik_State_Penalty>  (310) 
0.000366279

>  <r_epik_Charging_Adjusted_Penalty>  (310) 
0.000366279

>  <i_epik_Tot_Q>  (310) 
0

>  <i_epik_Tot_abs_Q>  (310) 
0

>  <s_epik_Chemistry_Notes>  (310) 
This compound has an ester and may undergo hydrolysis at high or low pH.

>  <s_lp_Force_Field>  (310) 
OPLS3e

>  <r_lp_Energy>  (310) 
47.9801

>  <b_lp_Chiralities_Consistent>  (310) 
1

>  <s_lp_Variant>  (310) 
77:0-1

>  <s_i_glide_gridfile>  (310) 
pfpi4k_grid

>  <i_i_glide_lignum>  (310) 
30

>  <i_i_glide_rotatable_bonds>  (310) 
2

>  <r_i_docking_score>  (310) 
-3.39061

>  <r_i_glide_ligand_efficiency>  (310) 
-0.105957

>  <r_i_glide_ligand_efficiency_sa>  (310) 
-0.336391

>  <r_i_glide_ligand_efficiency_ln>  (310) 
-0.75925

>  <r_i_glide_gscore>  (310) 
-3.39061

>  <r_i_glide_lipo>  (310) 
-0.640486

>  <r_i_glide_hbond>  (310) 
-0.32

>  <r_i_glide_metal>  (310) 
-0

>  <r_i_glide_rewards>  (310) 
-0.554102

>  <r_i_glide_evdw>  (310) 
-27.329

>  <r_i_glide_ecoul>  (310) 
-3.76834

>  <r_i_glide_erotb>  (310) 
0.105042

>  <r_i_glide_esite>  (310) 
-0.0493589

>  <r_i_glide_emodel>  (310) 
-36.7588

>  <r_i_glide_energy>  (310) 
-31.0974

>  <r_i_glide_einternal>  (310) 
1.55841

>  <r_i_glide_intrahb_reward>  (310) 
-0

>  <i_i_glide_confnum>  (310) 
2

>  <i_i_glide_posenum>  (310) 
10

>  <r_i_glide_eff_state_penalty>  (310) 
0

>  <ligand_id>  (310) 
77

>  <original_smiles>  (310) 
C=C1C(=O)OC2C1CCC1C3C4=CC=C(c5cncc(F)c5)C4(C)CCC3CC(O)C12C

>  <smiles>  (310) 
[H]OC1([H])C([H])([H])C2([H])C([H])([H])C([H])([H])C3(C([H])([H])[H])C(c4c([H])nc([H])c(F)c4[H])=C([H])C([H])=C3C2([H])C2([H])C([H])([H])C([H])([H])C3([H])C(=C([H])[H])C(=O)OC3([H])C12C([H])([H])[H]

$$$$
77:0:1
     RDKit          3D

 62 67  0  0  1  0  0  0  0  0999 V2000
    0.0491   -9.4434    6.5942 C   0  0  0  0  0  0  0  0  0  0  0  0
    1.0592   -8.5614    6.5131 C   0  0  0  0  0  0  0  0  0  0  0  0
    1.4116   -7.6372    7.5864 C   0  0  0  0  0  0  0  0  0  0  0  0
    0.7375   -7.3576    8.5755 O   0  0  0  0  0  0  0  0  0  0  0  0
    2.6059   -7.1095    7.2727 O   0  0  0  0  0  0  0  0  0  0  0  0
    3.2536   -7.8210    6.2211 C   0  0  1  0  0  0  0  0  0  0  0  0
    2.0683   -8.3896    5.4188 C   0  0  2  0  0  0  0  0  0  0  0  0
    1.5433   -7.4054    4.3574 C   0  0  0  0  0  0  0  0  0  0  0  0
    2.6644   -6.8086    3.5092 C   0  0  0  0  0  0  0  0  0  0  0  0
    3.7314   -6.0840    4.3649 C   0  0  2  0  0  0  0  0  0  0  0  0
    4.8316   -5.4073    3.4930 C   0  0  2  0  0  0  0  0  0  0  0  0
    4.3455   -4.3458    2.5055 C   0  0  0  0  0  0  0  0  0  0  0  0
    3.9349   -3.1085    2.7994 C   0  0  0  0  0  0  0  0  0  0  0  0
    3.8455   -2.3504    1.5797 C   0  0  0  0  0  0  0  0  0  0  0  0
    4.2265   -3.0981    0.5261 C   0  0  0  0  0  0  0  0  0  0  0  0
    4.2754   -2.6026   -0.8840 C   0  0  0  0  0  0  0  0  0  0  0  0
    4.0496   -1.2410   -1.2073 C   0  0  0  0  0  0  0  0  0  0  0  0
    4.0490   -0.7537   -2.4729 N   0  0  0  0  0  0  0  0  0  0  0  0
    4.2128   -1.6194   -3.4880 C   0  0  0  0  0  0  0  0  0  0  0  0
    4.4453   -2.9887   -3.2847 C   0  0  0  0  0  0  0  0  0  0  0  0
    4.6117   -3.8340   -4.3247 F   0  0  0  0  0  0  0  0  0  0  0  0
    4.5057   -3.4763   -1.9676 C   0  0  0  0  0  0  0  0  0  0  0  0
    4.5552   -4.5251    1.0066 C   0  0  2  0  0  0  0  0  0  0  0  0
    3.5048   -5.5156    0.4576 C   0  0  0  0  0  0  0  0  0  0  0  0
    6.0268   -4.9645    0.7188 C   0  0  0  0  0  0  0  0  0  0  0  0
    6.7354   -5.7373    1.8663 C   0  0  0  0  0  0  0  0  0  0  0  0
    5.7410   -6.4494    2.7975 C   0  0  1  0  0  0  0  0  0  0  0  0
    6.3905   -7.3710    3.8421 C   0  0  0  0  0  0  0  0  0  0  0  0
    5.3211   -8.0490    4.7297 C   0  0  1  0  0  0  0  0  0  0  0  0
    5.9996   -8.8692    5.6592 O   0  0  0  0  0  0  0  0  0  0  0  0
    4.3617   -7.0355    5.4434 C   0  0  2  0  0  0  0  0  0  0  0  0
    5.1654   -6.2146    6.4905 C   0  0  0  0  0  0  0  0  0  0  0  0
   -0.1700  -10.1420    5.7983 H   0  0  0  0  0  0  0  0  0  0  0  0
   -0.5791   -9.4843    7.4720 H   0  0  0  0  0  0  0  0  0  0  0  0
    3.7414   -8.6540    6.7269 H   0  0  0  0  0  0  0  0  0  0  0  0
    2.3245   -9.3465    4.9644 H   0  0  0  0  0  0  0  0  0  0  0  0
    0.8282   -7.9183    3.7129 H   0  0  0  0  0  0  0  0  0  0  0  0
    0.9974   -6.5880    4.8316 H   0  0  0  0  0  0  0  0  0  0  0  0
    3.1065   -7.6008    2.9059 H   0  0  0  0  0  0  0  0  0  0  0  0
    2.2142   -6.1028    2.8134 H   0  0  0  0  0  0  0  0  0  0  0  0
    3.2102   -5.2907    4.9014 H   0  0  0  0  0  0  0  0  0  0  0  0
    5.4679   -4.8267    4.1634 H   0  0  0  0  0  0  0  0  0  0  0  0
    3.8037   -2.7101    3.7963 H   0  0  0  0  0  0  0  0  0  0  0  0
    3.5261   -1.3184    1.5476 H   0  0  0  0  0  0  0  0  0  0  0  0
    3.8756   -0.4947   -0.4442 H   0  0  0  0  0  0  0  0  0  0  0  0
    4.1898   -1.2071   -4.4867 H   0  0  0  0  0  0  0  0  0  0  0  0
    4.7219   -4.5259   -1.8339 H   0  0  0  0  0  0  0  0  0  0  0  0
    2.5005   -5.1692    0.6982 H   0  0  0  0  0  0  0  0  0  0  0  0
    3.6106   -6.5216    0.8574 H   0  0  0  0  0  0  0  0  0  0  0  0
    3.5607   -5.6114   -0.6208 H   0  0  0  0  0  0  0  0  0  0  0  0
    6.0367   -5.5821   -0.1777 H   0  0  0  0  0  0  0  0  0  0  0  0
    6.6436   -4.0984    0.4713 H   0  0  0  0  0  0  0  0  0  0  0  0
    7.4415   -6.4553    1.4482 H   0  0  0  0  0  0  0  0  0  0  0  0
    7.3293   -5.0481    2.4664 H   0  0  0  0  0  0  0  0  0  0  0  0
    5.1502   -7.1095    2.1718 H   0  0  0  0  0  0  0  0  0  0  0  0
    6.9748   -8.1387    3.3333 H   0  0  0  0  0  0  0  0  0  0  0  0
    7.1042   -6.8128    4.4491 H   0  0  0  0  0  0  0  0  0  0  0  0
    4.7365   -8.7171    4.0961 H   0  0  0  0  0  0  0  0  0  0  0  0
    5.3707   -9.4405    6.0818 H   0  0  0  0  0  0  0  0  0  0  0  0
    6.0685   -5.7624    6.0902 H   0  0  0  0  0  0  0  0  0  0  0  0
    5.4733   -6.8403    7.3275 H   0  0  0  0  0  0  0  0  0  0  0  0
    4.5617   -5.4073    6.9010 H   0  0  0  0  0  0  0  0  0  0  0  0
  1  2  2  0
  1 33  1  0
  1 34  1  0
  2  7  1  0
  2  3  1  0
  3  4  2  0
  3  5  1  0
  5  6  1  0
  6 31  1  0
  6  7  1  0
  6 35  1  1
  7  8  1  0
  7 36  1  6
  8  9  1  0
  8 37  1  0
  8 38  1  0
  9 10  1  0
  9 39  1  0
  9 40  1  0
 10 31  1  0
 10 11  1  0
 10 41  1  1
 11 27  1  0
 11 12  1  0
 11 42  1  1
 12 23  1  0
 12 13  2  0
 13 14  1  0
 13 43  1  0
 14 15  2  0
 14 44  1  0
 15 16  1  0
 15 23  1  0
 16 22  1  0
 16 17  2  0
 17 18  1  0
 17 45  1  0
 18 19  2  0
 19 20  1  0
 19 46  1  0
 20 21  1  0
 20 22  2  0
 22 47  1  0
 23 24  1  6
 23 25  1  0
 24 48  1  0
 24 49  1  0
 24 50  1  0
 25 26  1  0
 25 51  1  0
 25 52  1  0
 26 27  1  0
 26 53  1  0
 26 54  1  0
 27 28  1  0
 27 55  1  6
 28 29  1  0
 28 56  1  0
 28 57  1  0
 29 30  1  0
 29 31  1  0
 29 58  1  6
 30 59  1  0
 31 32  1  1
 32 60  1  0
 32 61  1  0
 32 62  1  0
M  END
>  <i_m_ct_stereo_status>  (311) 
1

>  <s_m_source_file>  (311) 
/var/tmp/pbs.5076255.sched01/tmpegbcst3k/90u3quomt0.sdf

>  <i_m_source_file_index>  (311) 
30

>  <i_lp_mmshare_version>  (311) 
48012

>  <i_f3d_flags>  (311) 
0

>  <s_epik_input>  (311) 
Tz1DKE8xKUMoPVtDSDJdKVtDQEBIXShbQ0gyXVtDSDJdMilbQ0BIXTFbQ0BAXShbQ0gzXSkoW0NASF0oW09IXSlbQ0gyXVtDQEBIXTNbQ0gyXVtDSDJdNClbQ0BIXTJbQ0BASF0zQyhbQ0BdNDVbQ0gzXSk9W0NIXVtDSF09QzVjNltjSF1uW2NIXWMoRilbY0hdNg==

>  <s_epik_cmdline>  (311) 
J2VwaWtfcHl0aG9uJywgJy1waHQnLCAnMi4wJywgJy1waCcsICc3LjAnLCAnLXRuJywgJzgnLCAnLW1hJywgJzIwMCcsICctaW1hZScsICc8aW5maWxlLm1hZT4nLCAnLW9tYWUnLCAnPG91dGZpbGUubWFlPic=

>  <r_epik_Ionization_Penalty>  (311) 
0.000582845

>  <r_epik_Ionization_Penalty_Charging>  (311) 
0

>  <r_epik_Ionization_Penalty_Neutral>  (311) 
0.000582845

>  <r_epik_State_Penalty>  (311) 
0.000366279

>  <r_epik_Charging_Adjusted_Penalty>  (311) 
0.000366279

>  <i_epik_Tot_Q>  (311) 
0

>  <i_epik_Tot_abs_Q>  (311) 
0

>  <s_epik_Chemistry_Notes>  (311) 
This compound has an ester and may undergo hydrolysis at high or low pH.

>  <s_lp_Force_Field>  (311) 
OPLS3e

>  <r_lp_Energy>  (311) 
47.9801

>  <b_lp_Chiralities_Consistent>  (311) 
1

>  <s_lp_Variant>  (311) 
77:0-1

>  <s_i_glide_gridfile>  (311) 
pfpi4k_grid

>  <i_i_glide_lignum>  (311) 
30

>  <i_i_glide_rotatable_bonds>  (311) 
2

>  <r_i_docking_score>  (311) 
-2.73811

>  <r_i_glide_ligand_efficiency>  (311) 
-0.085566

>  <r_i_glide_ligand_efficiency_sa>  (311) 
-0.271655

>  <r_i_glide_ligand_efficiency_ln>  (311) 
-0.613138

>  <r_i_glide_gscore>  (311) 
-2.73811

>  <r_i_glide_lipo>  (311) 
-0.536573

>  <r_i_glide_hbond>  (311) 
0

>  <r_i_glide_metal>  (311) 
-0

>  <r_i_glide_rewards>  (311) 
-0.439565

>  <r_i_glide_evdw>  (311) 
-28.3571

>  <r_i_glide_ecoul>  (311) 
-2.70601

>  <r_i_glide_erotb>  (311) 
0.105042

>  <r_i_glide_esite>  (311) 
-0.0432581

>  <r_i_glide_emodel>  (311) 
-35.847

>  <r_i_glide_energy>  (311) 
-31.0631

>  <r_i_glide_einternal>  (311) 
0.712308

>  <r_i_glide_intrahb_reward>  (311) 
-0

>  <i_i_glide_confnum>  (311) 
2

>  <i_i_glide_posenum>  (311) 
23

>  <r_i_glide_eff_state_penalty>  (311) 
0

>  <ligand_id>  (311) 
77

>  <original_smiles>  (311) 
C=C1C(=O)OC2C1CCC1C3C4=CC=C(c5cncc(F)c5)C4(C)CCC3CC(O)C12C

>  <smiles>  (311) 
[H]OC1([H])C([H])([H])C2([H])C([H])([H])C([H])([H])C3(C([H])([H])[H])C(c4c([H])nc([H])c(F)c4[H])=C([H])C([H])=C3C2([H])C2([H])C([H])([H])C([H])([H])C3([H])C(=C([H])[H])C(=O)OC3([H])C12C([H])([H])[H]

$$$$
77:0:2
     RDKit          3D

 62 67  0  0  1  0  0  0  0  0999 V2000
    0.0182   -9.4509    6.7219 C   0  0  0  0  0  0  0  0  0  0  0  0
    1.0122   -8.5538    6.6298 C   0  0  0  0  0  0  0  0  0  0  0  0
    1.3353   -7.5922    7.6827 C   0  0  0  0  0  0  0  0  0  0  0  0
    0.6376   -7.2944    8.6501 O   0  0  0  0  0  0  0  0  0  0  0  0
    2.5235   -7.0562    7.3723 O   0  0  0  0  0  0  0  0  0  0  0  0
    3.2060   -7.7841    6.3543 C   0  0  1  0  0  0  0  0  0  0  0  0
    2.0427   -8.3953    5.5507 C   0  0  2  0  0  0  0  0  0  0  0  0
    1.5154   -7.4523    4.4516 C   0  0  0  0  0  0  0  0  0  0  0  0
    2.6410   -6.8599    3.6031 C   0  0  0  0  0  0  0  0  0  0  0  0
    3.6797   -6.0940    4.4578 C   0  0  2  0  0  0  0  0  0  0  0  0
    4.7805   -5.4230    3.5826 C   0  0  2  0  0  0  0  0  0  0  0  0
    4.2886   -4.4028    2.5542 C   0  0  0  0  0  0  0  0  0  0  0  0
    3.8536   -3.1648    2.8081 C   0  0  0  0  0  0  0  0  0  0  0  0
    3.7807   -2.4393    1.5693 C   0  0  0  0  0  0  0  0  0  0  0  0
    4.2018   -3.2060    0.5461 C   0  0  0  0  0  0  0  0  0  0  0  0
    4.2376   -2.7601   -0.8802 C   0  0  0  0  0  0  0  0  0  0  0  0
    3.8251   -1.4598   -1.2641 C   0  0  0  0  0  0  0  0  0  0  0  0
    3.8309   -1.0124   -2.5413 N   0  0  0  0  0  0  0  0  0  0  0  0
    4.2022   -1.8647   -3.5114 C   0  0  0  0  0  0  0  0  0  0  0  0
    4.6203   -3.1799   -3.2560 C   0  0  0  0  0  0  0  0  0  0  0  0
    4.9859   -3.9965   -4.2725 F   0  0  0  0  0  0  0  0  0  0  0  0
    4.6561   -3.6239   -1.9192 C   0  0  0  0  0  0  0  0  0  0  0  0
    4.5424   -4.6147    1.0659 C   0  0  2  0  0  0  0  0  0  0  0  0
    3.5276   -5.6263    0.4960 C   0  0  0  0  0  0  0  0  0  0  0  0
    6.0243   -5.0368    0.8217 C   0  0  0  0  0  0  0  0  0  0  0  0
    6.7189   -5.7689    2.0007 C   0  0  0  0  0  0  0  0  0  0  0  0
    5.7192   -6.4685    2.9354 C   0  0  1  0  0  0  0  0  0  0  0  0
    6.3720   -7.3448    4.0166 C   0  0  0  0  0  0  0  0  0  0  0  0
    5.3012   -8.0163    4.9081 C   0  0  1  0  0  0  0  0  0  0  0  0
    5.9627   -8.8167    5.8670 O   0  0  0  0  0  0  0  0  0  0  0  0
    4.3104   -7.0013    5.5723 C   0  0  2  0  0  0  0  0  0  0  0  0
    5.0795   -6.1349    6.6098 C   0  0  0  0  0  0  0  0  0  0  0  0
   -0.1763  -10.1765    5.9432 H   0  0  0  0  0  0  0  0  0  0  0  0
   -0.6262   -9.4725    7.5884 H   0  0  0  0  0  0  0  0  0  0  0  0
    3.6975   -8.5956    6.8896 H   0  0  0  0  0  0  0  0  0  0  0  0
    2.3192   -9.3618    5.1278 H   0  0  0  0  0  0  0  0  0  0  0  0
    0.8203   -7.9962    3.8093 H   0  0  0  0  0  0  0  0  0  0  0  0
    0.9468   -6.6307    4.8911 H   0  0  0  0  0  0  0  0  0  0  0  0
    3.1066   -7.6619    3.0316 H   0  0  0  0  0  0  0  0  0  0  0  0
    2.1918   -6.1836    2.8775 H   0  0  0  0  0  0  0  0  0  0  0  0
    3.1354   -5.2938    4.9598 H   0  0  0  0  0  0  0  0  0  0  0  0
    5.3942   -4.8089    4.2427 H   0  0  0  0  0  0  0  0  0  0  0  0
    3.7015   -2.7396    3.7897 H   0  0  0  0  0  0  0  0  0  0  0  0
    3.4350   -1.4179    1.5018 H   0  0  0  0  0  0  0  0  0  0  0  0
    3.4913   -0.7271   -0.5463 H   0  0  0  0  0  0  0  0  0  0  0  0
    4.1870   -1.4816   -4.5209 H   0  0  0  0  0  0  0  0  0  0  0  0
    4.9996   -4.6256   -1.7320 H   0  0  0  0  0  0  0  0  0  0  0  0
    2.5095   -5.2977    0.6972 H   0  0  0  0  0  0  0  0  0  0  0  0
    3.6434   -6.6265    0.9044 H   0  0  0  0  0  0  0  0  0  0  0  0
    3.6209   -5.7293   -0.5765 H   0  0  0  0  0  0  0  0  0  0  0  0
    6.0634   -5.6891   -0.0482 H   0  0  0  0  0  0  0  0  0  0  0  0
    6.6301   -4.1696    0.5575 H   0  0  0  0  0  0  0  0  0  0  0  0
    7.4445   -6.4836    1.6153 H   0  0  0  0  0  0  0  0  0  0  0  0
    7.2932   -5.0560    2.5896 H   0  0  0  0  0  0  0  0  0  0  0  0
    5.1498   -7.1541    2.3157 H   0  0  0  0  0  0  0  0  0  0  0  0
    6.9759   -8.1164    3.5370 H   0  0  0  0  0  0  0  0  0  0  0  0
    7.0678   -6.7514    4.6118 H   0  0  0  0  0  0  0  0  0  0  0  0
    4.7354   -8.7068    4.2841 H   0  0  0  0  0  0  0  0  0  0  0  0
    6.4850   -8.2594    6.4243 H   0  0  0  0  0  0  0  0  0  0  0  0
    5.9811   -5.6747    6.2114 H   0  0  0  0  0  0  0  0  0  0  0  0
    5.3795   -6.7271    7.4733 H   0  0  0  0  0  0  0  0  0  0  0  0
    4.4527   -5.3261    6.9830 H   0  0  0  0  0  0  0  0  0  0  0  0
  1  2  2  0
  1 33  1  0
  1 34  1  0
  2  7  1  0
  2  3  1  0
  3  4  2  0
  3  5  1  0
  5  6  1  0
  6 31  1  0
  6  7  1  0
  6 35  1  1
  7  8  1  0
  7 36  1  6
  8  9  1  0
  8 37  1  0
  8 38  1  0
  9 10  1  0
  9 39  1  0
  9 40  1  0
 10 31  1  0
 10 11  1  0
 10 41  1  1
 11 27  1  0
 11 12  1  0
 11 42  1  1
 12 23  1  0
 12 13  2  0
 13 14  1  0
 13 43  1  0
 14 15  2  0
 14 44  1  0
 15 16  1  0
 15 23  1  0
 16 22  1  0
 16 17  2  0
 17 18  1  0
 17 45  1  0
 18 19  2  0
 19 20  1  0
 19 46  1  0
 20 21  1  0
 20 22  2  0
 22 47  1  0
 23 24  1  6
 23 25  1  0
 24 48  1  0
 24 49  1  0
 24 50  1  0
 25 26  1  0
 25 51  1  0
 25 52  1  0
 26 27  1  0
 26 53  1  0
 26 54  1  0
 27 28  1  0
 27 55  1  6
 28 29  1  0
 28 56  1  0
 28 57  1  0
 29 30  1  0
 29 31  1  0
 29 58  1  6
 30 59  1  0
 31 32  1  1
 32 60  1  0
 32 61  1  0
 32 62  1  0
M  END
>  <i_m_ct_stereo_status>  (312) 
1

>  <s_m_source_file>  (312) 
/var/tmp/pbs.5076255.sched01/tmpegbcst3k/90u3quomt0.sdf

>  <i_m_source_file_index>  (312) 
30

>  <i_lp_mmshare_version>  (312) 
48012

>  <i_f3d_flags>  (312) 
0

>  <s_epik_input>  (312) 
Tz1DKE8xKUMoPVtDSDJdKVtDQEBIXShbQ0gyXVtDSDJdMilbQ0BIXTFbQ0BAXShbQ0gzXSkoW0NASF0oW09IXSlbQ0gyXVtDQEBIXTNbQ0gyXVtDSDJdNClbQ0BIXTJbQ0BASF0zQyhbQ0BdNDVbQ0gzXSk9W0NIXVtDSF09QzVjNltjSF1uW2NIXWMoRilbY0hdNg==

>  <s_epik_cmdline>  (312) 
J2VwaWtfcHl0aG9uJywgJy1waHQnLCAnMi4wJywgJy1waCcsICc3LjAnLCAnLXRuJywgJzgnLCAnLW1hJywgJzIwMCcsICctaW1hZScsICc8aW5maWxlLm1hZT4nLCAnLW9tYWUnLCAnPG91dGZpbGUubWFlPic=

>  <r_epik_Ionization_Penalty>  (312) 
0.000582845

>  <r_epik_Ionization_Penalty_Charging>  (312) 
0

>  <r_epik_Ionization_Penalty_Neutral>  (312) 
0.000582845

>  <r_epik_State_Penalty>  (312) 
0.000366279

>  <r_epik_Charging_Adjusted_Penalty>  (312) 
0.000366279

>  <i_epik_Tot_Q>  (312) 
0

>  <i_epik_Tot_abs_Q>  (312) 
0

>  <s_epik_Chemistry_Notes>  (312) 
This compound has an ester and may undergo hydrolysis at high or low pH.

>  <s_lp_Force_Field>  (312) 
OPLS3e

>  <r_lp_Energy>  (312) 
47.9801

>  <b_lp_Chiralities_Consistent>  (312) 
1

>  <s_lp_Variant>  (312) 
77:0-1

>  <s_i_glide_gridfile>  (312) 
pfpi4k_grid

>  <i_i_glide_lignum>  (312) 
30

>  <i_i_glide_rotatable_bonds>  (312) 
2

>  <r_i_docking_score>  (312) 
-2.67216

>  <r_i_glide_ligand_efficiency>  (312) 
-0.0835051

>  <r_i_glide_ligand_efficiency_sa>  (312) 
-0.265112

>  <r_i_glide_ligand_efficiency_ln>  (312) 
-0.59837

>  <r_i_glide_gscore>  (312) 
-2.67216

>  <r_i_glide_lipo>  (312) 
-0.556605

>  <r_i_glide_hbond>  (312) 
0

>  <r_i_glide_metal>  (312) 
-0

>  <r_i_glide_rewards>  (312) 
-0.439565

>  <r_i_glide_evdw>  (312) 
-28.4005

>  <r_i_glide_ecoul>  (312) 
-2.17256

>  <r_i_glide_erotb>  (312) 
0.105042

>  <r_i_glide_esite>  (312) 
-0.0351269

>  <r_i_glide_emodel>  (312) 
-35.684

>  <r_i_glide_energy>  (312) 
-30.573

>  <r_i_glide_einternal>  (312) 
0.0840473

>  <r_i_glide_intrahb_reward>  (312) 
-0

>  <i_i_glide_confnum>  (312) 
2

>  <i_i_glide_posenum>  (312) 
33

>  <r_i_glide_eff_state_penalty>  (312) 
0

>  <ligand_id>  (312) 
77

>  <original_smiles>  (312) 
C=C1C(=O)OC2C1CCC1C3C4=CC=C(c5cncc(F)c5)C4(C)CCC3CC(O)C12C

>  <smiles>  (312) 
[H]OC1([H])C([H])([H])C2([H])C([H])([H])C([H])([H])C3(C([H])([H])[H])C(c4c([H])nc([H])c(F)c4[H])=C([H])C([H])=C3C2([H])C2([H])C([H])([H])C([H])([H])C3([H])C(=C([H])[H])C(=O)OC3([H])C12C([H])([H])[H]

$$$$
78:0:0
     RDKit          3D

 77 82  0  0  1  0  0  0  0  0999 V2000
    1.4576   -3.9511   -1.5325 C   0  0  0  0  0  0  0  0  0  0  0  0
    2.1337   -4.2887   -0.3195 O   0  0  0  0  0  0  0  0  0  0  0  0
    2.7082   -3.2054    0.4102 C   0  0  2  0  0  0  0  0  0  0  0  0
    3.6831   -2.4143   -0.4937 C   0  0  0  0  0  0  0  0  0  0  0  0
    4.3462   -1.2550    0.2396 C   0  0  0  0  0  0  0  0  0  0  0  0
    5.0434   -1.6380    1.5665 C   0  0  0  0  0  0  0  0  0  0  0  0
    6.3369   -2.4176    1.2769 C   0  0  0  0  0  0  0  0  0  0  0  0
    5.4166   -0.2786    2.2025 C   0  0  0  0  0  0  0  0  0  0  0  0
    4.0147   -2.4403    2.4430 C   0  0  2  0  0  0  0  0  0  0  0  0
    4.2793   -2.7059    3.9634 C   0  0  1  0  0  0  0  0  0  0  0  0
    5.3744   -2.0241    4.5251 O   0  0  0  0  0  0  0  0  0  0  0  0
    3.1038   -2.6331    5.0385 C   0  0  1  0  0  0  0  0  0  0  0  0
    2.7797   -1.2587    5.1840 O   0  0  0  0  0  0  0  0  0  0  0  0
    1.7429   -3.4408    4.8859 C   0  0  1  0  0  0  0  0  0  0  0  0
    1.3855   -3.5294    3.4376 C   0  0  1  0  0  0  0  0  0  0  0  0
    1.0250   -2.2638    2.9173 O   0  0  0  0  0  0  0  0  0  0  0  0
    2.4679   -4.4157    2.7623 C   0  0  2  0  0  0  0  0  0  0  0  0
    2.9762   -5.7428    3.5910 C   0  0  2  0  0  0  0  0  0  0  0  0
    1.7865   -5.9125    4.3741 O   0  0  0  0  0  0  0  0  0  0  0  0
    1.5283   -4.9175    5.4169 C   0  0  0  0  0  0  0  0  0  0  0  0
    2.1968   -5.1785    6.7905 C   0  0  0  0  0  0  0  0  0  0  0  0
    0.0277   -5.2097    5.6881 C   0  0  0  0  0  0  0  0  0  0  0  0
    4.0593   -6.2130    4.6432 C   0  0  0  0  0  0  0  0  0  0  0  0
    5.2675   -5.4547    5.2002 C   0  0  0  0  0  0  0  0  0  0  0  0
    3.9900   -7.5403    4.9582 C   0  0  0  0  0  0  0  0  0  0  0  0
    3.1631   -8.5830    4.1641 C   0  0  1  0  0  0  0  0  0  0  0  0
    1.8122   -8.8596    4.7372 C   0  0  0  0  0  0  0  0  0  0  0  0
    0.8689   -8.6060    3.8288 C   0  0  0  0  0  0  0  0  0  0  0  0
   -0.6345   -8.7169    3.9319 C   0  0  0  0  0  0  0  0  0  0  0  0
    1.3580   -8.1520    2.6380 O   0  0  0  0  0  0  0  0  0  0  0  0
    2.7914   -8.1400    2.7035 C   0  0  1  0  0  0  0  0  0  0  0  0
    3.3621   -6.7383    2.4582 C   0  0  1  0  0  0  0  0  0  0  0  0
    3.5394   -6.1490    1.1760 O   0  0  0  0  0  0  0  0  0  0  0  0
    4.3138   -4.9237    1.2872 C   0  0  0  0  0  0  0  0  0  0  0  0
    3.4044   -3.7270    1.7299 C   0  0  1  0  0  0  0  0  0  0  0  0
    0.9015   -4.8204   -1.8735 H   0  0  0  0  0  0  0  0  0  0  0  0
    2.1622   -3.7023   -2.3269 H   0  0  0  0  0  0  0  0  0  0  0  0
    0.7563   -3.1222   -1.4365 H   0  0  0  0  0  0  0  0  0  0  0  0
    1.8964   -2.5274    0.6603 H   0  0  0  0  0  0  0  0  0  0  0  0
    4.4220   -3.0724   -0.9441 H   0  0  0  0  0  0  0  0  0  0  0  0
    3.1426   -1.9638   -1.3247 H   0  0  0  0  0  0  0  0  0  0  0  0
    5.0561   -0.7771   -0.4330 H   0  0  0  0  0  0  0  0  0  0  0  0
    3.5773   -0.5042    0.4377 H   0  0  0  0  0  0  0  0  0  0  0  0
    6.6495   -2.9461    2.1709 H   0  0  0  0  0  0  0  0  0  0  0  0
    7.1408   -1.7524    0.9522 H   0  0  0  0  0  0  0  0  0  0  0  0
    6.2153   -3.1620    0.4927 H   0  0  0  0  0  0  0  0  0  0  0  0
    6.2163   -0.3595    2.9367 H   0  0  0  0  0  0  0  0  0  0  0  0
    4.5540    0.1940    2.6749 H   0  0  0  0  0  0  0  0  0  0  0  0
    5.7816    0.3942    1.4303 H   0  0  0  0  0  0  0  0  0  0  0  0
    3.2364   -1.6905    2.4726 H   0  0  0  0  0  0  0  0  0  0  0  0
    4.6444   -3.6938    3.8700 H   0  0  0  0  0  0  0  0  0  0  0  0
    5.1250   -1.1090    4.5896 H   0  0  0  0  0  0  0  0  0  0  0  0
    3.5108   -2.8908    6.0147 H   0  0  0  0  0  0  0  0  0  0  0  0
    2.3754   -0.9334    4.3854 H   0  0  0  0  0  0  0  0  0  0  0  0
    0.9776   -2.8535    5.3955 H   0  0  0  0  0  0  0  0  0  0  0  0
    0.4525   -4.0739    3.3424 H   0  0  0  0  0  0  0  0  0  0  0  0
    1.8051   -1.7658    2.7375 H   0  0  0  0  0  0  0  0  0  0  0  0
    1.7794   -4.9121    2.0768 H   0  0  0  0  0  0  0  0  0  0  0  0
    3.2467   -4.9244    6.8311 H   0  0  0  0  0  0  0  0  0  0  0  0
    2.1058   -6.2260    7.0879 H   0  0  0  0  0  0  0  0  0  0  0  0
    1.7208   -4.5778    7.5653 H   0  0  0  0  0  0  0  0  0  0  0  0
   -0.4142   -4.4758    6.3653 H   0  0  0  0  0  0  0  0  0  0  0  0
   -0.0956   -6.1963    6.1475 H   0  0  0  0  0  0  0  0  0  0  0  0
   -0.5765   -5.2337    4.7790 H   0  0  0  0  0  0  0  0  0  0  0  0
    5.0199   -4.5586    5.7555 H   0  0  0  0  0  0  0  0  0  0  0  0
    5.9689   -5.2092    4.4042 H   0  0  0  0  0  0  0  0  0  0  0  0
    5.8294   -6.0741    5.8942 H   0  0  0  0  0  0  0  0  0  0  0  0
    4.7013   -7.9736    5.6459 H   0  0  0  0  0  0  0  0  0  0  0  0
    3.7268   -9.5174    4.1447 H   0  0  0  0  0  0  0  0  0  0  0  0
    1.6527   -9.2356    5.7364 H   0  0  0  0  0  0  0  0  0  0  0  0
   -0.9594   -9.0528    4.9169 H   0  0  0  0  0  0  0  0  0  0  0  0
   -0.9977   -9.4211    3.1833 H   0  0  0  0  0  0  0  0  0  0  0  0
   -1.0832   -7.7424    3.7351 H   0  0  0  0  0  0  0  0  0  0  0  0
    3.1835   -8.8627    1.9840 H   0  0  0  0  0  0  0  0  0  0  0  0
    4.4266   -6.9795    2.5394 H   0  0  0  0  0  0  0  0  0  0  0  0
    5.1661   -5.0514    1.9585 H   0  0  0  0  0  0  0  0  0  0  0  0
    4.7471   -4.7710    0.3028 H   0  0  0  0  0  0  0  0  0  0  0  0
  1  2  1  0
  1 36  1  0
  1 37  1  0
  1 38  1  0
  2  3  1  0
  3 35  1  0
  3  4  1  0
  3 39  1  1
  4  5  1  0
  4 40  1  0
  4 41  1  0
  5  6  1  0
  5 42  1  0
  5 43  1  0
  6  7  1  0
  6  8  1  0
  6  9  1  0
  7 44  1  0
  7 45  1  0
  7 46  1  0
  8 47  1  0
  8 48  1  0
  8 49  1  0
  9 35  1  0
  9 10  1  0
  9 50  1  1
 10 11  1  0
 10 12  1  0
 10 51  1  6
 11 52  1  0
 12 13  1  0
 12 14  1  0
 12 53  1  1
 13 54  1  0
 14 20  1  0
 14 15  1  0
 14 55  1  1
 15 16  1  0
 15 17  1  0
 15 56  1  1
 16 57  1  0
 17 35  1  0
 17 18  1  0
 17 58  1  6
 18 32  1  0
 18 19  1  1
 18 23  1  0
 19 20  1  0
 20 21  1  0
 20 22  1  0
 21 59  1  0
 21 60  1  0
 21 61  1  0
 22 62  1  0
 22 63  1  0
 22 64  1  0
 23 24  1  0
 23 25  2  0
 24 65  1  0
 24 66  1  0
 24 67  1  0
 25 26  1  0
 25 68  1  0
 26 31  1  0
 26 27  1  0
 26 69  1  6
 27 28  2  0
 27 70  1  0
 28 29  1  0
 28 30  1  0
 29 71  1  0
 29 72  1  0
 29 73  1  0
 30 31  1  0
 31 32  1  0
 31 74  1  6
 32 33  1  0
 32 75  1  1
 33 34  1  0
 35 34  1  6
 34 76  1  0
 34 77  1  0
M  END
>  <i_m_ct_stereo_status>  (313) 
1

>  <s_m_source_file>  (313) 
/var/tmp/pbs.5076255.sched01/tmpegbcst3k/90u3quomt0.sdf

>  <i_m_source_file_index>  (313) 
31

>  <i_lp_mmshare_version>  (313) 
48012

>  <i_f3d_flags>  (313) 
0

>  <s_epik_input>  (313) 
W0NIM11PW0NAQEhdMVtDSDJdW0NIMl1DKFtDSDNdKShbQ0gzXSlbQ0BIXShbQ0BASF0oW09IXSlbQ0BASF0oW09IXSlbQ0BASF0oW0NASF0yW09IXSlDKE8zKShbQ0gzXSlbQ0gzXSlbQ0BdMShbQ0BASF0yW0NAXTM0NSlbQ0gyXU9bQ0BASF01W0NASF02W0NAQEhdKFtDSF09QzRbQ0gzXSlbQ0hdPUMoTzYpW0NIM10=

>  <s_epik_cmdline>  (313) 
J2VwaWtfcHl0aG9uJywgJy1waHQnLCAnMi4wJywgJy1waCcsICc3LjAnLCAnLXRuJywgJzgnLCAnLW1hJywgJzIwMCcsICctaW1hZScsICc8aW5maWxlLm1hZT4nLCAnLW9tYWUnLCAnPG91dGZpbGUubWFlPic=

>  <r_lp_tautomer_probability>  (313) 
1

>  <r_epik_Ionization_Penalty>  (313) 
4.33953e-07

>  <r_epik_Ionization_Penalty_Charging>  (313) 
0

>  <r_epik_Ionization_Penalty_Neutral>  (313) 
4.33953e-07

>  <r_epik_State_Penalty>  (313) 
-0

>  <r_epik_Charging_Adjusted_Penalty>  (313) 
0

>  <i_epik_Tot_Q>  (313) 
0

>  <i_epik_Tot_abs_Q>  (313) 
0

>  <s_lp_Force_Field>  (313) 
OPLS3e

>  <r_lp_Energy>  (313) 
152.021

>  <b_lp_Chiralities_Consistent>  (313) 
1

>  <s_lp_Variant>  (313) 
78:0-1

>  <s_i_glide_gridfile>  (313) 
pfpi4k_grid

>  <i_i_glide_lignum>  (313) 
31

>  <i_i_glide_rotatable_bonds>  (313) 
4

>  <r_i_docking_score>  (313) 
-1.27496

>  <r_i_glide_ligand_efficiency>  (313) 
-0.0364275

>  <r_i_glide_ligand_efficiency_sa>  (313) 
-0.119157

>  <r_i_glide_ligand_efficiency_ln>  (313) 
-0.279882

>  <r_i_glide_gscore>  (313) 
-1.27496

>  <r_i_glide_lipo>  (313) 
-0.322649

>  <r_i_glide_hbond>  (313) 
-8.7701e-05

>  <r_i_glide_metal>  (313) 
-0

>  <r_i_glide_rewards>  (313) 
-0.063894

>  <r_i_glide_evdw>  (313) 
-19.4384

>  <r_i_glide_ecoul>  (313) 
0.557257

>  <r_i_glide_erotb>  (313) 
0

>  <r_i_glide_esite>  (313) 
0

>  <r_i_glide_emodel>  (313) 
-19.4912

>  <r_i_glide_energy>  (313) 
-18.8811

>  <r_i_glide_einternal>  (313) 
0.827281

>  <r_i_glide_intrahb_reward>  (313) 
-0

>  <i_i_glide_confnum>  (313) 
2

>  <i_i_glide_posenum>  (313) 
40

>  <r_i_glide_eff_state_penalty>  (313) 
0

>  <ligand_id>  (313) 
78

>  <original_smiles>  (313) 
COC1CCC(C)(C)C2C(O)C(O)C3C(O)C4C5(OC3(C)C)C(C)=CC3C=C(C)OC3C5OCC124

>  <smiles>  (313) 
[H]OC1([H])C([H])(O[H])C2([H])C(C([H])([H])[H])(C([H])([H])[H])C([H])([H])C([H])([H])C([H])(OC([H])([H])[H])C23C([H])([H])OC2([H])C4([H])OC(C([H])([H])[H])=C([H])C4([H])C([H])=C(C([H])([H])[H])C24OC(C([H])([H])[H])(C([H])([H])[H])C1([H])C([H])(O[H])C43[H]

$$$$
78:0:1
     RDKit          3D

 77 82  0  0  1  0  0  0  0  0999 V2000
    0.8952   -4.2349   -1.6114 C   0  0  0  0  0  0  0  0  0  0  0  0
    1.8543   -4.5440   -0.6462 O   0  0  0  0  0  0  0  0  0  0  0  0
    2.5650   -3.4222   -0.1772 C   0  0  2  0  0  0  0  0  0  0  0  0
    3.1259   -2.5409   -1.3304 C   0  0  0  0  0  0  0  0  0  0  0  0
    3.8302   -1.3206   -0.7780 C   0  0  0  0  0  0  0  0  0  0  0  0
    4.9004   -1.6447    0.2728 C   0  0  0  0  0  0  0  0  0  0  0  0
    6.1497   -2.2513   -0.4023 C   0  0  0  0  0  0  0  0  0  0  0  0
    5.2703   -0.2429    0.8354 C   0  0  0  0  0  0  0  0  0  0  0  0
    4.2391   -2.5675    1.3619 C   0  0  2  0  0  0  0  0  0  0  0  0
    4.9676   -2.8310    2.7016 C   0  0  1  0  0  0  0  0  0  0  0  0
    5.9905   -1.9334    2.9094 O   0  0  0  0  0  0  0  0  0  0  0  0
    4.2005   -2.8997    4.0908 C   0  0  1  0  0  0  0  0  0  0  0  0
    3.8128   -1.5624    4.3936 O   0  0  0  0  0  0  0  0  0  0  0  0
    2.9645   -3.8633    4.3338 C   0  0  1  0  0  0  0  0  0  0  0  0
    2.1987   -3.9856    3.0591 C   0  0  1  0  0  0  0  0  0  0  0  0
    1.5324   -2.7672    2.7736 O   0  0  0  0  0  0  0  0  0  0  0  0
    3.1248   -4.7151    2.0396 C   0  0  2  0  0  0  0  0  0  0  0  0
    4.0044   -5.9868    2.6099 C   0  0  2  0  0  0  0  0  0  0  0  0
    3.1287   -6.3013    3.6986 O   0  0  0  0  0  0  0  0  0  0  0  0
    3.0954   -5.3586    4.8225 C   0  0  0  0  0  0  0  0  0  0  0  0
    4.1651   -5.5576    5.9206 C   0  0  0  0  0  0  0  0  0  0  0  0
    1.7891   -5.8290    5.5117 C   0  0  0  0  0  0  0  0  0  0  0  0
    5.3964   -6.3475    3.2682 C   0  0  0  0  0  0  0  0  0  0  0  0
    6.6221   -5.4707    3.4747 C   0  0  0  0  0  0  0  0  0  0  0  0
    5.5781   -7.6804    3.5142 C   0  0  0  0  0  0  0  0  0  0  0  0
    4.6723   -8.7936    2.9512 C   0  0  1  0  0  0  0  0  0  0  0  0
    3.5905   -9.2250    3.8812 C   0  0  0  0  0  0  0  0  0  0  0  0
    2.4077   -9.0762    3.3135 C   0  0  0  0  0  0  0  0  0  0  0  0
    1.0258   -9.3786    3.8563 C   0  0  0  0  0  0  0  0  0  0  0  0
    2.4574   -8.5565    2.0471 O   0  0  0  0  0  0  0  0  0  0  0  0
    3.8335   -8.3719    1.6915 C   0  0  1  0  0  0  0  0  0  0  0  0
    4.1479   -6.9056    1.3604 C   0  0  1  0  0  0  0  0  0  0  0  0
    3.8703   -6.2740    0.1205 O   0  0  0  0  0  0  0  0  0  0  0  0
    4.5118   -4.9716    0.0620 C   0  0  0  0  0  0  0  0  0  0  0  0
    3.6483   -3.9070    0.8200 C   0  0  1  0  0  0  0  0  0  0  0  0
    0.4287   -5.1862   -1.8207 H   0  0  0  0  0  0  0  0  0  0  0  0
    1.3806   -3.8828   -2.5175 H   0  0  0  0  0  0  0  0  0  0  0  0
    0.1387   -3.4802   -1.3899 H   0  0  0  0  0  0  0  0  0  0  0  0
    1.8378   -2.8039    0.3419 H   0  0  0  0  0  0  0  0  0  0  0  0
    3.7500   -3.1064   -2.0225 H   0  0  0  0  0  0  0  0  0  0  0  0
    2.3294   -2.1259   -1.9427 H   0  0  0  0  0  0  0  0  0  0  0  0
    4.2475   -0.7418   -1.6058 H   0  0  0  0  0  0  0  0  0  0  0  0
    3.0613   -0.6725   -0.3266 H   0  0  0  0  0  0  0  0  0  0  0  0
    6.8227   -2.7016    0.3187 H   0  0  0  0  0  0  0  0  0  0  0  0
    6.6951   -1.4764   -0.9341 H   0  0  0  0  0  0  0  0  0  0  0  0
    5.8974   -2.9989   -1.1474 H   0  0  0  0  0  0  0  0  0  0  0  0
    6.2667   -0.2619    1.2699 H   0  0  0  0  0  0  0  0  0  0  0  0
    4.5497    0.0785    1.5986 H   0  0  0  0  0  0  0  0  0  0  0  0
    5.2835    0.5172    0.0692 H   0  0  0  0  0  0  0  0  0  0  0  0
    3.4191   -1.9235    1.6529 H   0  0  0  0  0  0  0  0  0  0  0  0
    5.4476   -3.7486    2.4732 H   0  0  0  0  0  0  0  0  0  0  0  0
    5.6148   -1.0986    3.1304 H   0  0  0  0  0  0  0  0  0  0  0  0
    4.9412   -3.1097    4.8603 H   0  0  0  0  0  0  0  0  0  0  0  0
    3.1397   -1.2825    3.7997 H   0  0  0  0  0  0  0  0  0  0  0  0
    2.3444   -3.3670    5.0743 H   0  0  0  0  0  0  0  0  0  0  0  0
    1.3466   -4.6439    3.2078 H   0  0  0  0  0  0  0  0  0  0  0  0
    2.1311   -2.1796    2.3479 H   0  0  0  0  0  0  0  0  0  0  0  0
    2.3235   -5.2891    1.5704 H   0  0  0  0  0  0  0  0  0  0  0  0
    5.1439   -5.1786    5.6719 H   0  0  0  0  0  0  0  0  0  0  0  0
    4.2834   -6.6104    6.1763 H   0  0  0  0  0  0  0  0  0  0  0  0
    3.8802   -5.0285    6.8281 H   0  0  0  0  0  0  0  0  0  0  0  0
    1.5004   -5.1647    6.3230 H   0  0  0  0  0  0  0  0  0  0  0  0
    1.9229   -6.8269    5.9292 H   0  0  0  0  0  0  0  0  0  0  0  0
    0.9497   -5.9070    4.8246 H   0  0  0  0  0  0  0  0  0  0  0  0
    6.4037   -4.6565    4.1501 H   0  0  0  0  0  0  0  0  0  0  0  0
    7.0167   -5.0942    2.5263 H   0  0  0  0  0  0  0  0  0  0  0  0
    7.4411   -6.0259    3.9290 H   0  0  0  0  0  0  0  0  0  0  0  0
    6.5063   -8.0279    3.9427 H   0  0  0  0  0  0  0  0  0  0  0  0
    5.3046   -9.6473    2.7233 H   0  0  0  0  0  0  0  0  0  0  0  0
    3.7848   -9.6201    4.8662 H   0  0  0  0  0  0  0  0  0  0  0  0
    1.0431   -9.7763    4.8736 H   0  0  0  0  0  0  0  0  0  0  0  0
    0.5298  -10.0979    3.2079 H   0  0  0  0  0  0  0  0  0  0  0  0
    0.4353   -8.4599    3.8548 H   0  0  0  0  0  0  0  0  0  0  0  0
    4.0764   -9.0234    0.8487 H   0  0  0  0  0  0  0  0  0  0  0  0
    5.2106   -7.0068    1.1192 H   0  0  0  0  0  0  0  0  0  0  0  0
    5.5352   -5.0071    0.4404 H   0  0  0  0  0  0  0  0  0  0  0  0
    4.6018   -4.7554   -0.9992 H   0  0  0  0  0  0  0  0  0  0  0  0
  1  2  1  0
  1 36  1  0
  1 37  1  0
  1 38  1  0
  2  3  1  0
  3 35  1  0
  3  4  1  0
  3 39  1  1
  4  5  1  0
  4 40  1  0
  4 41  1  0
  5  6  1  0
  5 42  1  0
  5 43  1  0
  6  7  1  0
  6  8  1  0
  6  9  1  0
  7 44  1  0
  7 45  1  0
  7 46  1  0
  8 47  1  0
  8 48  1  0
  8 49  1  0
  9 35  1  0
  9 10  1  0
  9 50  1  1
 10 11  1  0
 10 12  1  0
 10 51  1  6
 11 52  1  0
 12 13  1  0
 12 14  1  0
 12 53  1  1
 13 54  1  0
 14 20  1  0
 14 15  1  0
 14 55  1  1
 15 16  1  0
 15 17  1  0
 15 56  1  1
 16 57  1  0
 17 35  1  0
 17 18  1  0
 17 58  1  6
 18 32  1  0
 18 19  1  1
 18 23  1  0
 19 20  1  0
 20 21  1  0
 20 22  1  0
 21 59  1  0
 21 60  1  0
 21 61  1  0
 22 62  1  0
 22 63  1  0
 22 64  1  0
 23 24  1  0
 23 25  2  0
 24 65  1  0
 24 66  1  0
 24 67  1  0
 25 26  1  0
 25 68  1  0
 26 31  1  0
 26 27  1  0
 26 69  1  6
 27 28  2  0
 27 70  1  0
 28 29  1  0
 28 30  1  0
 29 71  1  0
 29 72  1  0
 29 73  1  0
 30 31  1  0
 31 32  1  0
 31 74  1  6
 32 33  1  0
 32 75  1  6
 33 34  1  0
 35 34  1  6
 34 76  1  0
 34 77  1  0
M  END
>  <i_m_ct_stereo_status>  (314) 
1

>  <s_m_source_file>  (314) 
/var/tmp/pbs.5076255.sched01/tmpegbcst3k/90u3quomt0.sdf

>  <i_m_source_file_index>  (314) 
31

>  <i_lp_mmshare_version>  (314) 
48012

>  <i_f3d_flags>  (314) 
0

>  <s_epik_input>  (314) 
W0NIM11PW0NAQEhdMVtDSDJdW0NIMl1DKFtDSDNdKShbQ0gzXSlbQ0BIXShbQ0BASF0oW09IXSlbQ0BASF0oW09IXSlbQ0BASF0oW0NASF0yW09IXSlDKE8zKShbQ0gzXSlbQ0gzXSlbQ0BdMShbQ0BASF0yW0NAXTM0NSlbQ0gyXU9bQ0BASF01W0NASF02W0NAQEhdKFtDSF09QzRbQ0gzXSlbQ0hdPUMoTzYpW0NIM10=

>  <s_epik_cmdline>  (314) 
J2VwaWtfcHl0aG9uJywgJy1waHQnLCAnMi4wJywgJy1waCcsICc3LjAnLCAnLXRuJywgJzgnLCAnLW1hJywgJzIwMCcsICctaW1hZScsICc8aW5maWxlLm1hZT4nLCAnLW9tYWUnLCAnPG91dGZpbGUubWFlPic=

>  <r_lp_tautomer_probability>  (314) 
1

>  <r_epik_Ionization_Penalty>  (314) 
4.33953e-07

>  <r_epik_Ionization_Penalty_Charging>  (314) 
0

>  <r_epik_Ionization_Penalty_Neutral>  (314) 
4.33953e-07

>  <r_epik_State_Penalty>  (314) 
-0

>  <r_epik_Charging_Adjusted_Penalty>  (314) 
0

>  <i_epik_Tot_Q>  (314) 
0

>  <i_epik_Tot_abs_Q>  (314) 
0

>  <s_lp_Force_Field>  (314) 
OPLS3e

>  <r_lp_Energy>  (314) 
152.021

>  <b_lp_Chiralities_Consistent>  (314) 
1

>  <s_lp_Variant>  (314) 
78:0-1

>  <s_i_glide_gridfile>  (314) 
pfpi4k_grid

>  <i_i_glide_lignum>  (314) 
31

>  <i_i_glide_rotatable_bonds>  (314) 
4

>  <r_i_docking_score>  (314) 
-0.500265

>  <r_i_glide_ligand_efficiency>  (314) 
-0.0142933

>  <r_i_glide_ligand_efficiency_sa>  (314) 
-0.0467543

>  <r_i_glide_ligand_efficiency_ln>  (314) 
-0.109819

>  <r_i_glide_gscore>  (314) 
-0.500265

>  <r_i_glide_lipo>  (314) 
-0.304506

>  <r_i_glide_hbond>  (314) 
-0.00497436

>  <r_i_glide_metal>  (314) 
-0

>  <r_i_glide_rewards>  (314) 
-0.063894

>  <r_i_glide_evdw>  (314) 
-5.26498

>  <r_i_glide_ecoul>  (314) 
0.909053

>  <r_i_glide_erotb>  (314) 
0

>  <r_i_glide_esite>  (314) 
0

>  <r_i_glide_emodel>  (314) 
-3.37083

>  <r_i_glide_energy>  (314) 
-4.35592

>  <r_i_glide_einternal>  (314) 
0.596936

>  <r_i_glide_intrahb_reward>  (314) 
-0

>  <i_i_glide_confnum>  (314) 
2

>  <i_i_glide_posenum>  (314) 
1

>  <r_i_glide_eff_state_penalty>  (314) 
0

>  <ligand_id>  (314) 
78

>  <original_smiles>  (314) 
COC1CCC(C)(C)C2C(O)C(O)C3C(O)C4C5(OC3(C)C)C(C)=CC3C=C(C)OC3C5OCC124

>  <smiles>  (314) 
[H]OC1([H])C([H])(O[H])C2([H])C(C([H])([H])[H])(C([H])([H])[H])C([H])([H])C([H])([H])C([H])(OC([H])([H])[H])C23C([H])([H])OC2([H])C4([H])OC(C([H])([H])[H])=C([H])C4([H])C([H])=C(C([H])([H])[H])C24OC(C([H])([H])[H])(C([H])([H])[H])C1([H])C([H])(O[H])C43[H]

$$$$
78:1:0
     RDKit          3D

 77 82  0  0  1  0  0  0  0  0999 V2000
    0.7417   -6.6928    1.3270 C   0  0  0  0  0  0  0  0  0  0  0  0
    1.5624   -5.7414    0.6591 O   0  0  0  0  0  0  0  0  0  0  0  0
    2.2231   -4.7491    1.4585 C   0  0  2  0  0  0  0  0  0  0  0  0
    2.6859   -3.6344    0.4798 C   0  0  0  0  0  0  0  0  0  0  0  0
    3.3599   -2.4499    1.1928 C   0  0  0  0  0  0  0  0  0  0  0  0
    4.4846   -2.8062    2.2134 C   0  0  0  0  0  0  0  0  0  0  0  0
    5.7672   -3.2679    1.4937 C   0  0  0  0  0  0  0  0  0  0  0  0
    4.8111   -1.4502    2.8873 C   0  0  0  0  0  0  0  0  0  0  0  0
    3.9066   -3.9097    3.1901 C   0  0  2  0  0  0  0  0  0  0  0  0
    4.5227   -4.1084    4.6828 C   0  0  1  0  0  0  0  0  0  0  0  0
    5.0838   -2.9511    5.2537 O   0  0  0  0  0  0  0  0  0  0  0  0
    3.6295   -4.7722    5.8873 C   0  0  1  0  0  0  0  0  0  0  0  0
    2.8932   -3.7061    6.4604 O   0  0  0  0  0  0  0  0  0  0  0  0
    2.5403   -5.9707    5.7459 C   0  0  1  0  0  0  0  0  0  0  0  0
    1.9263   -5.9438    4.3812 C   0  0  1  0  0  0  0  0  0  0  0  0
    1.1564   -4.7635    4.2716 O   0  0  0  0  0  0  0  0  0  0  0  0
    3.1661   -6.2607    3.4910 C   0  0  1  0  0  0  0  0  0  0  0  0
    3.7513   -7.7257    3.5917 C   0  0  2  0  0  0  0  0  0  0  0  0
    2.9131   -8.2497    4.6400 O   0  0  0  0  0  0  0  0  0  0  0  0
    2.8457   -7.5254    5.9277 C   0  0  0  0  0  0  0  0  0  0  0  0
    3.9900   -7.8299    6.9156 C   0  0  0  0  0  0  0  0  0  0  0  0
    1.6077   -8.2289    6.5335 C   0  0  0  0  0  0  0  0  0  0  0  0
    5.1495   -8.2127    4.0754 C   0  0  0  0  0  0  0  0  0  0  0  0
    6.2837   -7.2513    4.4141 C   0  0  0  0  0  0  0  0  0  0  0  0
    5.3578   -9.5494    3.9808 C   0  0  0  0  0  0  0  0  0  0  0  0
    4.4038  -10.4986    3.1993 C   0  0  1  0  0  0  0  0  0  0  0  0
    3.3835  -11.1623    4.0612 C   0  0  0  0  0  0  0  0  0  0  0  0
    2.1582  -10.8843    3.6264 C   0  0  0  0  0  0  0  0  0  0  0  0
    0.8203  -11.3279    4.1754 C   0  0  0  0  0  0  0  0  0  0  0  0
    2.1301  -10.0532    2.5399 O   0  0  0  0  0  0  0  0  0  0  0  0
    3.4847   -9.7824    2.1338 C   0  0  1  0  0  0  0  0  0  0  0  0
    3.8177   -8.2874    2.1579 C   0  0  1  0  0  0  0  0  0  0  0  0
    3.6270   -7.3339    1.1228 O   0  0  0  0  0  0  0  0  0  0  0  0
    4.3117   -6.0817    1.4027 C   0  0  0  0  0  0  0  0  0  0  0  0
    3.4269   -5.2381    2.3721 C   0  0  1  0  0  0  0  0  0  0  0  0
    0.1772   -7.2591    0.5848 H   0  0  0  0  0  0  0  0  0  0  0  0
    0.0403   -6.2127    2.0048 H   0  0  0  0  0  0  0  0  0  0  0  0
    1.3208   -7.4148    1.8938 H   0  0  0  0  0  0  0  0  0  0  0  0
    1.4566   -4.2693    2.0447 H   0  0  0  0  0  0  0  0  0  0  0  0
    3.3383   -4.0190   -0.2982 H   0  0  0  0  0  0  0  0  0  0  0  0
    1.8215   -3.2464   -0.0643 H   0  0  0  0  0  0  0  0  0  0  0  0
    3.7497   -1.7644    0.4404 H   0  0  0  0  0  0  0  0  0  0  0  0
    2.5830   -1.8833    1.7113 H   0  0  0  0  0  0  0  0  0  0  0  0
    6.3716   -3.9093    2.1382 H   0  0  0  0  0  0  0  0  0  0  0  0
    6.3850   -2.4179    1.1985 H   0  0  0  0  0  0  0  0  0  0  0  0
    5.5494   -3.8091    0.5742 H   0  0  0  0  0  0  0  0  0  0  0  0
    5.7680   -1.4800    3.4096 H   0  0  0  0  0  0  0  0  0  0  0  0
    4.0290   -1.1493    3.5845 H   0  0  0  0  0  0  0  0  0  0  0  0
    4.9029   -0.6588    2.1431 H   0  0  0  0  0  0  0  0  0  0  0  0
    2.9886   -3.4067    3.4754 H   0  0  0  0  0  0  0  0  0  0  0  0
    5.4230   -4.6964    4.5390 H   0  0  0  0  0  0  0  0  0  0  0  0
    4.3589   -2.3834    5.4927 H   0  0  0  0  0  0  0  0  0  0  0  0
    4.3295   -5.0628    6.6668 H   0  0  0  0  0  0  0  0  0  0  0  0
    2.6121   -3.9771    7.3267 H   0  0  0  0  0  0  0  0  0  0  0  0
    1.7592   -5.7595    6.4799 H   0  0  0  0  0  0  0  0  0  0  0  0
    1.1733   -6.7192    4.2430 H   0  0  0  0  0  0  0  0  0  0  0  0
    1.7172   -4.0251    4.4819 H   0  0  0  0  0  0  0  0  0  0  0  0
    4.0651   -6.1480    4.0268 H   0  0  0  0  0  0  0  0  0  0  0  0
    3.6735   -7.6307    7.9383 H   0  0  0  0  0  0  0  0  0  0  0  0
    4.8750   -7.2279    6.7651 H   0  0  0  0  0  0  0  0  0  0  0  0
    4.2812   -8.8802    6.8633 H   0  0  0  0  0  0  0  0  0  0  0  0
    1.3615   -7.8331    7.5216 H   0  0  0  0  0  0  0  0  0  0  0  0
    1.8059   -9.2996    6.6451 H   0  0  0  0  0  0  0  0  0  0  0  0
    0.7241   -8.1300    5.9004 H   0  0  0  0  0  0  0  0  0  0  0  0
    6.0657   -6.5906    5.2405 H   0  0  0  0  0  0  0  0  0  0  0  0
    6.5351   -6.6329    3.5568 H   0  0  0  0  0  0  0  0  0  0  0  0
    7.1818   -7.8086    4.6704 H   0  0  0  0  0  0  0  0  0  0  0  0
    6.3183   -9.9745    4.2379 H   0  0  0  0  0  0  0  0  0  0  0  0
    4.9999  -11.2681    2.7070 H   0  0  0  0  0  0  0  0  0  0  0  0
    3.6292  -11.7880    4.9037 H   0  0  0  0  0  0  0  0  0  0  0  0
    0.9184  -11.9735    5.0503 H   0  0  0  0  0  0  0  0  0  0  0  0
    0.2744  -11.8765    3.4088 H   0  0  0  0  0  0  0  0  0  0  0  0
    0.2322  -10.4561    4.4634 H   0  0  0  0  0  0  0  0  0  0  0  0
    3.6455  -10.2214    1.1448 H   0  0  0  0  0  0  0  0  0  0  0  0
    4.8693   -8.3723    1.8515 H   0  0  0  0  0  0  0  0  0  0  0  0
    5.3228   -6.2373    1.7782 H   0  0  0  0  0  0  0  0  0  0  0  0
    4.4448   -5.6241    0.4293 H   0  0  0  0  0  0  0  0  0  0  0  0
  1  2  1  0
  1 36  1  0
  1 37  1  0
  1 38  1  0
  2  3  1  0
  3 35  1  0
  3  4  1  0
  3 39  1  1
  4  5  1  0
  4 40  1  0
  4 41  1  0
  5  6  1  0
  5 42  1  0
  5 43  1  0
  6  7  1  0
  6  8  1  0
  6  9  1  0
  7 44  1  0
  7 45  1  0
  7 46  1  0
  8 47  1  0
  8 48  1  0
  8 49  1  0
  9 35  1  0
  9 10  1  0
  9 50  1  1
 10 11  1  0
 10 12  1  0
 10 51  1  6
 11 52  1  0
 12 13  1  0
 12 14  1  0
 12 53  1  1
 13 54  1  0
 14 20  1  0
 14 15  1  0
 14 55  1  1
 15 16  1  0
 15 17  1  0
 15 56  1  1
 16 57  1  0
 17 35  1  0
 17 18  1  0
 17 58  1  1
 18 32  1  0
 18 19  1  1
 18 23  1  0
 19 20  1  0
 20 21  1  0
 20 22  1  0
 21 59  1  0
 21 60  1  0
 21 61  1  0
 22 62  1  0
 22 63  1  0
 22 64  1  0
 23 24  1  0
 23 25  2  0
 24 65  1  0
 24 66  1  0
 24 67  1  0
 25 26  1  0
 25 68  1  0
 26 31  1  0
 26 27  1  0
 26 69  1  6
 27 28  2  0
 27 70  1  0
 28 29  1  0
 28 30  1  0
 29 71  1  0
 29 72  1  0
 29 73  1  0
 30 31  1  0
 31 32  1  0
 31 74  1  6
 32 33  1  0
 32 75  1  6
 33 34  1  0
 35 34  1  6
 34 76  1  0
 34 77  1  0
M  END
>  <i_m_ct_stereo_status>  (315) 
1

>  <s_m_source_file>  (315) 
/var/tmp/pbs.5076255.sched01/tmpegbcst3k/90u3quomt0.sdf

>  <i_m_source_file_index>  (315) 
32

>  <i_lp_mmshare_version>  (315) 
48012

>  <i_f3d_flags>  (315) 
0

>  <s_epik_input>  (315) 
W0NIM11PW0NAQEhdMVtDSDJdW0NIMl1DKFtDSDNdKShbQ0gzXSlbQ0BIXShbQ0BASF0oW09IXSlbQ0BASF0oW09IXSlbQ0BASF0oW0NASF0yW09IXSlDKE8zKShbQ0gzXSlbQ0gzXSlbQ0BdMShbQ0BASF0yW0NAXTM0NSlbQ0gyXU9bQ0BASF01W0NASF02W0NAQEhdKFtDSF09QzRbQ0gzXSlbQ0hdPUMoTzYpW0NIM10=

>  <s_epik_cmdline>  (315) 
J2VwaWtfcHl0aG9uJywgJy1waHQnLCAnMi4wJywgJy1waCcsICc3LjAnLCAnLXRuJywgJzgnLCAnLW1hJywgJzIwMCcsICctaW1hZScsICc8aW5maWxlLm1hZT4nLCAnLW9tYWUnLCAnPG91dGZpbGUubWFlPic=

>  <r_lp_tautomer_probability>  (315) 
1

>  <r_epik_Ionization_Penalty>  (315) 
4.33953e-07

>  <r_epik_Ionization_Penalty_Charging>  (315) 
0

>  <r_epik_Ionization_Penalty_Neutral>  (315) 
4.33953e-07

>  <r_epik_State_Penalty>  (315) 
-0

>  <r_epik_Charging_Adjusted_Penalty>  (315) 
0

>  <i_epik_Tot_Q>  (315) 
0

>  <i_epik_Tot_abs_Q>  (315) 
0

>  <s_lp_Force_Field>  (315) 
OPLS3e

>  <r_lp_Energy>  (315) 
187.542

>  <b_lp_Chiralities_Consistent>  (315) 
1

>  <s_lp_Variant>  (315) 
78:0-2

>  <s_i_glide_gridfile>  (315) 
pfpi4k_grid

>  <i_i_glide_lignum>  (315) 
32

>  <i_i_glide_rotatable_bonds>  (315) 
4

>  <r_i_docking_score>  (315) 
-1.80011

>  <r_i_glide_ligand_efficiency>  (315) 
-0.0514317

>  <r_i_glide_ligand_efficiency_sa>  (315) 
-0.168236

>  <r_i_glide_ligand_efficiency_ln>  (315) 
-0.395164

>  <r_i_glide_gscore>  (315) 
-1.80011

>  <r_i_glide_lipo>  (315) 
-0.312964

>  <r_i_glide_hbond>  (315) 
-0.14022

>  <r_i_glide_metal>  (315) 
-0

>  <r_i_glide_rewards>  (315) 
-0.063894

>  <r_i_glide_evdw>  (315) 
-21.5076

>  <r_i_glide_ecoul>  (315) 
-1.38435

>  <r_i_glide_erotb>  (315) 
0

>  <r_i_glide_esite>  (315) 
0

>  <r_i_glide_emodel>  (315) 
-24.8183

>  <r_i_glide_energy>  (315) 
-22.8919

>  <r_i_glide_einternal>  (315) 
0.672563

>  <r_i_glide_intrahb_reward>  (315) 
-0

>  <i_i_glide_confnum>  (315) 
1

>  <i_i_glide_posenum>  (315) 
34

>  <r_i_glide_eff_state_penalty>  (315) 
0

>  <ligand_id>  (315) 
78

>  <original_smiles>  (315) 
COC1CCC(C)(C)C2C(O)C(O)C3C(O)C4C5(OC3(C)C)C(C)=CC3C=C(C)OC3C5OCC124

>  <smiles>  (315) 
[H]OC1([H])C([H])(O[H])C2([H])C(C([H])([H])[H])(C([H])([H])[H])C([H])([H])C([H])([H])C([H])(OC([H])([H])[H])C23C([H])([H])OC2([H])C4([H])OC(C([H])([H])[H])=C([H])C4([H])C([H])=C(C([H])([H])[H])C24OC(C([H])([H])[H])(C([H])([H])[H])C1([H])C([H])(O[H])C43[H]

$$$$
78:1:1
     RDKit          3D

 77 82  0  0  1  0  0  0  0  0999 V2000
    0.8125   -6.6736    1.1815 C   0  0  0  0  0  0  0  0  0  0  0  0
    1.6443   -5.7524    0.4855 O   0  0  0  0  0  0  0  0  0  0  0  0
    2.2990   -4.7325    1.2579 C   0  0  2  0  0  0  0  0  0  0  0  0
    2.7896   -3.6704    0.2430 C   0  0  0  0  0  0  0  0  0  0  0  0
    3.4488   -2.4541    0.9169 C   0  0  0  0  0  0  0  0  0  0  0  0
    4.5433   -2.7684    1.9871 C   0  0  0  0  0  0  0  0  0  0  0  0
    5.8444   -3.2662    1.3252 C   0  0  0  0  0  0  0  0  0  0  0  0
    4.8554   -1.3831    2.6081 C   0  0  0  0  0  0  0  0  0  0  0  0
    3.9347   -3.8206    2.9972 C   0  0  2  0  0  0  0  0  0  0  0  0
    4.5080   -3.9439    4.5203 C   0  0  1  0  0  0  0  0  0  0  0  0
    5.0511   -2.7604    5.0661 O   0  0  0  0  0  0  0  0  0  0  0  0
    3.5733   -4.5476    5.7193 C   0  0  1  0  0  0  0  0  0  0  0  0
    2.8329   -3.4442    6.1998 O   0  0  0  0  0  0  0  0  0  0  0  0
    2.4910   -5.7525    5.6059 C   0  0  1  0  0  0  0  0  0  0  0  0
    1.9115   -5.7942    4.2242 C   0  0  1  0  0  0  0  0  0  0  0  0
    1.1465   -4.6254    4.0290 O   0  0  0  0  0  0  0  0  0  0  0  0
    3.1775   -6.1529    3.3832 C   0  0  1  0  0  0  0  0  0  0  0  0
    3.7549   -7.6147    3.5692 C   0  0  2  0  0  0  0  0  0  0  0  0
    2.8857   -8.0839    4.6205 O   0  0  0  0  0  0  0  0  0  0  0  0
    2.7870   -7.2983    5.8690 C   0  0  0  0  0  0  0  0  0  0  0  0
    3.9064   -7.5570    6.9031 C   0  0  0  0  0  0  0  0  0  0  0  0
    1.5328   -7.9717    6.4740 C   0  0  0  0  0  0  0  0  0  0  0  0
    5.1372   -8.0743    4.1143 C   0  0  0  0  0  0  0  0  0  0  0  0
    6.2684   -7.1049    4.4385 C   0  0  0  0  0  0  0  0  0  0  0  0
    5.3481   -9.4242    4.0926 C   0  0  0  0  0  0  0  0  0  0  0  0
    4.4134  -10.4064    3.3376 C   0  0  1  0  0  0  0  0  0  0  0  0
    3.3672  -11.0296    4.2007 C   0  0  0  0  0  0  0  0  0  0  0  0
    2.1551  -10.7736    3.7185 C   0  0  0  0  0  0  0  0  0  0  0  0
    0.7975  -11.1853    4.2463 C   0  0  0  0  0  0  0  0  0  0  0  0
    2.1598   -9.9983    2.5915 O   0  0  0  0  0  0  0  0  0  0  0  0
    3.5245   -9.7450    2.2155 C   0  0  1  0  0  0  0  0  0  0  0  0
    3.8550   -8.2480    2.1704 C   0  0  1  0  0  0  0  0  0  0  0  0
    3.6956   -7.3475    1.0824 O   0  0  0  0  0  0  0  0  0  0  0  0
    4.3744   -6.0811    1.3215 C   0  0  0  0  0  0  0  0  0  0  0  0
    3.4695   -5.1863    2.2269 C   0  0  1  0  0  0  0  0  0  0  0  0
    0.2696   -7.2872    0.4627 H   0  0  0  0  0  0  0  0  0  0  0  0
    0.0931   -6.1703    1.8236 H   0  0  0  0  0  0  0  0  0  0  0  0
    1.3788   -7.3632    1.7985 H   0  0  0  0  0  0  0  0  0  0  0  0
    1.5228   -4.2194    1.8030 H   0  0  0  0  0  0  0  0  0  0  0  0
    3.4598   -4.0941   -0.4982 H   0  0  0  0  0  0  0  0  0  0  0  0
    1.9434   -3.3069   -0.3434 H   0  0  0  0  0  0  0  0  0  0  0  0
    3.8594   -1.8036    0.1465 H   0  0  0  0  0  0  0  0  0  0  0  0
    2.6573   -1.8666    1.3859 H   0  0  0  0  0  0  0  0  0  0  0  0
    6.4276   -3.8803    2.0156 H   0  0  0  0  0  0  0  0  0  0  0  0
    6.4772   -2.4361    1.0054 H   0  0  0  0  0  0  0  0  0  0  0  0
    5.6491   -3.8493    0.4273 H   0  0  0  0  0  0  0  0  0  0  0  0
    5.7954   -1.3905    3.1624 H   0  0  0  0  0  0  0  0  0  0  0  0
    4.0528   -1.0480    3.2646 H   0  0  0  0  0  0  0  0  0  0  0  0
    4.9702   -0.6258    1.8336 H   0  0  0  0  0  0  0  0  0  0  0  0
    3.0102   -3.3025    3.2285 H   0  0  0  0  0  0  0  0  0  0  0  0
    5.4082   -4.5407    4.4304 H   0  0  0  0  0  0  0  0  0  0  0  0
    4.3759   -2.0887    5.0417 H   0  0  0  0  0  0  0  0  0  0  0  0
    4.2416   -4.8039    6.5405 H   0  0  0  0  0  0  0  0  0  0  0  0
    3.4626   -2.8505    6.6062 H   0  0  0  0  0  0  0  0  0  0  0  0
    1.6973   -5.4973    6.3142 H   0  0  0  0  0  0  0  0  0  0  0  0
    1.1615   -6.5749    4.1066 H   0  0  0  0  0  0  0  0  0  0  0  0
    1.6971   -3.8748    4.2333 H   0  0  0  0  0  0  0  0  0  0  0  0
    4.0609   -6.0135    3.9366 H   0  0  0  0  0  0  0  0  0  0  0  0
    3.5654   -7.3113    7.9084 H   0  0  0  0  0  0  0  0  0  0  0  0
    4.7955   -6.9637    6.7500 H   0  0  0  0  0  0  0  0  0  0  0  0
    4.1988   -8.6087    6.9084 H   0  0  0  0  0  0  0  0  0  0  0  0
    1.2528   -7.5304    7.4335 H   0  0  0  0  0  0  0  0  0  0  0  0
    1.7183   -9.0364    6.6426 H   0  0  0  0  0  0  0  0  0  0  0  0
    0.6682   -7.9037    5.8107 H   0  0  0  0  0  0  0  0  0  0  0  0
    6.0298   -6.4079    5.2288 H   0  0  0  0  0  0  0  0  0  0  0  0
    6.5440   -6.5255    3.5608 H   0  0  0  0  0  0  0  0  0  0  0  0
    7.1567   -7.6494    4.7462 H   0  0  0  0  0  0  0  0  0  0  0  0
    6.2988   -9.8299    4.3985 H   0  0  0  0  0  0  0  0  0  0  0  0
    5.0249  -11.2010    2.9021 H   0  0  0  0  0  0  0  0  0  0  0  0
    3.5889  -11.6187    5.0777 H   0  0  0  0  0  0  0  0  0  0  0  0
    0.8644  -11.7893    5.1546 H   0  0  0  0  0  0  0  0  0  0  0  0
    0.2707  -11.7602    3.4880 H   0  0  0  0  0  0  0  0  0  0  0  0
    0.2105  -10.2951    4.4721 H   0  0  0  0  0  0  0  0  0  0  0  0
    3.7146  -10.2221    1.2582 H   0  0  0  0  0  0  0  0  0  0  0  0
    4.9118   -8.3541    1.8907 H   0  0  0  0  0  0  0  0  0  0  0  0
    5.3725   -6.2227    1.7340 H   0  0  0  0  0  0  0  0  0  0  0  0
    4.5357   -5.6688    0.3318 H   0  0  0  0  0  0  0  0  0  0  0  0
  1  2  1  0
  1 36  1  0
  1 37  1  0
  1 38  1  0
  2  3  1  0
  3 35  1  0
  3  4  1  0
  3 39  1  1
  4  5  1  0
  4 40  1  0
  4 41  1  0
  5  6  1  0
  5 42  1  0
  5 43  1  0
  6  7  1  0
  6  8  1  0
  6  9  1  0
  7 44  1  0
  7 45  1  0
  7 46  1  0
  8 47  1  0
  8 48  1  0
  8 49  1  0
  9 35  1  0
  9 10  1  0
  9 50  1  1
 10 11  1  0
 10 12  1  0
 10 51  1  6
 11 52  1  0
 12 13  1  0
 12 14  1  0
 12 53  1  1
 13 54  1  0
 14 20  1  0
 14 15  1  0
 14 55  1  1
 15 16  1  0
 15 17  1  0
 15 56  1  1
 16 57  1  0
 17 35  1  0
 17 18  1  0
 17 58  1  1
 18 32  1  0
 18 19  1  1
 18 23  1  0
 19 20  1  0
 20 21  1  0
 20 22  1  0
 21 59  1  0
 21 60  1  0
 21 61  1  0
 22 62  1  0
 22 63  1  0
 22 64  1  0
 23 24  1  0
 23 25  2  0
 24 65  1  0
 24 66  1  0
 24 67  1  0
 25 26  1  0
 25 68  1  0
 26 31  1  0
 26 27  1  0
 26 69  1  6
 27 28  2  0
 27 70  1  0
 28 29  1  0
 28 30  1  0
 29 71  1  0
 29 72  1  0
 29 73  1  0
 30 31  1  0
 31 32  1  0
 31 74  1  6
 32 33  1  0
 32 75  1  6
 33 34  1  0
 35 34  1  6
 34 76  1  0
 34 77  1  0
M  END
>  <i_m_ct_stereo_status>  (316) 
1

>  <s_m_source_file>  (316) 
/var/tmp/pbs.5076255.sched01/tmpegbcst3k/90u3quomt0.sdf

>  <i_m_source_file_index>  (316) 
32

>  <i_lp_mmshare_version>  (316) 
48012

>  <i_f3d_flags>  (316) 
0

>  <s_epik_input>  (316) 
W0NIM11PW0NAQEhdMVtDSDJdW0NIMl1DKFtDSDNdKShbQ0gzXSlbQ0BIXShbQ0BASF0oW09IXSlbQ0BASF0oW09IXSlbQ0BASF0oW0NASF0yW09IXSlDKE8zKShbQ0gzXSlbQ0gzXSlbQ0BdMShbQ0BASF0yW0NAXTM0NSlbQ0gyXU9bQ0BASF01W0NASF02W0NAQEhdKFtDSF09QzRbQ0gzXSlbQ0hdPUMoTzYpW0NIM10=

>  <s_epik_cmdline>  (316) 
J2VwaWtfcHl0aG9uJywgJy1waHQnLCAnMi4wJywgJy1waCcsICc3LjAnLCAnLXRuJywgJzgnLCAnLW1hJywgJzIwMCcsICctaW1hZScsICc8aW5maWxlLm1hZT4nLCAnLW9tYWUnLCAnPG91dGZpbGUubWFlPic=

>  <r_lp_tautomer_probability>  (316) 
1

>  <r_epik_Ionization_Penalty>  (316) 
4.33953e-07

>  <r_epik_Ionization_Penalty_Charging>  (316) 
0

>  <r_epik_Ionization_Penalty_Neutral>  (316) 
4.33953e-07

>  <r_epik_State_Penalty>  (316) 
-0

>  <r_epik_Charging_Adjusted_Penalty>  (316) 
0

>  <i_epik_Tot_Q>  (316) 
0

>  <i_epik_Tot_abs_Q>  (316) 
0

>  <s_lp_Force_Field>  (316) 
OPLS3e

>  <r_lp_Energy>  (316) 
187.542

>  <b_lp_Chiralities_Consistent>  (316) 
1

>  <s_lp_Variant>  (316) 
78:0-2

>  <s_i_glide_gridfile>  (316) 
pfpi4k_grid

>  <i_i_glide_lignum>  (316) 
32

>  <i_i_glide_rotatable_bonds>  (316) 
4

>  <r_i_docking_score>  (316) 
-1.71864

>  <r_i_glide_ligand_efficiency>  (316) 
-0.049104

>  <r_i_glide_ligand_efficiency_sa>  (316) 
-0.160622

>  <r_i_glide_ligand_efficiency_ln>  (316) 
-0.377279

>  <r_i_glide_gscore>  (316) 
-1.71864

>  <r_i_glide_lipo>  (316) 
-0.276658

>  <r_i_glide_hbond>  (316) 
-0.130495

>  <r_i_glide_metal>  (316) 
-0

>  <r_i_glide_rewards>  (316) 
-0.063894

>  <r_i_glide_evdw>  (316) 
-21.8288

>  <r_i_glide_ecoul>  (316) 
-1.04103

>  <r_i_glide_erotb>  (316) 
0

>  <r_i_glide_esite>  (316) 
0

>  <r_i_glide_emodel>  (316) 
-24.7344

>  <r_i_glide_energy>  (316) 
-22.8698

>  <r_i_glide_einternal>  (316) 
0.570503

>  <r_i_glide_intrahb_reward>  (316) 
-0

>  <i_i_glide_confnum>  (316) 
2

>  <i_i_glide_posenum>  (316) 
28

>  <r_i_glide_eff_state_penalty>  (316) 
0

>  <ligand_id>  (316) 
78

>  <original_smiles>  (316) 
COC1CCC(C)(C)C2C(O)C(O)C3C(O)C4C5(OC3(C)C)C(C)=CC3C=C(C)OC3C5OCC124

>  <smiles>  (316) 
[H]OC1([H])C([H])(O[H])C2([H])C(C([H])([H])[H])(C([H])([H])[H])C([H])([H])C([H])([H])C([H])(OC([H])([H])[H])C23C([H])([H])OC2([H])C4([H])OC(C([H])([H])[H])=C([H])C4([H])C([H])=C(C([H])([H])[H])C24OC(C([H])([H])[H])(C([H])([H])[H])C1([H])C([H])(O[H])C43[H]

$$$$
78:1:2
     RDKit          3D

 77 82  0  0  1  0  0  0  0  0999 V2000
    1.4183   -4.1625   -1.4310 C   0  0  0  0  0  0  0  0  0  0  0  0
    2.2145   -4.5234   -0.3081 O   0  0  0  0  0  0  0  0  0  0  0  0
    2.9954   -3.4783    0.2984 C   0  0  2  0  0  0  0  0  0  0  0  0
    4.0716   -3.0039   -0.7174 C   0  0  0  0  0  0  0  0  0  0  0  0
    4.9259   -1.8650   -0.1837 C   0  0  0  0  0  0  0  0  0  0  0  0
    5.5630   -2.0881    1.2102 C   0  0  0  0  0  0  0  0  0  0  0  0
    6.7204   -3.0976    1.1195 C   0  0  0  0  0  0  0  0  0  0  0  0
    6.1739   -0.7006    1.5162 C   0  0  0  0  0  0  0  0  0  0  0  0
    4.4216   -2.5407    2.2047 C   0  0  2  0  0  0  0  0  0  0  0  0
    4.5724   -2.2854    3.8108 C   0  0  1  0  0  0  0  0  0  0  0  0
    5.3702   -1.1812    4.1661 O   0  0  0  0  0  0  0  0  0  0  0  0
    3.2631   -2.1819    4.7886 C   0  0  1  0  0  0  0  0  0  0  0  0
    2.8540   -0.8257    4.7734 O   0  0  0  0  0  0  0  0  0  0  0  0
    1.8926   -3.0442    4.6572 C   0  0  1  0  0  0  0  0  0  0  0  0
    1.6395   -3.3775    3.2177 C   0  0  1  0  0  0  0  0  0  0  0  0
    1.4602   -2.1462    2.5638 O   0  0  0  0  0  0  0  0  0  0  0  0
    2.8396   -4.3206    2.9100 C   0  0  1  0  0  0  0  0  0  0  0  0
    2.8358   -5.7296    3.6396 C   0  0  2  0  0  0  0  0  0  0  0  0
    1.6541   -5.5771    4.4558 O   0  0  0  0  0  0  0  0  0  0  0  0
    1.5802   -4.4263    5.3783 C   0  0  0  0  0  0  0  0  0  0  0  0
    2.2949   -4.5983    6.7376 C   0  0  0  0  0  0  0  0  0  0  0  0
    0.0750   -4.5112    5.7196 C   0  0  0  0  0  0  0  0  0  0  0  0
    3.8407   -6.3172    4.6763 C   0  0  0  0  0  0  0  0  0  0  0  0
    5.1325   -5.6226    5.0850 C   0  0  0  0  0  0  0  0  0  0  0  0
    3.5801   -7.6036    5.0678 C   0  0  0  0  0  0  0  0  0  0  0  0
    2.5557   -8.5095    4.3438 C   0  0  1  0  0  0  0  0  0  0  0  0
    1.2014   -8.5166    4.9761 C   0  0  0  0  0  0  0  0  0  0  0  0
    0.2789   -8.1382    4.0938 C   0  0  0  0  0  0  0  0  0  0  0  0
   -1.2170   -7.9852    4.2566 C   0  0  0  0  0  0  0  0  0  0  0  0
    0.7823   -7.8251    2.8630 O   0  0  0  0  0  0  0  0  0  0  0  0
    2.1993   -8.0688    2.8701 C   0  0  1  0  0  0  0  0  0  0  0  0
    2.9930   -6.7977    2.5475 C   0  0  1  0  0  0  0  0  0  0  0  0
    3.3361   -6.2848    1.2674 O   0  0  0  0  0  0  0  0  0  0  0  0
    4.3728   -5.2585    1.3670 C   0  0  0  0  0  0  0  0  0  0  0  0
    3.6764   -3.8954    1.6793 C   0  0  1  0  0  0  0  0  0  0  0  0
    0.9798   -5.0667   -1.8534 H   0  0  0  0  0  0  0  0  0  0  0  0
    1.9658   -3.6970   -2.2502 H   0  0  0  0  0  0  0  0  0  0  0  0
    0.6273   -3.4712   -1.1486 H   0  0  0  0  0  0  0  0  0  0  0  0
    2.3173   -2.6454    0.4412 H   0  0  0  0  0  0  0  0  0  0  0  0
    4.6869   -3.8253   -1.0674 H   0  0  0  0  0  0  0  0  0  0  0  0
    3.6214   -2.5909   -1.6155 H   0  0  0  0  0  0  0  0  0  0  0  0
    5.6911   -1.6334   -0.9205 H   0  0  0  0  0  0  0  0  0  0  0  0
    4.2847   -0.9868   -0.1384 H   0  0  0  0  0  0  0  0  0  0  0  0
    6.8859   -3.5928    2.0814 H   0  0  0  0  0  0  0  0  0  0  0  0
    7.6586   -2.6237    0.8251 H   0  0  0  0  0  0  0  0  0  0  0  0
    6.5358   -3.8790    0.3890 H   0  0  0  0  0  0  0  0  0  0  0  0
    6.9197   -0.7434    2.3130 H   0  0  0  0  0  0  0  0  0  0  0  0
    5.4047    0.0223    1.7885 H   0  0  0  0  0  0  0  0  0  0  0  0
    6.6857   -0.2998    0.6401 H   0  0  0  0  0  0  0  0  0  0  0  0
    3.7193   -1.7436    1.9950 H   0  0  0  0  0  0  0  0  0  0  0  0
    5.2108   -3.0908    4.1565 H   0  0  0  0  0  0  0  0  0  0  0  0
    4.8851   -0.3878    3.9498 H   0  0  0  0  0  0  0  0  0  0  0  0
    3.6253   -2.3188    5.8070 H   0  0  0  0  0  0  0  0  0  0  0  0
    2.5057   -0.6242    3.8992 H   0  0  0  0  0  0  0  0  0  0  0  0
    1.0964   -2.3791    5.0032 H   0  0  0  0  0  0  0  0  0  0  0  0
    0.7055   -3.9148    3.0450 H   0  0  0  0  0  0  0  0  0  0  0  0
    0.6246   -1.7741    2.8427 H   0  0  0  0  0  0  0  0  0  0  0  0
    3.5866   -4.2358    3.6455 H   0  0  0  0  0  0  0  0  0  0  0  0
    1.8529   -3.9459    7.4919 H   0  0  0  0  0  0  0  0  0  0  0  0
    3.3415   -4.3346    6.7189 H   0  0  0  0  0  0  0  0  0  0  0  0
    2.2120   -5.6225    7.1050 H   0  0  0  0  0  0  0  0  0  0  0  0
   -0.2434   -3.7125    6.3945 H   0  0  0  0  0  0  0  0  0  0  0  0
   -0.1620   -5.4651    6.2011 H   0  0  0  0  0  0  0  0  0  0  0  0
   -0.5426   -4.4510    4.8247 H   0  0  0  0  0  0  0  0  0  0  0  0
    4.9848   -4.6646    5.5639 H   0  0  0  0  0  0  0  0  0  0  0  0
    5.7758   -5.4649    4.2224 H   0  0  0  0  0  0  0  0  0  0  0  0
    5.6937   -6.2400    5.7833 H   0  0  0  0  0  0  0  0  0  0  0  0
    4.2459   -8.1054    5.7496 H   0  0  0  0  0  0  0  0  0  0  0  0
    2.9423   -9.5340    4.3491 H   0  0  0  0  0  0  0  0  0  0  0  0
    1.0227   -8.8233    5.9965 H   0  0  0  0  0  0  0  0  0  0  0  0
   -1.5452   -8.2670    5.2582 H   0  0  0  0  0  0  0  0  0  0  0  0
   -1.7293   -8.6257    3.5402 H   0  0  0  0  0  0  0  0  0  0  0  0
   -1.5018   -6.9520    4.0637 H   0  0  0  0  0  0  0  0  0  0  0  0
    2.4244   -8.8763    2.1729 H   0  0  0  0  0  0  0  0  0  0  0  0
    3.9892   -7.2522    2.6246 H   0  0  0  0  0  0  0  0  0  0  0  0
    5.1414   -5.5142    2.0983 H   0  0  0  0  0  0  0  0  0  0  0  0
    4.8947   -5.2768    0.4161 H   0  0  0  0  0  0  0  0  0  0  0  0
  1  2  1  0
  1 36  1  0
  1 37  1  0
  1 38  1  0
  2  3  1  0
  3 35  1  0
  3  4  1  0
  3 39  1  1
  4  5  1  0
  4 40  1  0
  4 41  1  0
  5  6  1  0
  5 42  1  0
  5 43  1  0
  6  7  1  0
  6  8  1  0
  6  9  1  0
  7 44  1  0
  7 45  1  0
  7 46  1  0
  8 47  1  0
  8 48  1  0
  8 49  1  0
  9 35  1  0
  9 10  1  0
  9 50  1  6
 10 11  1  0
 10 12  1  0
 10 51  1  1
 11 52  1  0
 12 13  1  0
 12 14  1  0
 12 53  1  1
 13 54  1  0
 14 20  1  0
 14 15  1  0
 14 55  1  1
 15 16  1  0
 15 17  1  0
 15 56  1  1
 16 57  1  0
 17 35  1  0
 17 18  1  0
 17 58  1  1
 18 32  1  0
 18 19  1  1
 18 23  1  0
 19 20  1  0
 20 21  1  0
 20 22  1  0
 21 59  1  0
 21 60  1  0
 21 61  1  0
 22 62  1  0
 22 63  1  0
 22 64  1  0
 23 24  1  0
 23 25  2  0
 24 65  1  0
 24 66  1  0
 24 67  1  0
 25 26  1  0
 25 68  1  0
 26 31  1  0
 26 27  1  0
 26 69  1  6
 27 28  2  0
 27 70  1  0
 28 29  1  0
 28 30  1  0
 29 71  1  0
 29 72  1  0
 29 73  1  0
 30 31  1  0
 31 32  1  0
 31 74  1  6
 32 33  1  0
 32 75  1  1
 33 34  1  0
 35 34  1  6
 34 76  1  0
 34 77  1  0
M  END
>  <i_m_ct_stereo_status>  (317) 
1

>  <s_m_source_file>  (317) 
/var/tmp/pbs.5076255.sched01/tmpegbcst3k/90u3quomt0.sdf

>  <i_m_source_file_index>  (317) 
32

>  <i_lp_mmshare_version>  (317) 
48012

>  <i_f3d_flags>  (317) 
0

>  <s_epik_input>  (317) 
W0NIM11PW0NAQEhdMVtDSDJdW0NIMl1DKFtDSDNdKShbQ0gzXSlbQ0BIXShbQ0BASF0oW09IXSlbQ0BASF0oW09IXSlbQ0BASF0oW0NASF0yW09IXSlDKE8zKShbQ0gzXSlbQ0gzXSlbQ0BdMShbQ0BASF0yW0NAXTM0NSlbQ0gyXU9bQ0BASF01W0NASF02W0NAQEhdKFtDSF09QzRbQ0gzXSlbQ0hdPUMoTzYpW0NIM10=

>  <s_epik_cmdline>  (317) 
J2VwaWtfcHl0aG9uJywgJy1waHQnLCAnMi4wJywgJy1waCcsICc3LjAnLCAnLXRuJywgJzgnLCAnLW1hJywgJzIwMCcsICctaW1hZScsICc8aW5maWxlLm1hZT4nLCAnLW9tYWUnLCAnPG91dGZpbGUubWFlPic=

>  <r_lp_tautomer_probability>  (317) 
1

>  <r_epik_Ionization_Penalty>  (317) 
4.33953e-07

>  <r_epik_Ionization_Penalty_Charging>  (317) 
0

>  <r_epik_Ionization_Penalty_Neutral>  (317) 
4.33953e-07

>  <r_epik_State_Penalty>  (317) 
-0

>  <r_epik_Charging_Adjusted_Penalty>  (317) 
0

>  <i_epik_Tot_Q>  (317) 
0

>  <i_epik_Tot_abs_Q>  (317) 
0

>  <s_lp_Force_Field>  (317) 
OPLS3e

>  <r_lp_Energy>  (317) 
187.542

>  <b_lp_Chiralities_Consistent>  (317) 
1

>  <s_lp_Variant>  (317) 
78:0-2

>  <s_i_glide_gridfile>  (317) 
pfpi4k_grid

>  <i_i_glide_lignum>  (317) 
32

>  <i_i_glide_rotatable_bonds>  (317) 
4

>  <r_i_docking_score>  (317) 
-1.68934

>  <r_i_glide_ligand_efficiency>  (317) 
-0.0482669

>  <r_i_glide_ligand_efficiency_sa>  (317) 
-0.157884

>  <r_i_glide_ligand_efficiency_ln>  (317) 
-0.370848

>  <r_i_glide_gscore>  (317) 
-1.68934

>  <r_i_glide_lipo>  (317) 
-0.306387

>  <r_i_glide_hbond>  (317) 
0

>  <r_i_glide_metal>  (317) 
-0

>  <r_i_glide_rewards>  (317) 
-0.063894

>  <r_i_glide_evdw>  (317) 
-20.3121

>  <r_i_glide_ecoul>  (317) 
-2.02304

>  <r_i_glide_erotb>  (317) 
0

>  <r_i_glide_esite>  (317) 
0

>  <r_i_glide_emodel>  (317) 
-22.7366

>  <r_i_glide_energy>  (317) 
-22.3351

>  <r_i_glide_einternal>  (317) 
2.95017

>  <r_i_glide_intrahb_reward>  (317) 
-0

>  <i_i_glide_confnum>  (317) 
2

>  <i_i_glide_posenum>  (317) 
13

>  <r_i_glide_eff_state_penalty>  (317) 
0

>  <ligand_id>  (317) 
78

>  <original_smiles>  (317) 
COC1CCC(C)(C)C2C(O)C(O)C3C(O)C4C5(OC3(C)C)C(C)=CC3C=C(C)OC3C5OCC124

>  <smiles>  (317) 
[H]OC1([H])C([H])(O[H])C2([H])C(C([H])([H])[H])(C([H])([H])[H])C([H])([H])C([H])([H])C([H])(OC([H])([H])[H])C23C([H])([H])OC2([H])C4([H])OC(C([H])([H])[H])=C([H])C4([H])C([H])=C(C([H])([H])[H])C24OC(C([H])([H])[H])(C([H])([H])[H])C1([H])C([H])(O[H])C43[H]

$$$$
78:3:0
     RDKit          3D

 77 82  0  0  1  0  0  0  0  0999 V2000
   -0.3370   -8.4344    2.6027 C   0  0  0  0  0  0  0  0  0  0  0  0
    0.9865   -8.2284    3.0729 O   0  0  0  0  0  0  0  0  0  0  0  0
    1.7947   -9.3960    3.2298 C   0  0  2  0  0  0  0  0  0  0  0  0
    1.0960  -10.4993    4.0701 C   0  0  0  0  0  0  0  0  0  0  0  0
    1.9492  -11.7574    4.2237 C   0  0  0  0  0  0  0  0  0  0  0  0
    3.4157  -11.5484    4.6837 C   0  0  0  0  0  0  0  0  0  0  0  0
    3.4887  -11.2020    6.1879 C   0  0  0  0  0  0  0  0  0  0  0  0
    4.0501  -12.9546    4.5310 C   0  0  0  0  0  0  0  0  0  0  0  0
    4.0607  -10.4280    3.7714 C   0  0  2  0  0  0  0  0  0  0  0  0
    5.6696  -10.3594    3.5688 C   0  0  1  0  0  0  0  0  0  0  0  0
    6.3415  -11.5912    3.6800 O   0  0  0  0  0  0  0  0  0  0  0  0
    6.2778   -9.7122    2.2206 C   0  0  1  0  0  0  0  0  0  0  0  0
    6.2661  -10.6743    1.1669 O   0  0  0  0  0  0  0  0  0  0  0  0
    5.8095   -8.3098    1.5975 C   0  0  1  0  0  0  0  0  0  0  0  0
    4.3256   -8.1454    1.6665 C   0  0  1  0  0  0  0  0  0  0  0  0
    3.6773   -9.1342    0.8992 O   0  0  0  0  0  0  0  0  0  0  0  0
    4.1461   -8.0158    3.1973 C   0  0  1  0  0  0  0  0  0  0  0  0
    4.4626   -6.5802    3.7333 C   0  0  2  0  0  0  0  0  0  0  0  0
    5.3235   -6.0424    2.7013 O   0  0  0  0  0  0  0  0  0  0  0  0
    6.3553   -6.8929    2.0717 C   0  0  0  0  0  0  0  0  0  0  0  0
    7.6412   -7.0043    2.9079 C   0  0  0  0  0  0  0  0  0  0  0  0
    6.7042   -6.0116    0.8489 C   0  0  0  0  0  0  0  0  0  0  0  0
    5.1457   -6.2504    5.1099 C   0  0  0  0  0  0  0  0  0  0  0  0
    6.1369   -7.1692    5.8030 C   0  0  0  0  0  0  0  0  0  0  0  0
    4.8790   -5.0752    5.7330 C   0  0  0  0  0  0  0  0  0  0  0  0
    3.8466   -4.0694    5.2738 C   0  0  1  0  0  0  0  0  0  0  0  0
    4.4856   -2.9341    4.5386 C   0  0  0  0  0  0  0  0  0  0  0  0
    4.0254   -2.8718    3.2941 C   0  0  0  0  0  0  0  0  0  0  0  0
    4.3682   -1.9142    2.1750 C   0  0  0  0  0  0  0  0  0  0  0  0
    3.0985   -3.8301    3.0109 O   0  0  0  0  0  0  0  0  0  0  0  0
    2.8707   -4.6060    4.1950 C   0  0  1  0  0  0  0  0  0  0  0  0
    3.0165   -6.1018    3.8731 C   0  0  2  0  0  0  0  0  0  0  0  0
    2.4061   -6.8901    4.9321 O   0  0  0  0  0  0  0  0  0  0  0  0
    2.8657   -8.2617    5.1708 C   0  0  0  0  0  0  0  0  0  0  0  0
    3.2069   -9.0427    3.8501 C   0  0  1  0  0  0  0  0  0  0  0  0
   -0.7941   -7.4797    2.3543 H   0  0  0  0  0  0  0  0  0  0  0  0
   -0.9541   -8.8877    3.3827 H   0  0  0  0  0  0  0  0  0  0  0  0
   -0.3689   -9.0676    1.7154 H   0  0  0  0  0  0  0  0  0  0  0  0
    1.8861   -9.8404    2.2426 H   0  0  0  0  0  0  0  0  0  0  0  0
    0.7644  -10.1342    5.0402 H   0  0  0  0  0  0  0  0  0  0  0  0
    0.1811  -10.8243    3.5825 H   0  0  0  0  0  0  0  0  0  0  0  0
    1.4325  -12.4457    4.8906 H   0  0  0  0  0  0  0  0  0  0  0  0
    1.9597  -12.2568    3.2531 H   0  0  0  0  0  0  0  0  0  0  0  0
    4.3938  -10.6457    6.4375 H   0  0  0  0  0  0  0  0  0  0  0  0
    3.4682  -12.1035    6.8099 H   0  0  0  0  0  0  0  0  0  0  0  0
    2.6240  -10.6254    6.5122 H   0  0  0  0  0  0  0  0  0  0  0  0
    4.9888  -13.0531    5.0786 H   0  0  0  0  0  0  0  0  0  0  0  0
    4.2108  -13.2019    3.4772 H   0  0  0  0  0  0  0  0  0  0  0  0
    3.4101  -13.7300    4.9487 H   0  0  0  0  0  0  0  0  0  0  0  0
    3.8118  -10.8379    2.7974 H   0  0  0  0  0  0  0  0  0  0  0  0
    6.0951   -9.8520    4.4271 H   0  0  0  0  0  0  0  0  0  0  0  0
    5.9670  -12.1913    3.0518 H   0  0  0  0  0  0  0  0  0  0  0  0
    7.3475   -9.6191    2.3950 H   0  0  0  0  0  0  0  0  0  0  0  0
    5.3938  -11.0292    0.9809 H   0  0  0  0  0  0  0  0  0  0  0  0
    6.0768   -8.3938    0.5495 H   0  0  0  0  0  0  0  0  0  0  0  0
    3.9997   -7.2262    1.1816 H   0  0  0  0  0  0  0  0  0  0  0  0
    3.9115  -10.0022    1.1956 H   0  0  0  0  0  0  0  0  0  0  0  0
    5.0407   -8.2292    3.7228 H   0  0  0  0  0  0  0  0  0  0  0  0
    8.4934   -7.2862    2.2854 H   0  0  0  0  0  0  0  0  0  0  0  0
    7.5584   -7.7831    3.6573 H   0  0  0  0  0  0  0  0  0  0  0  0
    7.8905   -6.0625    3.4021 H   0  0  0  0  0  0  0  0  0  0  0  0
    7.4943   -6.4558    0.2390 H   0  0  0  0  0  0  0  0  0  0  0  0
    7.0504   -5.0222    1.1532 H   0  0  0  0  0  0  0  0  0  0  0  0
    5.8304   -5.8666    0.2086 H   0  0  0  0  0  0  0  0  0  0  0  0
    5.9374   -8.2224    5.6552 H   0  0  0  0  0  0  0  0  0  0  0  0
    6.0674   -7.0269    6.8779 H   0  0  0  0  0  0  0  0  0  0  0  0
    7.1680   -6.9406    5.5399 H   0  0  0  0  0  0  0  0  0  0  0  0
    5.3663   -4.8364    6.6652 H   0  0  0  0  0  0  0  0  0  0  0  0
    3.3099   -3.6905    6.1438 H   0  0  0  0  0  0  0  0  0  0  0  0
    5.1953   -2.2542    4.9889 H   0  0  0  0  0  0  0  0  0  0  0  0
    5.0767   -1.1468    2.4756 H   0  0  0  0  0  0  0  0  0  0  0  0
    3.4595   -1.4395    1.8130 H   0  0  0  0  0  0  0  0  0  0  0  0
    4.7993   -2.4830    1.3452 H   0  0  0  0  0  0  0  0  0  0  0  0
    1.8481   -4.3953    4.5134 H   0  0  0  0  0  0  0  0  0  0  0  0
    2.4687   -6.2717    2.9465 H   0  0  0  0  0  0  0  0  0  0  0  0
    3.7194   -8.2530    5.8482 H   0  0  0  0  0  0  0  0  0  0  0  0
    2.0745   -8.7136    5.7631 H   0  0  0  0  0  0  0  0  0  0  0  0
  1  2  1  0
  1 36  1  0
  1 37  1  0
  1 38  1  0
  2  3  1  0
  3 35  1  0
  3  4  1  0
  3 39  1  6
  4  5  1  0
  4 40  1  0
  4 41  1  0
  5  6  1  0
  5 42  1  0
  5 43  1  0
  6  7  1  0
  6  8  1  0
  6  9  1  0
  7 44  1  0
  7 45  1  0
  7 46  1  0
  8 47  1  0
  8 48  1  0
  8 49  1  0
  9 35  1  0
  9 10  1  0
  9 50  1  6
 10 11  1  0
 10 12  1  0
 10 51  1  1
 11 52  1  0
 12 13  1  0
 12 14  1  0
 12 53  1  1
 13 54  1  0
 14 20  1  0
 14 15  1  0
 14 55  1  6
 15 16  1  0
 15 17  1  0
 15 56  1  6
 16 57  1  0
 17 35  1  0
 17 18  1  0
 17 58  1  1
 18 32  1  0
 18 19  1  6
 18 23  1  0
 19 20  1  0
 20 21  1  0
 20 22  1  0
 21 59  1  0
 21 60  1  0
 21 61  1  0
 22 62  1  0
 22 63  1  0
 22 64  1  0
 23 24  1  0
 23 25  2  0
 24 65  1  0
 24 66  1  0
 24 67  1  0
 25 26  1  0
 25 68  1  0
 26 31  1  0
 26 27  1  0
 26 69  1  1
 27 28  2  0
 27 70  1  0
 28 29  1  0
 28 30  1  0
 29 71  1  0
 29 72  1  0
 29 73  1  0
 30 31  1  0
 31 32  1  0
 31 74  1  1
 32 33  1  0
 32 75  1  6
 33 34  1  0
 35 34  1  1
 34 76  1  0
 34 77  1  0
M  END
>  <i_m_ct_stereo_status>  (318) 
1

>  <s_m_source_file>  (318) 
/var/tmp/pbs.5076255.sched01/tmpegbcst3k/90u3quomt0.sdf

>  <i_m_source_file_index>  (318) 
34

>  <i_lp_mmshare_version>  (318) 
48012

>  <i_f3d_flags>  (318) 
0

>  <s_epik_input>  (318) 
W0NIM11PW0NAQEhdMVtDSDJdW0NIMl1DKFtDSDNdKShbQ0gzXSlbQ0BIXShbQ0BASF0oW09IXSlbQ0BASF0oW09IXSlbQ0BASF0oW0NASF0yW09IXSlDKE8zKShbQ0gzXSlbQ0gzXSlbQ0BdMShbQ0BASF0yW0NAXTM0NSlbQ0gyXU9bQ0BASF01W0NASF02W0NAQEhdKFtDSF09QzRbQ0gzXSlbQ0hdPUMoTzYpW0NIM10=

>  <s_epik_cmdline>  (318) 
J2VwaWtfcHl0aG9uJywgJy1waHQnLCAnMi4wJywgJy1waCcsICc3LjAnLCAnLXRuJywgJzgnLCAnLW1hJywgJzIwMCcsICctaW1hZScsICc8aW5maWxlLm1hZT4nLCAnLW9tYWUnLCAnPG91dGZpbGUubWFlPic=

>  <r_lp_tautomer_probability>  (318) 
1

>  <r_epik_Ionization_Penalty>  (318) 
4.33953e-07

>  <r_epik_Ionization_Penalty_Charging>  (318) 
0

>  <r_epik_Ionization_Penalty_Neutral>  (318) 
4.33953e-07

>  <r_epik_State_Penalty>  (318) 
-0

>  <r_epik_Charging_Adjusted_Penalty>  (318) 
0

>  <i_epik_Tot_Q>  (318) 
0

>  <i_epik_Tot_abs_Q>  (318) 
0

>  <s_lp_Force_Field>  (318) 
OPLS3e

>  <r_lp_Energy>  (318) 
149.243

>  <b_lp_Chiralities_Consistent>  (318) 
1

>  <s_lp_Variant>  (318) 
78:0-4

>  <s_i_glide_gridfile>  (318) 
pfpi4k_grid

>  <i_i_glide_lignum>  (318) 
34

>  <i_i_glide_rotatable_bonds>  (318) 
4

>  <r_i_docking_score>  (318) 
-2.48084

>  <r_i_glide_ligand_efficiency>  (318) 
-0.0708813

>  <r_i_glide_ligand_efficiency_sa>  (318) 
-0.231857

>  <r_i_glide_ligand_efficiency_ln>  (318) 
-0.544601

>  <r_i_glide_gscore>  (318) 
-2.48084

>  <r_i_glide_lipo>  (318) 
-0.237883

>  <r_i_glide_hbond>  (318) 
0

>  <r_i_glide_metal>  (318) 
-0

>  <r_i_glide_rewards>  (318) 
-0.063894

>  <r_i_glide_evdw>  (318) 
-21.2799

>  <r_i_glide_ecoul>  (318) 
-7.4338

>  <r_i_glide_erotb>  (318) 
0

>  <r_i_glide_esite>  (318) 
0

>  <r_i_glide_emodel>  (318) 
-32.9346

>  <r_i_glide_energy>  (318) 
-28.7138

>  <r_i_glide_einternal>  (318) 
1.02332

>  <r_i_glide_intrahb_reward>  (318) 
-0

>  <i_i_glide_confnum>  (318) 
2

>  <i_i_glide_posenum>  (318) 
3

>  <r_i_glide_eff_state_penalty>  (318) 
0

>  <ligand_id>  (318) 
78

>  <original_smiles>  (318) 
COC1CCC(C)(C)C2C(O)C(O)C3C(O)C4C5(OC3(C)C)C(C)=CC3C=C(C)OC3C5OCC124

>  <smiles>  (318) 
[H]OC1([H])C([H])(O[H])C2([H])C(C([H])([H])[H])(C([H])([H])[H])C([H])([H])C([H])([H])C([H])(OC([H])([H])[H])C23C([H])([H])OC2([H])C4([H])OC(C([H])([H])[H])=C([H])C4([H])C([H])=C(C([H])([H])[H])C24OC(C([H])([H])[H])(C([H])([H])[H])C1([H])C([H])(O[H])C43[H]

$$$$
78:3:1
     RDKit          3D

 77 82  0  0  1  0  0  0  0  0999 V2000
    1.4124   -4.0190   -1.5189 C   0  0  0  0  0  0  0  0  0  0  0  0
    2.1526   -4.3440   -0.3513 O   0  0  0  0  0  0  0  0  0  0  0  0
    3.0537   -3.3479    0.1085 C   0  0  2  0  0  0  0  0  0  0  0  0
    4.1791   -3.0937   -0.9197 C   0  0  0  0  0  0  0  0  0  0  0  0
    5.1370   -1.9945   -0.4562 C   0  0  0  0  0  0  0  0  0  0  0  0
    5.6865   -2.1316    0.9932 C   0  0  0  0  0  0  0  0  0  0  0  0
    6.7660   -3.2279    1.0723 C   0  0  0  0  0  0  0  0  0  0  0  0
    6.3950   -0.7831    1.2162 C   0  0  0  0  0  0  0  0  0  0  0  0
    4.4754   -2.3890    1.9687 C   0  0  2  0  0  0  0  0  0  0  0  0
    4.5625   -2.0043    3.5490 C   0  0  1  0  0  0  0  0  0  0  0  0
    5.4071   -0.9199    3.8455 O   0  0  0  0  0  0  0  0  0  0  0  0
    3.2282   -1.6438    4.3885 C   0  0  1  0  0  0  0  0  0  0  0  0
    2.8878   -0.3069    4.0524 O   0  0  0  0  0  0  0  0  0  0  0  0
    1.8637   -2.5038    4.3472 C   0  0  1  0  0  0  0  0  0  0  0  0
    1.5972   -2.9621    2.9484 C   0  0  1  0  0  0  0  0  0  0  0  0
    1.5259   -1.7921    2.1718 O   0  0  0  0  0  0  0  0  0  0  0  0
    2.7448   -3.9827    2.7494 C   0  0  1  0  0  0  0  0  0  0  0  0
    2.4702   -5.3732    3.4002 C   0  0  2  0  0  0  0  0  0  0  0  0
    1.4811   -5.0506    4.4101 O   0  0  0  0  0  0  0  0  0  0  0  0
    1.6142   -3.8143    5.2169 C   0  0  0  0  0  0  0  0  0  0  0  0
    2.6169   -3.9367    6.3751 C   0  0  0  0  0  0  0  0  0  0  0  0
    0.2075   -3.7625    5.8469 C   0  0  0  0  0  0  0  0  0  0  0  0
    3.5625   -6.2758    4.0891 C   0  0  0  0  0  0  0  0  0  0  0  0
    4.8138   -5.7243    4.7512 C   0  0  0  0  0  0  0  0  0  0  0  0
    3.4046   -7.6215    4.1109 C   0  0  0  0  0  0  0  0  0  0  0  0
    2.2993   -8.3761    3.4118 C   0  0  1  0  0  0  0  0  0  0  0  0
    1.2107   -8.7537    4.3614 C   0  0  0  0  0  0  0  0  0  0  0  0
    0.0629   -8.1929    3.9922 C   0  0  0  0  0  0  0  0  0  0  0  0
   -1.3031   -8.2633    4.6304 C   0  0  0  0  0  0  0  0  0  0  0  0
    0.1618   -7.4367    2.8634 O   0  0  0  0  0  0  0  0  0  0  0  0
    1.5098   -7.5354    2.3766 C   0  0  1  0  0  0  0  0  0  0  0  0
    2.0621   -6.1247    2.1334 C   0  0  2  0  0  0  0  0  0  0  0  0
    3.2341   -6.1999    1.2767 O   0  0  0  0  0  0  0  0  0  0  0  0
    4.2522   -5.1483    1.3448 C   0  0  0  0  0  0  0  0  0  0  0  0
    3.6451   -3.7126    1.5307 C   0  0  1  0  0  0  0  0  0  0  0  0
    0.6648   -4.7998   -1.6415 H   0  0  0  0  0  0  0  0  0  0  0  0
    2.0356   -4.0050   -2.4165 H   0  0  0  0  0  0  0  0  0  0  0  0
    0.9097   -3.0547   -1.4622 H   0  0  0  0  0  0  0  0  0  0  0  0
    2.5064   -2.4134    0.1186 H   0  0  0  0  0  0  0  0  0  0  0  0
    4.7151   -3.9994   -1.1835 H   0  0  0  0  0  0  0  0  0  0  0  0
    3.7541   -2.7524   -1.8598 H   0  0  0  0  0  0  0  0  0  0  0  0
    5.9594   -1.9256   -1.1649 H   0  0  0  0  0  0  0  0  0  0  0  0
    4.6026   -1.0462   -0.5326 H   0  0  0  0  0  0  0  0  0  0  0  0
    6.8318   -3.6428    2.0790 H   0  0  0  0  0  0  0  0  0  0  0  0
    7.7565   -2.8553    0.8012 H   0  0  0  0  0  0  0  0  0  0  0  0
    6.5664   -4.0511    0.3934 H   0  0  0  0  0  0  0  0  0  0  0  0
    7.0641   -0.8243    2.0745 H   0  0  0  0  0  0  0  0  0  0  0  0
    5.6841    0.0287    1.3685 H   0  0  0  0  0  0  0  0  0  0  0  0
    7.0169   -0.5119    0.3625 H   0  0  0  0  0  0  0  0  0  0  0  0
    3.8605   -1.5521    1.6602 H   0  0  0  0  0  0  0  0  0  0  0  0
    5.0874   -2.8019    4.0592 H   0  0  0  0  0  0  0  0  0  0  0  0
    4.9713   -0.1243    3.5379 H   0  0  0  0  0  0  0  0  0  0  0  0
    3.5071   -1.5639    5.4404 H   0  0  0  0  0  0  0  0  0  0  0  0
    2.4847   -0.3249    3.1768 H   0  0  0  0  0  0  0  0  0  0  0  0
    1.0638   -1.8106    4.6259 H   0  0  0  0  0  0  0  0  0  0  0  0
    0.6269   -3.4539    2.8819 H   0  0  0  0  0  0  0  0  0  0  0  0
    1.4648   -2.0172    1.2518 H   0  0  0  0  0  0  0  0  0  0  0  0
    3.4478   -3.9235    3.5396 H   0  0  0  0  0  0  0  0  0  0  0  0
    2.4153   -3.1944    7.1501 H   0  0  0  0  0  0  0  0  0  0  0  0
    3.6326   -3.7455    6.0439 H   0  0  0  0  0  0  0  0  0  0  0  0
    2.5739   -4.9235    6.8397 H   0  0  0  0  0  0  0  0  0  0  0  0
    0.0838   -2.8999    6.5075 H   0  0  0  0  0  0  0  0  0  0  0  0
    0.0060   -4.6627    6.4371 H   0  0  0  0  0  0  0  0  0  0  0  0
   -0.5656   -3.6996    5.0754 H   0  0  0  0  0  0  0  0  0  0  0  0
    5.2120   -4.8367    4.2813 H   0  0  0  0  0  0  0  0  0  0  0  0
    5.6138   -6.4581    4.6699 H   0  0  0  0  0  0  0  0  0  0  0  0
    4.6744   -5.5587    5.8166 H   0  0  0  0  0  0  0  0  0  0  0  0
    4.1436   -8.2423    4.5980 H   0  0  0  0  0  0  0  0  0  0  0  0
    2.7166   -9.2810    2.9569 H   0  0  0  0  0  0  0  0  0  0  0  0
    1.3519   -9.4166    5.2038 H   0  0  0  0  0  0  0  0  0  0  0  0
   -1.3123   -8.9175    5.5061 H   0  0  0  0  0  0  0  0  0  0  0  0
   -2.0252   -8.6479    3.9132 H   0  0  0  0  0  0  0  0  0  0  0  0
   -1.6090   -7.2599    4.9154 H   0  0  0  0  0  0  0  0  0  0  0  0
    1.4611   -8.0898    1.4379 H   0  0  0  0  0  0  0  0  0  0  0  0
    1.2829   -5.5770    1.6056 H   0  0  0  0  0  0  0  0  0  0  0  0
    4.9647   -5.3688    2.1338 H   0  0  0  0  0  0  0  0  0  0  0  0
    4.8246   -5.2730    0.4315 H   0  0  0  0  0  0  0  0  0  0  0  0
  1  2  1  0
  1 36  1  0
  1 37  1  0
  1 38  1  0
  2  3  1  0
  3 35  1  0
  3  4  1  0
  3 39  1  1
  4  5  1  0
  4 40  1  0
  4 41  1  0
  5  6  1  0
  5 42  1  0
  5 43  1  0
  6  7  1  0
  6  8  1  0
  6  9  1  0
  7 44  1  0
  7 45  1  0
  7 46  1  0
  8 47  1  0
  8 48  1  0
  8 49  1  0
  9 35  1  0
  9 10  1  0
  9 50  1  6
 10 11  1  0
 10 12  1  0
 10 51  1  1
 11 52  1  0
 12 13  1  0
 12 14  1  0
 12 53  1  1
 13 54  1  0
 14 20  1  0
 14 15  1  0
 14 55  1  1
 15 16  1  0
 15 17  1  0
 15 56  1  1
 16 57  1  0
 17 35  1  0
 17 18  1  0
 17 58  1  1
 18 32  1  0
 18 19  1  1
 18 23  1  0
 19 20  1  0
 20 21  1  0
 20 22  1  0
 21 59  1  0
 21 60  1  0
 21 61  1  0
 22 62  1  0
 22 63  1  0
 22 64  1  0
 23 24  1  0
 23 25  2  0
 24 65  1  0
 24 66  1  0
 24 67  1  0
 25 26  1  0
 25 68  1  0
 26 31  1  0
 26 27  1  0
 26 69  1  6
 27 28  2  0
 27 70  1  0
 28 29  1  0
 28 30  1  0
 29 71  1  0
 29 72  1  0
 29 73  1  0
 30 31  1  0
 31 32  1  0
 31 74  1  6
 32 33  1  0
 32 75  1  6
 33 34  1  0
 35 34  1  6
 34 76  1  0
 34 77  1  0
M  END
>  <i_m_ct_stereo_status>  (319) 
1

>  <s_m_source_file>  (319) 
/var/tmp/pbs.5076255.sched01/tmpegbcst3k/90u3quomt0.sdf

>  <i_m_source_file_index>  (319) 
34

>  <i_lp_mmshare_version>  (319) 
48012

>  <i_f3d_flags>  (319) 
0

>  <s_epik_input>  (319) 
W0NIM11PW0NAQEhdMVtDSDJdW0NIMl1DKFtDSDNdKShbQ0gzXSlbQ0BIXShbQ0BASF0oW09IXSlbQ0BASF0oW09IXSlbQ0BASF0oW0NASF0yW09IXSlDKE8zKShbQ0gzXSlbQ0gzXSlbQ0BdMShbQ0BASF0yW0NAXTM0NSlbQ0gyXU9bQ0BASF01W0NASF02W0NAQEhdKFtDSF09QzRbQ0gzXSlbQ0hdPUMoTzYpW0NIM10=

>  <s_epik_cmdline>  (319) 
J2VwaWtfcHl0aG9uJywgJy1waHQnLCAnMi4wJywgJy1waCcsICc3LjAnLCAnLXRuJywgJzgnLCAnLW1hJywgJzIwMCcsICctaW1hZScsICc8aW5maWxlLm1hZT4nLCAnLW9tYWUnLCAnPG91dGZpbGUubWFlPic=

>  <r_lp_tautomer_probability>  (319) 
1

>  <r_epik_Ionization_Penalty>  (319) 
4.33953e-07

>  <r_epik_Ionization_Penalty_Charging>  (319) 
0

>  <r_epik_Ionization_Penalty_Neutral>  (319) 
4.33953e-07

>  <r_epik_State_Penalty>  (319) 
-0

>  <r_epik_Charging_Adjusted_Penalty>  (319) 
0

>  <i_epik_Tot_Q>  (319) 
0

>  <i_epik_Tot_abs_Q>  (319) 
0

>  <s_lp_Force_Field>  (319) 
OPLS3e

>  <r_lp_Energy>  (319) 
149.243

>  <b_lp_Chiralities_Consistent>  (319) 
1

>  <s_lp_Variant>  (319) 
78:0-4

>  <s_i_glide_gridfile>  (319) 
pfpi4k_grid

>  <i_i_glide_lignum>  (319) 
34

>  <i_i_glide_rotatable_bonds>  (319) 
4

>  <r_i_docking_score>  (319) 
-2.34485

>  <r_i_glide_ligand_efficiency>  (319) 
-0.0669958

>  <r_i_glide_ligand_efficiency_sa>  (319) 
-0.219148

>  <r_i_glide_ligand_efficiency_ln>  (319) 
-0.514747

>  <r_i_glide_gscore>  (319) 
-2.34485

>  <r_i_glide_lipo>  (319) 
-0.296752

>  <r_i_glide_hbond>  (319) 
0

>  <r_i_glide_metal>  (319) 
-0

>  <r_i_glide_rewards>  (319) 
-0.563894

>  <r_i_glide_evdw>  (319) 
-22.5089

>  <r_i_glide_ecoul>  (319) 
-2.39174

>  <r_i_glide_erotb>  (319) 
0

>  <r_i_glide_esite>  (319) 
0

>  <r_i_glide_emodel>  (319) 
-34.0262

>  <r_i_glide_energy>  (319) 
-24.9006

>  <r_i_glide_einternal>  (319) 
0.872852

>  <r_i_glide_intrahb_reward>  (319) 
-0.5

>  <i_i_glide_confnum>  (319) 
2

>  <i_i_glide_posenum>  (319) 
29

>  <r_i_glide_eff_state_penalty>  (319) 
0

>  <ligand_id>  (319) 
78

>  <original_smiles>  (319) 
COC1CCC(C)(C)C2C(O)C(O)C3C(O)C4C5(OC3(C)C)C(C)=CC3C=C(C)OC3C5OCC124

>  <smiles>  (319) 
[H]OC1([H])C([H])(O[H])C2([H])C(C([H])([H])[H])(C([H])([H])[H])C([H])([H])C([H])([H])C([H])(OC([H])([H])[H])C23C([H])([H])OC2([H])C4([H])OC(C([H])([H])[H])=C([H])C4([H])C([H])=C(C([H])([H])[H])C24OC(C([H])([H])[H])(C([H])([H])[H])C1([H])C([H])(O[H])C43[H]

$$$$
78:3:2
     RDKit          3D

 77 82  0  0  1  0  0  0  0  0999 V2000
    1.3770   -4.0244   -1.5370 C   0  0  0  0  0  0  0  0  0  0  0  0
    2.1402   -4.3096   -0.3756 O   0  0  0  0  0  0  0  0  0  0  0  0
    3.0518   -3.3013    0.0265 C   0  0  2  0  0  0  0  0  0  0  0  0
    4.1235   -3.0355   -1.0584 C   0  0  0  0  0  0  0  0  0  0  0  0
    5.0872   -1.9213   -0.6391 C   0  0  0  0  0  0  0  0  0  0  0  0
    5.7142   -2.0443    0.7830 C   0  0  0  0  0  0  0  0  0  0  0  0
    6.8071   -3.1347    0.8138 C   0  0  0  0  0  0  0  0  0  0  0  0
    6.4116   -0.6768    0.9675 C   0  0  0  0  0  0  0  0  0  0  0  0
    4.5419   -2.3213    1.8126 C   0  0  2  0  0  0  0  0  0  0  0  0
    4.6863   -1.9242    3.3845 C   0  0  1  0  0  0  0  0  0  0  0  0
    5.5102   -0.8086    3.6084 O   0  0  0  0  0  0  0  0  0  0  0  0
    3.3833   -1.5992    4.2937 C   0  0  1  0  0  0  0  0  0  0  0  0
    2.9728   -0.2721    4.0052 O   0  0  0  0  0  0  0  0  0  0  0  0
    2.0345   -2.4824    4.3197 C   0  0  1  0  0  0  0  0  0  0  0  0
    1.7048   -2.9376    2.9258 C   0  0  1  0  0  0  0  0  0  0  0  0
    1.5285   -1.7829    2.1286 O   0  0  0  0  0  0  0  0  0  0  0  0
    2.8649   -3.9372    2.6710 C   0  0  1  0  0  0  0  0  0  0  0  0
    2.6480   -5.3319    3.3429 C   0  0  2  0  0  0  0  0  0  0  0  0
    1.7111   -5.0343    4.4123 O   0  0  0  0  0  0  0  0  0  0  0  0
    1.8552   -3.7927    5.2068 C   0  0  0  0  0  0  0  0  0  0  0  0
    2.9238   -3.8906    6.3083 C   0  0  0  0  0  0  0  0  0  0  0  0
    0.4792   -3.7553    5.8961 C   0  0  0  0  0  0  0  0  0  0  0  0
    3.7875   -6.2157    3.9796 C   0  0  0  0  0  0  0  0  0  0  0  0
    5.0666   -5.6490    4.5812 C   0  0  0  0  0  0  0  0  0  0  0  0
    3.6562   -7.5660    4.0041 C   0  0  0  0  0  0  0  0  0  0  0  0
    2.5253   -8.3442    3.3679 C   0  0  1  0  0  0  0  0  0  0  0  0
    1.4918   -8.7415    4.3696 C   0  0  0  0  0  0  0  0  0  0  0  0
    0.3231   -8.1895    4.0598 C   0  0  0  0  0  0  0  0  0  0  0  0
   -1.0100   -8.2704    4.7630 C   0  0  0  0  0  0  0  0  0  0  0  0
    0.3577   -7.4338    2.9284 O   0  0  0  0  0  0  0  0  0  0  0  0
    1.6764   -7.5186    2.3725 C   0  0  1  0  0  0  0  0  0  0  0  0
    2.1960   -6.1003    2.0978 C   0  0  2  0  0  0  0  0  0  0  0  0
    3.3252   -6.1526    1.1797 O   0  0  0  0  0  0  0  0  0  0  0  0
    4.3337   -5.0903    1.2050 C   0  0  0  0  0  0  0  0  0  0  0  0
    3.7137   -3.6624    1.4153 C   0  0  1  0  0  0  0  0  0  0  0  0
    0.6205   -4.8038   -1.6217 H   0  0  0  0  0  0  0  0  0  0  0  0
    1.9751   -4.0326   -2.4468 H   0  0  0  0  0  0  0  0  0  0  0  0
    0.8665   -3.0637   -1.4929 H   0  0  0  0  0  0  0  0  0  0  0  0
    2.4879   -2.3740    0.0749 H   0  0  0  0  0  0  0  0  0  0  0  0
    4.6642   -3.9332   -1.3414 H   0  0  0  0  0  0  0  0  0  0  0  0
    3.6470   -2.6943   -1.9743 H   0  0  0  0  0  0  0  0  0  0  0  0
    5.8703   -1.8369   -1.3883 H   0  0  0  0  0  0  0  0  0  0  0  0
    4.5324   -0.9822   -0.6892 H   0  0  0  0  0  0  0  0  0  0  0  0
    6.9347   -3.5416    1.8183 H   0  0  0  0  0  0  0  0  0  0  0  0
    7.7728   -2.7465    0.4887 H   0  0  0  0  0  0  0  0  0  0  0  0
    6.5831   -3.9611    0.1413 H   0  0  0  0  0  0  0  0  0  0  0  0
    7.1441   -0.7192    1.7686 H   0  0  0  0  0  0  0  0  0  0  0  0
    5.6960    0.1203    1.1625 H   0  0  0  0  0  0  0  0  0  0  0  0
    6.9719   -0.3980    0.0853 H   0  0  0  0  0  0  0  0  0  0  0  0
    3.8848   -1.4996    1.5439 H   0  0  0  0  0  0  0  0  0  0  0  0
    5.2606   -2.7048    3.8710 H   0  0  0  0  0  0  0  0  0  0  0  0
    6.3474   -0.9865    3.2038 H   0  0  0  0  0  0  0  0  0  0  0  0
    3.7311   -1.5122    5.3220 H   0  0  0  0  0  0  0  0  0  0  0  0
    2.6435   -0.2602    3.1047 H   0  0  0  0  0  0  0  0  0  0  0  0
    1.2462   -1.7936    4.6380 H   0  0  0  0  0  0  0  0  0  0  0  0
    0.7452   -3.4548    2.8909 H   0  0  0  0  0  0  0  0  0  0  0  0
    1.5119   -2.0250    1.2121 H   0  0  0  0  0  0  0  0  0  0  0  0
    3.6068   -3.8756    3.4301 H   0  0  0  0  0  0  0  0  0  0  0  0
    2.7476   -3.1510    7.0911 H   0  0  0  0  0  0  0  0  0  0  0  0
    3.9207   -3.6848    5.9238 H   0  0  0  0  0  0  0  0  0  0  0  0
    2.9189   -4.8774    6.7736 H   0  0  0  0  0  0  0  0  0  0  0  0
    0.3775   -2.8920    6.5581 H   0  0  0  0  0  0  0  0  0  0  0  0
    0.3245   -4.6553    6.4964 H   0  0  0  0  0  0  0  0  0  0  0  0
   -0.3260   -3.7087    5.1589 H   0  0  0  0  0  0  0  0  0  0  0  0
    5.4258   -4.7558    4.0921 H   0  0  0  0  0  0  0  0  0  0  0  0
    5.8738   -6.3710    4.4642 H   0  0  0  0  0  0  0  0  0  0  0  0
    4.9741   -5.4840    5.6503 H   0  0  0  0  0  0  0  0  0  0  0  0
    4.4289   -8.1697    4.4595 H   0  0  0  0  0  0  0  0  0  0  0  0
    2.9369   -9.2361    2.8880 H   0  0  0  0  0  0  0  0  0  0  0  0
    1.6882   -9.3958    5.2060 H   0  0  0  0  0  0  0  0  0  0  0  0
   -0.9679   -8.9263    5.6353 H   0  0  0  0  0  0  0  0  0  0  0  0
   -1.7637   -8.6648    4.0808 H   0  0  0  0  0  0  0  0  0  0  0  0
   -1.3137   -7.2746    5.0781 H   0  0  0  0  0  0  0  0  0  0  0  0
    1.5907   -8.0682    1.4334 H   0  0  0  0  0  0  0  0  0  0  0  0
    1.3872   -5.5616    1.6090 H   0  0  0  0  0  0  0  0  0  0  0  0
    5.0900   -5.2959    1.9562 H   0  0  0  0  0  0  0  0  0  0  0  0
    4.8628   -5.2042    0.2666 H   0  0  0  0  0  0  0  0  0  0  0  0
  1  2  1  0
  1 36  1  0
  1 37  1  0
  1 38  1  0
  2  3  1  0
  3 35  1  0
  3  4  1  0
  3 39  1  1
  4  5  1  0
  4 40  1  0
  4 41  1  0
  5  6  1  0
  5 42  1  0
  5 43  1  0
  6  7  1  0
  6  8  1  0
  6  9  1  0
  7 44  1  0
  7 45  1  0
  7 46  1  0
  8 47  1  0
  8 48  1  0
  8 49  1  0
  9 35  1  0
  9 10  1  0
  9 50  1  6
 10 11  1  0
 10 12  1  0
 10 51  1  1
 11 52  1  0
 12 13  1  0
 12 14  1  0
 12 53  1  1
 13 54  1  0
 14 20  1  0
 14 15  1  0
 14 55  1  1
 15 16  1  0
 15 17  1  0
 15 56  1  1
 16 57  1  0
 17 35  1  0
 17 18  1  0
 17 58  1  1
 18 32  1  0
 18 19  1  1
 18 23  1  0
 19 20  1  0
 20 21  1  0
 20 22  1  0
 21 59  1  0
 21 60  1  0
 21 61  1  0
 22 62  1  0
 22 63  1  0
 22 64  1  0
 23 24  1  0
 23 25  2  0
 24 65  1  0
 24 66  1  0
 24 67  1  0
 25 26  1  0
 25 68  1  0
 26 31  1  0
 26 27  1  0
 26 69  1  6
 27 28  2  0
 27 70  1  0
 28 29  1  0
 28 30  1  0
 29 71  1  0
 29 72  1  0
 29 73  1  0
 30 31  1  0
 31 32  1  0
 31 74  1  6
 32 33  1  0
 32 75  1  6
 33 34  1  0
 35 34  1  6
 34 76  1  0
 34 77  1  0
M  END
>  <i_m_ct_stereo_status>  (320) 
1

>  <s_m_source_file>  (320) 
/var/tmp/pbs.5076255.sched01/tmpegbcst3k/90u3quomt0.sdf

>  <i_m_source_file_index>  (320) 
34

>  <i_lp_mmshare_version>  (320) 
48012

>  <i_f3d_flags>  (320) 
0

>  <s_epik_input>  (320) 
W0NIM11PW0NAQEhdMVtDSDJdW0NIMl1DKFtDSDNdKShbQ0gzXSlbQ0BIXShbQ0BASF0oW09IXSlbQ0BASF0oW09IXSlbQ0BASF0oW0NASF0yW09IXSlDKE8zKShbQ0gzXSlbQ0gzXSlbQ0BdMShbQ0BASF0yW0NAXTM0NSlbQ0gyXU9bQ0BASF01W0NASF02W0NAQEhdKFtDSF09QzRbQ0gzXSlbQ0hdPUMoTzYpW0NIM10=

>  <s_epik_cmdline>  (320) 
J2VwaWtfcHl0aG9uJywgJy1waHQnLCAnMi4wJywgJy1waCcsICc3LjAnLCAnLXRuJywgJzgnLCAnLW1hJywgJzIwMCcsICctaW1hZScsICc8aW5maWxlLm1hZT4nLCAnLW9tYWUnLCAnPG91dGZpbGUubWFlPic=

>  <r_lp_tautomer_probability>  (320) 
1

>  <r_epik_Ionization_Penalty>  (320) 
4.33953e-07

>  <r_epik_Ionization_Penalty_Charging>  (320) 
0

>  <r_epik_Ionization_Penalty_Neutral>  (320) 
4.33953e-07

>  <r_epik_State_Penalty>  (320) 
-0

>  <r_epik_Charging_Adjusted_Penalty>  (320) 
0

>  <i_epik_Tot_Q>  (320) 
0

>  <i_epik_Tot_abs_Q>  (320) 
0

>  <s_lp_Force_Field>  (320) 
OPLS3e

>  <r_lp_Energy>  (320) 
149.243

>  <b_lp_Chiralities_Consistent>  (320) 
1

>  <s_lp_Variant>  (320) 
78:0-4

>  <s_i_glide_gridfile>  (320) 
pfpi4k_grid

>  <i_i_glide_lignum>  (320) 
34

>  <i_i_glide_rotatable_bonds>  (320) 
4

>  <r_i_docking_score>  (320) 
-2.25164

>  <r_i_glide_ligand_efficiency>  (320) 
-0.0643324

>  <r_i_glide_ligand_efficiency_sa>  (320) 
-0.210436

>  <r_i_glide_ligand_efficiency_ln>  (320) 
-0.494284

>  <r_i_glide_gscore>  (320) 
-2.25164

>  <r_i_glide_lipo>  (320) 
-0.302831

>  <r_i_glide_hbond>  (320) 
0

>  <r_i_glide_metal>  (320) 
-0

>  <r_i_glide_rewards>  (320) 
-0.563894

>  <r_i_glide_evdw>  (320) 
-22.1827

>  <r_i_glide_ecoul>  (320) 
-1.83848

>  <r_i_glide_erotb>  (320) 
0

>  <r_i_glide_esite>  (320) 
0

>  <r_i_glide_emodel>  (320) 
-32.8183

>  <r_i_glide_energy>  (320) 
-24.0212

>  <r_i_glide_einternal>  (320) 
1.31595

>  <r_i_glide_intrahb_reward>  (320) 
-0.5

>  <i_i_glide_confnum>  (320) 
2

>  <i_i_glide_posenum>  (320) 
37

>  <r_i_glide_eff_state_penalty>  (320) 
0

>  <ligand_id>  (320) 
78

>  <original_smiles>  (320) 
COC1CCC(C)(C)C2C(O)C(O)C3C(O)C4C5(OC3(C)C)C(C)=CC3C=C(C)OC3C5OCC124

>  <smiles>  (320) 
[H]OC1([H])C([H])(O[H])C2([H])C(C([H])([H])[H])(C([H])([H])[H])C([H])([H])C([H])([H])C([H])(OC([H])([H])[H])C23C([H])([H])OC2([H])C4([H])OC(C([H])([H])[H])=C([H])C4([H])C([H])=C(C([H])([H])[H])C24OC(C([H])([H])[H])(C([H])([H])[H])C1([H])C([H])(O[H])C43[H]

$$$$
79:0:0
     RDKit          3D

 41 45  0  0  1  0  0  0  0  0999 V2000
    8.3093   -4.1205    1.1319 O   0  0  0  0  0  0  0  0  0  0  0  0
    7.6683   -3.6172    0.2182 C   0  0  0  0  0  0  0  0  0  0  0  0
    8.4081   -2.9882   -0.9152 C   0  0  0  0  0  0  0  0  0  0  0  0
    7.3137   -2.6960   -1.8871 C   0  0  0  0  0  0  0  0  0  0  0  0
    5.9575   -2.8649   -1.1872 C   0  0  1  0  0  0  0  0  0  0  0  0
    5.2666   -1.4838   -0.9325 C   0  0  2  0  0  0  0  0  0  0  0  0
    3.9263   -1.6171   -0.2198 C   0  0  0  0  0  0  0  0  0  0  0  0
    3.0173   -2.5081   -1.0774 C   0  0  1  0  0  0  0  0  0  0  0  0
    2.7269   -1.8357   -2.4458 C   0  0  0  0  0  0  0  0  0  0  0  0
    4.0332   -1.6136   -3.1775 C   0  0  1  0  0  0  0  0  0  0  0  0
    4.8827   -0.7689   -2.2268 C   0  0  0  0  0  0  0  0  0  0  0  0
    4.7008   -2.9835   -3.4335 C   0  0  0  0  0  0  0  0  0  0  0  0
    5.0080   -3.6825   -2.0943 C   0  0  2  0  0  0  0  0  0  0  0  0
    3.7066   -3.8547   -1.3688 C   0  0  0  0  0  0  0  0  0  0  0  0
    6.3240   -3.5576    0.0839 N   0  0  0  0  0  0  0  0  0  0  0  0
    5.3580   -4.0992    1.0501 C   0  0  0  0  0  0  0  0  0  0  0  0
    5.6453   -4.1417    2.5112 C   0  0  0  0  0  0  0  0  0  0  0  0
    5.6220   -5.4205    1.7148 C   0  0  0  0  0  0  0  0  0  0  0  0
    8.9124   -2.0933   -0.5462 H   0  0  0  0  0  0  0  0  0  0  0  0
    9.1400   -3.7017   -1.2998 H   0  0  0  0  0  0  0  0  0  0  0  0
    7.4841   -1.7468   -2.3314 H   0  0  0  0  0  0  0  0  0  0  0  0
    7.4243   -3.3894   -2.6914 H   0  0  0  0  0  0  0  0  0  0  0  0
    5.9410   -0.8563   -0.3549 H   0  0  0  0  0  0  0  0  0  0  0  0
    4.0781   -1.9480    0.7901 H   0  0  0  0  0  0  0  0  0  0  0  0
    3.4519   -0.6588   -0.0526 H   0  0  0  0  0  0  0  0  0  0  0  0
    2.0967   -2.7321   -0.5600 H   0  0  0  0  0  0  0  0  0  0  0  0
    2.0163   -2.4023   -3.0465 H   0  0  0  0  0  0  0  0  0  0  0  0
    2.2824   -0.8616   -2.2845 H   0  0  0  0  0  0  0  0  0  0  0  0
    3.8712   -1.0862   -4.1218 H   0  0  0  0  0  0  0  0  0  0  0  0
    4.4784    0.2202   -2.0909 H   0  0  0  0  0  0  0  0  0  0  0  0
    5.8136   -0.5070   -2.7136 H   0  0  0  0  0  0  0  0  0  0  0  0
    4.0740   -3.6008   -4.1035 H   0  0  0  0  0  0  0  0  0  0  0  0
    5.6708   -2.8493   -3.9217 H   0  0  0  0  0  0  0  0  0  0  0  0
    5.4355   -4.6520   -2.3361 H   0  0  0  0  0  0  0  0  0  0  0  0
    3.7439   -4.6371   -0.6714 H   0  0  0  0  0  0  0  0  0  0  0  0
    2.9548   -4.2299   -1.9685 H   0  0  0  0  0  0  0  0  0  0  0  0
    4.3058   -3.8791    0.9953 H   0  0  0  0  0  0  0  0  0  0  0  0
    6.5645   -3.6668    2.7714 H   0  0  0  0  0  0  0  0  0  0  0  0
    4.7968   -3.8803    3.1417 H   0  0  0  0  0  0  0  0  0  0  0  0
    4.7510   -6.0572    1.8321 H   0  0  0  0  0  0  0  0  0  0  0  0
    6.5463   -5.9190    1.4385 H   0  0  0  0  0  0  0  0  0  0  0  0
  1  2  2  0
  2 15  1  0
  2  3  1  0
  3  4  1  0
  3 19  1  0
  3 20  1  0
  4  5  1  0
  4 21  1  0
  4 22  1  0
  5 13  1  0
  5  6  1  0
  5 15  1  1
  6 11  1  0
  6  7  1  0
  6 23  1  1
  7  8  1  0
  7 24  1  0
  7 25  1  0
  8 14  1  0
  8  9  1  0
  8 26  1  1
  9 10  1  0
  9 27  1  0
  9 28  1  0
 10 11  1  0
 10 12  1  0
 10 29  1  6
 11 30  1  0
 11 31  1  0
 12 13  1  0
 12 32  1  0
 12 33  1  0
 13 14  1  0
 13 34  1  6
 14 35  1  0
 14 36  1  0
 15 16  1  0
 16 18  1  0
 16 17  1  0
 16 37  1  0
 17 18  1  0
 17 38  1  0
 17 39  1  0
 18 40  1  0
 18 41  1  0
M  END
>  <i_m_ct_stereo_status>  (321) 
1

>  <s_m_source_file>  (321) 
/var/tmp/pbs.5076255.sched01/tmpegbcst3k/90u3quomt0.sdf

>  <i_m_source_file_index>  (321) 
35

>  <i_lp_mmshare_version>  (321) 
48012

>  <i_f3d_flags>  (321) 
0

>  <s_epik_input>  (321) 
W0NIMl0xW0NIMl1bQ0hdMU4yQyg9TylbQ0gyXVtDSDJdW0NAXTIzW0NAQEhdNFtDSDJdW0NASF01W0NIMl1bQ0BASF0oW0NIMl00KVtDSDJdW0NAQEhdM1tDSDJdNQ==

>  <s_epik_cmdline>  (321) 
J2VwaWtfcHl0aG9uJywgJy1waHQnLCAnMi4wJywgJy1waCcsICc3LjAnLCAnLXRuJywgJzgnLCAnLW1hJywgJzIwMCcsICctaW1hZScsICc8aW5maWxlLm1hZT4nLCAnLW9tYWUnLCAnPG91dGZpbGUubWFlPic=

>  <r_lp_tautomer_probability>  (321) 
1

>  <r_epik_Ionization_Penalty>  (321) 
1.00232e-06

>  <r_epik_Ionization_Penalty_Charging>  (321) 
0

>  <r_epik_Ionization_Penalty_Neutral>  (321) 
1.00232e-06

>  <r_epik_State_Penalty>  (321) 
-0

>  <r_epik_Charging_Adjusted_Penalty>  (321) 
0

>  <i_epik_Tot_Q>  (321) 
0

>  <i_epik_Tot_abs_Q>  (321) 
0

>  <s_lp_Force_Field>  (321) 
OPLS3e

>  <r_lp_Energy>  (321) 
16.5354

>  <b_lp_Chiralities_Consistent>  (321) 
1

>  <s_lp_Variant>  (321) 
79:0-1

>  <s_i_glide_gridfile>  (321) 
pfpi4k_grid

>  <i_i_glide_lignum>  (321) 
35

>  <i_i_glide_rotatable_bonds>  (321) 
1

>  <r_i_docking_score>  (321) 
-2.58298

>  <r_i_glide_ligand_efficiency>  (321) 
-0.143499

>  <r_i_glide_ligand_efficiency_sa>  (321) 
-0.376073

>  <r_i_glide_ligand_efficiency_ln>  (321) 
-0.663941

>  <r_i_glide_gscore>  (321) 
-2.58298

>  <r_i_glide_lipo>  (321) 
-0.422751

>  <r_i_glide_hbond>  (321) 
0

>  <r_i_glide_metal>  (321) 
-0

>  <r_i_glide_rewards>  (321) 
-2.1108

>  <r_i_glide_evdw>  (321) 
-7.01677

>  <r_i_glide_ecoul>  (321) 
0.0818564

>  <r_i_glide_erotb>  (321) 
0.289128

>  <r_i_glide_esite>  (321) 
0

>  <r_i_glide_emodel>  (321) 
-5.91117

>  <r_i_glide_energy>  (321) 
-6.93491

>  <r_i_glide_einternal>  (321) 
3.06918

>  <r_i_glide_intrahb_reward>  (321) 
-0

>  <i_i_glide_confnum>  (321) 
4

>  <i_i_glide_posenum>  (321) 
21

>  <r_i_glide_eff_state_penalty>  (321) 
0

>  <ligand_id>  (321) 
79

>  <original_smiles>  (321) 
O=C1CCC2(C3CC4CC(C3)CC2C4)N1C1CC1

>  <smiles>  (321) 
[H]C1([H])C(=O)N(C2([H])C([H])([H])C2([H])[H])C2(C1([H])[H])C1([H])C([H])([H])C3([H])C([H])([H])C([H])(C1([H])[H])C([H])([H])C2([H])C3([H])[H]

$$$$
79:0:1
     RDKit          3D

 41 45  0  0  1  0  0  0  0  0999 V2000
    8.7600   -3.8746    1.1398 O   0  0  0  0  0  0  0  0  0  0  0  0
    8.0147   -3.5122    0.2235 C   0  0  0  0  0  0  0  0  0  0  0  0
    8.6098   -2.8797   -0.9696 C   0  0  0  0  0  0  0  0  0  0  0  0
    7.4377   -2.7310   -1.8838 C   0  0  0  0  0  0  0  0  0  0  0  0
    6.1511   -2.9592   -1.0771 C   0  0  1  0  0  0  0  0  0  0  0  0
    5.3755   -1.6275   -0.8238 C   0  0  2  0  0  0  0  0  0  0  0  0
    4.0838   -1.8505   -0.0249 C   0  0  0  0  0  0  0  0  0  0  0  0
    3.1749   -2.8013   -0.8074 C   0  0  1  0  0  0  0  0  0  0  0  0
    2.7645   -2.2509   -2.1659 C   0  0  0  0  0  0  0  0  0  0  0  0
    4.0195   -1.9436   -2.9875 C   0  0  1  0  0  0  0  0  0  0  0  0
    4.9202   -0.9822   -2.1633 C   0  0  0  0  0  0  0  0  0  0  0  0
    4.7807   -3.2450   -3.2763 C   0  0  0  0  0  0  0  0  0  0  0  0
    5.2156   -3.8385   -1.9177 C   0  0  2  0  0  0  0  0  0  0  0  0
    3.9621   -4.0152   -1.0833 C   0  0  0  0  0  0  0  0  0  0  0  0
    6.6821   -3.6477    0.1503 N   0  0  0  0  0  0  0  0  0  0  0  0
    5.8755   -4.2781    1.1875 C   0  0  0  0  0  0  0  0  0  0  0  0
    6.4252   -5.3875    2.0390 C   0  0  0  0  0  0  0  0  0  0  0  0
    5.4089   -5.7193    1.0207 C   0  0  0  0  0  0  0  0  0  0  0  0
    9.0519   -1.9184   -0.7052 H   0  0  0  0  0  0  0  0  0  0  0  0
    9.3644   -3.5287   -1.4162 H   0  0  0  0  0  0  0  0  0  0  0  0
    7.4961   -1.7383   -2.2872 H   0  0  0  0  0  0  0  0  0  0  0  0
    7.5135   -3.4262   -2.7215 H   0  0  0  0  0  0  0  0  0  0  0  0
    6.0306   -0.9357   -0.3065 H   0  0  0  0  0  0  0  0  0  0  0  0
    4.3046   -2.2069    0.9576 H   0  0  0  0  0  0  0  0  0  0  0  0
    3.5514   -0.9253    0.1567 H   0  0  0  0  0  0  0  0  0  0  0  0
    2.3362   -3.1287   -0.1868 H   0  0  0  0  0  0  0  0  0  0  0  0
    2.0616   -2.9308   -2.6608 H   0  0  0  0  0  0  0  0  0  0  0  0
    2.2554   -1.3238   -1.9684 H   0  0  0  0  0  0  0  0  0  0  0  0
    3.7023   -1.4740   -3.9150 H   0  0  0  0  0  0  0  0  0  0  0  0
    4.3875   -0.0459   -1.9730 H   0  0  0  0  0  0  0  0  0  0  0  0
    5.7741   -0.6858   -2.7386 H   0  0  0  0  0  0  0  0  0  0  0  0
    4.1414   -3.9541   -3.8168 H   0  0  0  0  0  0  0  0  0  0  0  0
    5.6314   -3.0637   -3.9256 H   0  0  0  0  0  0  0  0  0  0  0  0
    5.6899   -4.7771   -2.1148 H   0  0  0  0  0  0  0  0  0  0  0  0
    4.0058   -4.5082   -0.1882 H   0  0  0  0  0  0  0  0  0  0  0  0
    3.3308   -4.7040   -1.4643 H   0  0  0  0  0  0  0  0  0  0  0  0
    5.2826   -3.6391    1.8170 H   0  0  0  0  0  0  0  0  0  0  0  0
    7.4113   -5.7792    1.8218 H   0  0  0  0  0  0  0  0  0  0  0  0
    6.0785   -5.3868    3.0746 H   0  0  0  0  0  0  0  0  0  0  0  0
    4.3694   -5.8814    1.3347 H   0  0  0  0  0  0  0  0  0  0  0  0
    5.6583   -6.1339    0.0423 H   0  0  0  0  0  0  0  0  0  0  0  0
  1  2  2  0
  2 15  1  0
  2  3  1  0
  3  4  1  0
  3 19  1  0
  3 20  1  0
  4  5  1  0
  4 21  1  0
  4 22  1  0
  5 13  1  0
  5  6  1  0
  5 15  1  1
  6 11  1  0
  6  7  1  0
  6 23  1  1
  7  8  1  0
  7 24  1  0
  7 25  1  0
  8 14  1  0
  8  9  1  0
  8 26  1  1
  9 10  1  0
  9 27  1  0
  9 28  1  0
 10 11  1  0
 10 12  1  0
 10 29  1  6
 11 30  1  0
 11 31  1  0
 12 13  1  0
 12 32  1  0
 12 33  1  0
 13 14  1  0
 13 34  1  6
 14 35  1  0
 14 36  1  0
 15 16  1  0
 16 18  1  0
 16 17  1  0
 16 37  1  0
 17 18  1  0
 17 38  1  0
 17 39  1  0
 18 40  1  0
 18 41  1  0
M  END
>  <i_m_ct_stereo_status>  (322) 
1

>  <s_m_source_file>  (322) 
/var/tmp/pbs.5076255.sched01/tmpegbcst3k/90u3quomt0.sdf

>  <i_m_source_file_index>  (322) 
35

>  <i_lp_mmshare_version>  (322) 
48012

>  <i_f3d_flags>  (322) 
0

>  <s_epik_input>  (322) 
W0NIMl0xW0NIMl1bQ0hdMU4yQyg9TylbQ0gyXVtDSDJdW0NAXTIzW0NAQEhdNFtDSDJdW0NASF01W0NIMl1bQ0BASF0oW0NIMl00KVtDSDJdW0NAQEhdM1tDSDJdNQ==

>  <s_epik_cmdline>  (322) 
J2VwaWtfcHl0aG9uJywgJy1waHQnLCAnMi4wJywgJy1waCcsICc3LjAnLCAnLXRuJywgJzgnLCAnLW1hJywgJzIwMCcsICctaW1hZScsICc8aW5maWxlLm1hZT4nLCAnLW9tYWUnLCAnPG91dGZpbGUubWFlPic=

>  <r_lp_tautomer_probability>  (322) 
1

>  <r_epik_Ionization_Penalty>  (322) 
1.00232e-06

>  <r_epik_Ionization_Penalty_Charging>  (322) 
0

>  <r_epik_Ionization_Penalty_Neutral>  (322) 
1.00232e-06

>  <r_epik_State_Penalty>  (322) 
-0

>  <r_epik_Charging_Adjusted_Penalty>  (322) 
0

>  <i_epik_Tot_Q>  (322) 
0

>  <i_epik_Tot_abs_Q>  (322) 
0

>  <s_lp_Force_Field>  (322) 
OPLS3e

>  <r_lp_Energy>  (322) 
16.5354

>  <b_lp_Chiralities_Consistent>  (322) 
1

>  <s_lp_Variant>  (322) 
79:0-1

>  <s_i_glide_gridfile>  (322) 
pfpi4k_grid

>  <i_i_glide_lignum>  (322) 
35

>  <i_i_glide_rotatable_bonds>  (322) 
1

>  <r_i_docking_score>  (322) 
-2.47598

>  <r_i_glide_ligand_efficiency>  (322) 
-0.137554

>  <r_i_glide_ligand_efficiency_sa>  (322) 
-0.360495

>  <r_i_glide_ligand_efficiency_ln>  (322) 
-0.636438

>  <r_i_glide_gscore>  (322) 
-2.47598

>  <r_i_glide_lipo>  (322) 
-0.528845

>  <r_i_glide_hbond>  (322) 
0

>  <r_i_glide_metal>  (322) 
-0

>  <r_i_glide_rewards>  (322) 
-2.19341

>  <r_i_glide_evdw>  (322) 
-2.29845

>  <r_i_glide_ecoul>  (322) 
-0.348175

>  <r_i_glide_erotb>  (322) 
0.289128

>  <r_i_glide_esite>  (322) 
0

>  <r_i_glide_emodel>  (322) 
-1.95966

>  <r_i_glide_energy>  (322) 
-2.64662

>  <r_i_glide_einternal>  (322) 
0.00183272

>  <r_i_glide_intrahb_reward>  (322) 
-0

>  <i_i_glide_confnum>  (322) 
4

>  <i_i_glide_posenum>  (322) 
33

>  <r_i_glide_eff_state_penalty>  (322) 
0

>  <ligand_id>  (322) 
79

>  <original_smiles>  (322) 
O=C1CCC2(C3CC4CC(C3)CC2C4)N1C1CC1

>  <smiles>  (322) 
[H]C1([H])C(=O)N(C2([H])C([H])([H])C2([H])[H])C2(C1([H])[H])C1([H])C([H])([H])C3([H])C([H])([H])C([H])(C1([H])[H])C([H])([H])C2([H])C3([H])[H]

$$$$
80:0:0
     RDKit          3D

 52 55  0  0  1  0  0  0  0  0999 V2000
    3.4950   -1.3538    0.0610 C   0  0  0  0  0  0  0  0  0  0  0  0
    3.6930   -2.8373   -0.3907 C   0  0  1  0  0  0  0  0  0  0  0  0
    2.6122   -3.1640   -1.4545 C   0  0  0  0  0  0  0  0  0  0  0  0
    2.6926   -2.3065   -2.7376 C   0  0  0  0  0  0  0  0  0  0  0  0
    4.1175   -2.3237   -3.3374 C   0  0  1  0  0  0  0  0  0  0  0  0
    4.2155   -1.3283   -4.3355 O   0  0  0  0  0  0  0  0  0  0  0  0
    5.2255   -2.0543   -2.3067 C   0  0  0  0  0  0  0  0  0  0  0  0
    5.0434   -2.9530   -1.1076 C   0  0  0  0  0  0  0  0  0  0  0  0
    6.0037   -3.8403   -0.7770 C   0  0  0  0  0  0  0  0  0  0  0  0
    5.9033   -4.8552    0.3436 C   0  0  1  0  0  0  0  0  0  0  0  0
    6.7390   -4.3820    1.3684 O   0  0  0  0  0  0  0  0  0  0  0  0
    4.4234   -5.0892    0.7823 C   0  0  2  0  0  0  0  0  0  0  0  0
    3.6043   -3.7706    0.8814 C   0  0  1  0  0  0  0  0  0  0  0  0
    3.9905   -3.1164    2.2324 C   0  0  0  0  0  0  0  0  0  0  0  0
    3.6573   -3.9842    3.4470 C   0  0  0  0  0  0  0  0  0  0  0  0
    4.2053   -5.4288    3.4242 C   0  0  2  0  0  0  0  0  0  0  0  0
    3.3045   -6.2461    4.4081 C   0  0  0  0  0  0  0  0  0  0  0  0
    5.6958   -5.5596    3.8334 C   0  0  1  0  0  0  0  0  0  0  0  0
    5.9077   -5.7059    5.2401 O   0  0  0  0  0  0  0  0  0  0  0  0
    6.2155   -6.8183    3.1019 C   0  0  0  0  0  0  0  0  0  0  0  0
    5.1134   -7.2486    2.1086 C   0  0  0  0  0  0  0  0  0  0  0  0
    4.1530   -6.0542    2.0054 C   0  0  2  0  0  0  0  0  0  0  0  0
    2.5726   -1.2551    0.6449 H   0  0  0  0  0  0  0  0  0  0  0  0
    3.4074   -0.6472   -0.7772 H   0  0  0  0  0  0  0  0  0  0  0  0
    4.3164   -1.0159    0.7144 H   0  0  0  0  0  0  0  0  0  0  0  0
    2.7365   -4.2117   -1.7521 H   0  0  0  0  0  0  0  0  0  0  0  0
    1.6117   -3.1102   -1.0352 H   0  0  0  0  0  0  0  0  0  0  0  0
    1.9696   -2.6589   -3.4895 H   0  0  0  0  0  0  0  0  0  0  0  0
    2.4290   -1.2740   -2.4733 H   0  0  0  0  0  0  0  0  0  0  0  0
    4.3124   -3.3065   -3.7846 H   0  0  0  0  0  0  0  0  0  0  0  0
    3.8629   -0.5261   -3.9772 H   0  0  0  0  0  0  0  0  0  0  0  0
    6.2043   -2.2739   -2.7339 H   0  0  0  0  0  0  0  0  0  0  0  0
    5.2495   -1.0216   -1.9660 H   0  0  0  0  0  0  0  0  0  0  0  0
    6.9410   -3.8411   -1.3178 H   0  0  0  0  0  0  0  0  0  0  0  0
    6.2910   -5.7975   -0.0609 H   0  0  0  0  0  0  0  0  0  0  0  0
    6.7255   -5.0211    2.0906 H   0  0  0  0  0  0  0  0  0  0  0  0
    3.9928   -5.6297   -0.0712 H   0  0  0  0  0  0  0  0  0  0  0  0
    2.5618   -4.0749    0.9678 H   0  0  0  0  0  0  0  0  0  0  0  0
    5.0505   -2.8414    2.2349 H   0  0  0  0  0  0  0  0  0  0  0  0
    3.4051   -2.2204    2.4224 H   0  0  0  0  0  0  0  0  0  0  0  0
    3.9958   -3.4593    4.3473 H   0  0  0  0  0  0  0  0  0  0  0  0
    2.5682   -3.9964    3.4997 H   0  0  0  0  0  0  0  0  0  0  0  0
    3.6387   -7.2794    4.5380 H   0  0  0  0  0  0  0  0  0  0  0  0
    2.2595   -6.2994    4.0760 H   0  0  0  0  0  0  0  0  0  0  0  0
    3.2804   -5.7984    5.4120 H   0  0  0  0  0  0  0  0  0  0  0  0
    6.2187   -4.6703    3.4718 H   0  0  0  0  0  0  0  0  0  0  0  0
    5.3408   -6.3787    5.6053 H   0  0  0  0  0  0  0  0  0  0  0  0
    7.1523   -6.6147    2.5851 H   0  0  0  0  0  0  0  0  0  0  0  0
    6.4335   -7.6462    3.7826 H   0  0  0  0  0  0  0  0  0  0  0  0
    5.4890   -7.6018    1.1441 H   0  0  0  0  0  0  0  0  0  0  0  0
    4.5752   -8.0991    2.5276 H   0  0  0  0  0  0  0  0  0  0  0  0
    3.1553   -6.4418    1.8225 H   0  0  0  0  0  0  0  0  0  0  0  0
  2  1  1  1
  1 23  1  0
  1 24  1  0
  1 25  1  0
  2  8  1  0
  2 13  1  0
  2  3  1  0
  3  4  1  0
  3 26  1  0
  3 27  1  0
  4  5  1  0
  4 28  1  0
  4 29  1  0
  5  6  1  0
  5  7  1  0
  5 30  1  6
  6 31  1  0
  7  8  1  0
  7 32  1  0
  7 33  1  0
  8  9  2  0
  9 10  1  0
  9 34  1  0
 10 11  1  0
 10 12  1  0
 10 35  1  6
 11 36  1  0
 12 22  1  0
 12 13  1  0
 12 37  1  6
 13 14  1  0
 13 38  1  1
 14 15  1  0
 14 39  1  0
 14 40  1  0
 15 16  1  0
 15 41  1  0
 15 42  1  0
 16 22  1  0
 16 17  1  1
 16 18  1  0
 17 43  1  0
 17 44  1  0
 17 45  1  0
 18 19  1  0
 18 20  1  0
 18 46  1  6
 19 47  1  0
 20 21  1  0
 20 48  1  0
 20 49  1  0
 21 22  1  0
 21 50  1  0
 21 51  1  0
 22 52  1  6
M  END
>  <i_m_ct_stereo_status>  (323) 
1

>  <s_m_source_file>  (323) 
/var/tmp/pbs.5076255.sched01/tmpegbcst3k/90u3quomt0.sdf

>  <i_m_source_file_index>  (323) 
36

>  <i_lp_mmshare_version>  (323) 
48012

>  <i_f3d_flags>  (323) 
0

>  <s_epik_input>  (323) 
W0NIMl0xW0NIMl1bQ0BASF0oW09IXSlbQ0gyXUMoW0NAQF0xMltDSDNdKT1bQ0hdW0NAQEhdKFtPSF0pW0NAQEhdM1tDQEhdMltDSDJdW0NIMl1bQ0BAXTQoW0NIM10pW0NAQEhdM1tDSDJdW0NIMl1bQ0BASF00W09IXQ==

>  <s_epik_cmdline>  (323) 
J2VwaWtfcHl0aG9uJywgJy1waHQnLCAnMi4wJywgJy1waCcsICc3LjAnLCAnLXRuJywgJzgnLCAnLW1hJywgJzIwMCcsICctaW1hZScsICc8aW5maWxlLm1hZT4nLCAnLW9tYWUnLCAnPG91dGZpbGUubWFlPic=

>  <r_lp_tautomer_probability>  (323) 
1

>  <r_epik_Ionization_Penalty>  (323) 
3.67054e-06

>  <r_epik_Ionization_Penalty_Charging>  (323) 
0

>  <r_epik_Ionization_Penalty_Neutral>  (323) 
3.67054e-06

>  <r_epik_State_Penalty>  (323) 
-0

>  <r_epik_Charging_Adjusted_Penalty>  (323) 
0

>  <i_epik_Tot_Q>  (323) 
0

>  <i_epik_Tot_abs_Q>  (323) 
0

>  <s_lp_Force_Field>  (323) 
OPLS3e

>  <r_lp_Energy>  (323) 
43.8928

>  <b_lp_Chiralities_Consistent>  (323) 
1

>  <s_lp_Variant>  (323) 
80:0-1

>  <s_i_glide_gridfile>  (323) 
pfpi4k_grid

>  <i_i_glide_lignum>  (323) 
36

>  <i_i_glide_rotatable_bonds>  (323) 
3

>  <r_i_docking_score>  (323) 
-3.75258

>  <r_i_glide_ligand_efficiency>  (323) 
-0.170572

>  <r_i_glide_ligand_efficiency_sa>  (323) 
-0.477949

>  <r_i_glide_ligand_efficiency_ln>  (323) 
-0.917268

>  <r_i_glide_gscore>  (323) 
-3.75258

>  <r_i_glide_lipo>  (323) 
-0.510863

>  <r_i_glide_hbond>  (323) 
-0.261641

>  <r_i_glide_metal>  (323) 
-0

>  <r_i_glide_rewards>  (323) 
-1.31973

>  <r_i_glide_evdw>  (323) 
-21.6641

>  <r_i_glide_ecoul>  (323) 
-3.84763

>  <r_i_glide_erotb>  (323) 
0

>  <r_i_glide_esite>  (323) 
0

>  <r_i_glide_emodel>  (323) 
-28.8678

>  <r_i_glide_energy>  (323) 
-25.5118

>  <r_i_glide_einternal>  (323) 
0.641011

>  <r_i_glide_intrahb_reward>  (323) 
-0

>  <i_i_glide_confnum>  (323) 
4

>  <i_i_glide_posenum>  (323) 
29

>  <r_i_glide_eff_state_penalty>  (323) 
0

>  <ligand_id>  (323) 
80

>  <original_smiles>  (323) 
CC12CCC(O)CC1=CC(O)C1C2CCC2(C)C(O)CCC12

>  <smiles>  (323) 
[H]OC1([H])C([H])=C2C([H])([H])C([H])(O[H])C([H])([H])C([H])([H])C2(C([H])([H])[H])C2([H])C([H])([H])C([H])([H])C3(C([H])([H])[H])C([H])(O[H])C([H])([H])C([H])([H])C3([H])C12[H]

$$$$
80:0:1
     RDKit          3D

 52 55  0  0  1  0  0  0  0  0999 V2000
    3.4732   -1.3351    0.0602 C   0  0  0  0  0  0  0  0  0  0  0  0
    3.6737   -2.8042   -0.3795 C   0  0  1  0  0  0  0  0  0  0  0  0
    2.5944   -3.1249   -1.4594 C   0  0  0  0  0  0  0  0  0  0  0  0
    2.6870   -2.2674   -2.7459 C   0  0  0  0  0  0  0  0  0  0  0  0
    4.1108   -2.3284   -3.3392 C   0  0  1  0  0  0  0  0  0  0  0  0
    4.2146   -1.3561   -4.3517 O   0  0  0  0  0  0  0  0  0  0  0  0
    5.2161   -2.0669   -2.2920 C   0  0  0  0  0  0  0  0  0  0  0  0
    5.0221   -2.9475   -1.0919 C   0  0  0  0  0  0  0  0  0  0  0  0
    5.9787   -3.8401   -0.7254 C   0  0  0  0  0  0  0  0  0  0  0  0
    5.8575   -4.8353    0.3863 C   0  0  1  0  0  0  0  0  0  0  0  0
    6.6698   -4.3711    1.4217 O   0  0  0  0  0  0  0  0  0  0  0  0
    4.3742   -5.0725    0.8108 C   0  0  2  0  0  0  0  0  0  0  0  0
    3.5604   -3.7513    0.8908 C   0  0  1  0  0  0  0  0  0  0  0  0
    3.9181   -3.0718    2.2437 C   0  0  0  0  0  0  0  0  0  0  0  0
    3.5848   -3.9271    3.4568 C   0  0  0  0  0  0  0  0  0  0  0  0
    4.1305   -5.3742    3.4565 C   0  0  2  0  0  0  0  0  0  0  0  0
    3.2289   -6.1855    4.4324 C   0  0  0  0  0  0  0  0  0  0  0  0
    5.6198   -5.5060    3.8922 C   0  0  1  0  0  0  0  0  0  0  0  0
    5.8295   -5.5989    5.2883 O   0  0  0  0  0  0  0  0  0  0  0  0
    6.1367   -6.7716    3.1700 C   0  0  0  0  0  0  0  0  0  0  0  0
    5.0482   -7.2123    2.1698 C   0  0  0  0  0  0  0  0  0  0  0  0
    4.0973   -6.0156    2.0361 C   0  0  2  0  0  0  0  0  0  0  0  0
    2.5429   -1.2360    0.6242 H   0  0  0  0  0  0  0  0  0  0  0  0
    3.3942   -0.6425   -0.7725 H   0  0  0  0  0  0  0  0  0  0  0  0
    4.2892   -0.9915    0.7074 H   0  0  0  0  0  0  0  0  0  0  0  0
    2.7312   -4.1476   -1.7916 H   0  0  0  0  0  0  0  0  0  0  0  0
    1.5798   -3.0641   -1.0358 H   0  0  0  0  0  0  0  0  0  0  0  0
    1.9690   -2.6552   -3.4836 H   0  0  0  0  0  0  0  0  0  0  0  0
    2.4077   -1.2390   -2.5190 H   0  0  0  0  0  0  0  0  0  0  0  0
    4.2980   -3.3234   -3.7653 H   0  0  0  0  0  0  0  0  0  0  0  0
    3.8716   -0.5484   -3.9895 H   0  0  0  0  0  0  0  0  0  0  0  0
    6.1996   -2.2711   -2.7191 H   0  0  0  0  0  0  0  0  0  0  0  0
    5.2282   -1.0282   -1.9597 H   0  0  0  0  0  0  0  0  0  0  0  0
    6.9077   -3.8557   -1.2871 H   0  0  0  0  0  0  0  0  0  0  0  0
    6.3000   -5.7775    0.0349 H   0  0  0  0  0  0  0  0  0  0  0  0
    6.2010   -3.6633    1.8535 H   0  0  0  0  0  0  0  0  0  0  0  0
    3.9608   -5.6184   -0.0398 H   0  0  0  0  0  0  0  0  0  0  0  0
    2.5130   -4.0458    0.9659 H   0  0  0  0  0  0  0  0  0  0  0  0
    4.9643   -2.7568    2.2589 H   0  0  0  0  0  0  0  0  0  0  0  0
    3.3197   -2.1748    2.4111 H   0  0  0  0  0  0  0  0  0  0  0  0
    3.9124   -3.4051    4.3548 H   0  0  0  0  0  0  0  0  0  0  0  0
    2.4917   -3.9539    3.5045 H   0  0  0  0  0  0  0  0  0  0  0  0
    3.5779   -7.2093    4.5724 H   0  0  0  0  0  0  0  0  0  0  0  0
    2.1951   -6.2415    4.0987 H   0  0  0  0  0  0  0  0  0  0  0  0
    3.2092   -5.7306    5.4256 H   0  0  0  0  0  0  0  0  0  0  0  0
    6.1682   -4.6310    3.5503 H   0  0  0  0  0  0  0  0  0  0  0  0
    6.7499   -5.7227    5.4644 H   0  0  0  0  0  0  0  0  0  0  0  0
    7.0643   -6.5520    2.6401 H   0  0  0  0  0  0  0  0  0  0  0  0
    6.3611   -7.5838    3.8584 H   0  0  0  0  0  0  0  0  0  0  0  0
    5.4331   -7.5763    1.2197 H   0  0  0  0  0  0  0  0  0  0  0  0
    4.5041   -8.0574    2.5970 H   0  0  0  0  0  0  0  0  0  0  0  0
    3.0901   -6.4069    1.8595 H   0  0  0  0  0  0  0  0  0  0  0  0
  2  1  1  1
  1 23  1  0
  1 24  1  0
  1 25  1  0
  2  8  1  0
  2 13  1  0
  2  3  1  0
  3  4  1  0
  3 26  1  0
  3 27  1  0
  4  5  1  0
  4 28  1  0
  4 29  1  0
  5  6  1  0
  5  7  1  0
  5 30  1  6
  6 31  1  0
  7  8  1  0
  7 32  1  0
  7 33  1  0
  8  9  2  0
  9 10  1  0
  9 34  1  0
 10 11  1  0
 10 12  1  0
 10 35  1  6
 11 36  1  0
 12 22  1  0
 12 13  1  0
 12 37  1  6
 13 14  1  0
 13 38  1  1
 14 15  1  0
 14 39  1  0
 14 40  1  0
 15 16  1  0
 15 41  1  0
 15 42  1  0
 16 22  1  0
 16 17  1  1
 16 18  1  0
 17 43  1  0
 17 44  1  0
 17 45  1  0
 18 19  1  0
 18 20  1  0
 18 46  1  6
 19 47  1  0
 20 21  1  0
 20 48  1  0
 20 49  1  0
 21 22  1  0
 21 50  1  0
 21 51  1  0
 22 52  1  6
M  END
>  <i_m_ct_stereo_status>  (324) 
1

>  <s_m_source_file>  (324) 
/var/tmp/pbs.5076255.sched01/tmpegbcst3k/90u3quomt0.sdf

>  <i_m_source_file_index>  (324) 
36

>  <i_lp_mmshare_version>  (324) 
48012

>  <i_f3d_flags>  (324) 
0

>  <s_epik_input>  (324) 
W0NIMl0xW0NIMl1bQ0BASF0oW09IXSlbQ0gyXUMoW0NAQF0xMltDSDNdKT1bQ0hdW0NAQEhdKFtPSF0pW0NAQEhdM1tDQEhdMltDSDJdW0NIMl1bQ0BAXTQoW0NIM10pW0NAQEhdM1tDSDJdW0NIMl1bQ0BASF00W09IXQ==

>  <s_epik_cmdline>  (324) 
J2VwaWtfcHl0aG9uJywgJy1waHQnLCAnMi4wJywgJy1waCcsICc3LjAnLCAnLXRuJywgJzgnLCAnLW1hJywgJzIwMCcsICctaW1hZScsICc8aW5maWxlLm1hZT4nLCAnLW9tYWUnLCAnPG91dGZpbGUubWFlPic=

>  <r_lp_tautomer_probability>  (324) 
1

>  <r_epik_Ionization_Penalty>  (324) 
3.67054e-06

>  <r_epik_Ionization_Penalty_Charging>  (324) 
0

>  <r_epik_Ionization_Penalty_Neutral>  (324) 
3.67054e-06

>  <r_epik_State_Penalty>  (324) 
-0

>  <r_epik_Charging_Adjusted_Penalty>  (324) 
0

>  <i_epik_Tot_Q>  (324) 
0

>  <i_epik_Tot_abs_Q>  (324) 
0

>  <s_lp_Force_Field>  (324) 
OPLS3e

>  <r_lp_Energy>  (324) 
43.8928

>  <b_lp_Chiralities_Consistent>  (324) 
1

>  <s_lp_Variant>  (324) 
80:0-1

>  <s_i_glide_gridfile>  (324) 
pfpi4k_grid

>  <i_i_glide_lignum>  (324) 
36

>  <i_i_glide_rotatable_bonds>  (324) 
3

>  <r_i_docking_score>  (324) 
-3.73417

>  <r_i_glide_ligand_efficiency>  (324) 
-0.169735

>  <r_i_glide_ligand_efficiency_sa>  (324) 
-0.475604

>  <r_i_glide_ligand_efficiency_ln>  (324) 
-0.912767

>  <r_i_glide_gscore>  (324) 
-3.73417

>  <r_i_glide_lipo>  (324) 
-0.481211

>  <r_i_glide_hbond>  (324) 
-0.2841

>  <r_i_glide_metal>  (324) 
-0

>  <r_i_glide_rewards>  (324) 
-1.31973

>  <r_i_glide_evdw>  (324) 
-21.5567

>  <r_i_glide_ecoul>  (324) 
-3.80861

>  <r_i_glide_erotb>  (324) 
0

>  <r_i_glide_esite>  (324) 
0

>  <r_i_glide_emodel>  (324) 
-29.7466

>  <r_i_glide_energy>  (324) 
-25.3653

>  <r_i_glide_einternal>  (324) 
0.496135

>  <r_i_glide_intrahb_reward>  (324) 
-0

>  <i_i_glide_confnum>  (324) 
2

>  <i_i_glide_posenum>  (324) 
25

>  <r_i_glide_eff_state_penalty>  (324) 
0

>  <ligand_id>  (324) 
80

>  <original_smiles>  (324) 
CC12CCC(O)CC1=CC(O)C1C2CCC2(C)C(O)CCC12

>  <smiles>  (324) 
[H]OC1([H])C([H])=C2C([H])([H])C([H])(O[H])C([H])([H])C([H])([H])C2(C([H])([H])[H])C2([H])C([H])([H])C([H])([H])C3(C([H])([H])[H])C([H])(O[H])C([H])([H])C([H])([H])C3([H])C12[H]

$$$$
80:0:2
     RDKit          3D

 52 55  0  0  1  0  0  0  0  0999 V2000
    2.2253   -5.1543    3.0615 C   0  0  0  0  0  0  0  0  0  0  0  0
    3.4126   -4.1402    2.9934 C   0  0  1  0  0  0  0  0  0  0  0  0
    3.2037   -3.0950    4.1353 C   0  0  0  0  0  0  0  0  0  0  0  0
    3.1940   -3.7150    5.5542 C   0  0  0  0  0  0  0  0  0  0  0  0
    4.4493   -4.5828    5.7944 C   0  0  1  0  0  0  0  0  0  0  0  0
    4.3027   -5.3082    7.0088 O   0  0  0  0  0  0  0  0  0  0  0  0
    4.7421   -5.5869    4.6648 C   0  0  0  0  0  0  0  0  0  0  0  0
    4.7277   -4.8712    3.3398 C   0  0  0  0  0  0  0  0  0  0  0  0
    5.8259   -4.8464    2.5612 C   0  0  0  0  0  0  0  0  0  0  0  0
    5.9518   -4.1106    1.2312 C   0  0  1  0  0  0  0  0  0  0  0  0
    5.9258   -5.0482    0.2266 O   0  0  0  0  0  0  0  0  0  0  0  0
    4.8429   -2.9967    1.0958 C   0  0  2  0  0  0  0  0  0  0  0  0
    3.4428   -3.4847    1.5693 C   0  0  1  0  0  0  0  0  0  0  0  0
    2.8477   -4.3383    0.4117 C   0  0  0  0  0  0  0  0  0  0  0  0
    2.6986   -3.5598   -0.9028 C   0  0  0  0  0  0  0  0  0  0  0  0
    3.9495   -2.8043   -1.4166 C   0  0  2  0  0  0  0  0  0  0  0  0
    3.4324   -1.6872   -2.3691 C   0  0  0  0  0  0  0  0  0  0  0  0
    4.9709   -3.7094   -2.1577 C   0  0  1  0  0  0  0  0  0  0  0  0
    4.6383   -3.8692   -3.5436 O   0  0  0  0  0  0  0  0  0  0  0  0
    6.3408   -3.0305   -1.9590 C   0  0  0  0  0  0  0  0  0  0  0  0
    6.1365   -1.9247   -0.9109 C   0  0  0  0  0  0  0  0  0  0  0  0
    4.7799   -2.2007   -0.2631 C   0  0  2  0  0  0  0  0  0  0  0  0
    1.2788   -4.6780    2.7658 H   0  0  0  0  0  0  0  0  0  0  0  0
    2.0211   -5.6113    4.0588 H   0  0  0  0  0  0  0  0  0  0  0  0
    2.3767   -5.9908    2.3665 H   0  0  0  0  0  0  0  0  0  0  0  0
    4.0134   -2.3524    4.0867 H   0  0  0  0  0  0  0  0  0  0  0  0
    2.2925   -2.5165    3.9706 H   0  0  0  0  0  0  0  0  0  0  0  0
    3.1422   -2.9241    6.3191 H   0  0  0  0  0  0  0  0  0  0  0  0
    2.3003   -4.3274    5.6703 H   0  0  0  0  0  0  0  0  0  0  0  0
    5.3233   -3.9216    5.8866 H   0  0  0  0  0  0  0  0  0  0  0  0
    5.0811   -5.8197    7.1448 H   0  0  0  0  0  0  0  0  0  0  0  0
    5.7127   -6.0758    4.8120 H   0  0  0  0  0  0  0  0  0  0  0  0
    4.0257   -6.3989    4.6360 H   0  0  0  0  0  0  0  0  0  0  0  0
    6.7113   -5.3811    2.8775 H   0  0  0  0  0  0  0  0  0  0  0  0
    6.9437   -3.6500    1.2351 H   0  0  0  0  0  0  0  0  0  0  0  0
    5.0058   -5.3404    0.1036 H   0  0  0  0  0  0  0  0  0  0  0  0
    5.1551   -2.2565    1.8249 H   0  0  0  0  0  0  0  0  0  0  0  0
    2.8361   -2.5825    1.6213 H   0  0  0  0  0  0  0  0  0  0  0  0
    3.4169   -5.2590    0.2444 H   0  0  0  0  0  0  0  0  0  0  0  0
    1.8242   -4.6267    0.6102 H   0  0  0  0  0  0  0  0  0  0  0  0
    2.3005   -4.2303   -1.6541 H   0  0  0  0  0  0  0  0  0  0  0  0
    1.9142   -2.8389   -0.6959 H   0  0  0  0  0  0  0  0  0  0  0  0
    4.2310   -1.1312   -2.8753 H   0  0  0  0  0  0  0  0  0  0  0  0
    2.8232   -0.9405   -1.8529 H   0  0  0  0  0  0  0  0  0  0  0  0
    2.7878   -2.0804   -3.1735 H   0  0  0  0  0  0  0  0  0  0  0  0
    4.9871   -4.6890   -1.7216 H   0  0  0  0  0  0  0  0  0  0  0  0
    3.8926   -4.4362   -3.5821 H   0  0  0  0  0  0  0  0  0  0  0  0
    7.0723   -3.7636   -1.5870 H   0  0  0  0  0  0  0  0  0  0  0  0
    6.7574   -2.6535   -2.8808 H   0  0  0  0  0  0  0  0  0  0  0  0
    6.9581   -1.8199   -0.1868 H   0  0  0  0  0  0  0  0  0  0  0  0
    6.0651   -0.9663   -1.4157 H   0  0  0  0  0  0  0  0  0  0  0  0
    4.3421   -1.2470    0.0216 H   0  0  0  0  0  0  0  0  0  0  0  0
  2  1  1  6
  1 23  1  0
  1 24  1  0
  1 25  1  0
  2  8  1  0
  2 13  1  0
  2  3  1  0
  3  4  1  0
  3 26  1  0
  3 27  1  0
  4  5  1  0
  4 28  1  0
  4 29  1  0
  5  6  1  0
  5  7  1  0
  5 30  1  1
  6 31  1  0
  7  8  1  0
  7 32  1  0
  7 33  1  0
  8  9  2  0
  9 10  1  0
  9 34  1  0
 10 11  1  0
 10 12  1  0
 10 35  1  1
 11 36  1  0
 12 22  1  0
 12 13  1  0
 12 37  1  1
 13 14  1  0
 13 38  1  1
 14 15  1  0
 14 39  1  0
 14 40  1  0
 15 16  1  0
 15 41  1  0
 15 42  1  0
 16 22  1  0
 16 17  1  6
 16 18  1  0
 17 43  1  0
 17 44  1  0
 17 45  1  0
 18 19  1  0
 18 20  1  0
 18 46  1  1
 19 47  1  0
 20 21  1  0
 20 48  1  0
 20 49  1  0
 21 22  1  0
 21 50  1  0
 21 51  1  0
 22 52  1  1
M  END
>  <i_m_ct_stereo_status>  (325) 
1

>  <s_m_source_file>  (325) 
/var/tmp/pbs.5076255.sched01/tmpegbcst3k/90u3quomt0.sdf

>  <i_m_source_file_index>  (325) 
36

>  <i_lp_mmshare_version>  (325) 
48012

>  <i_f3d_flags>  (325) 
0

>  <s_epik_input>  (325) 
W0NIMl0xW0NIMl1bQ0BASF0oW09IXSlbQ0gyXUMoW0NAQF0xMltDSDNdKT1bQ0hdW0NAQEhdKFtPSF0pW0NAQEhdM1tDQEhdMltDSDJdW0NIMl1bQ0BAXTQoW0NIM10pW0NAQEhdM1tDSDJdW0NIMl1bQ0BASF00W09IXQ==

>  <s_epik_cmdline>  (325) 
J2VwaWtfcHl0aG9uJywgJy1waHQnLCAnMi4wJywgJy1waCcsICc3LjAnLCAnLXRuJywgJzgnLCAnLW1hJywgJzIwMCcsICctaW1hZScsICc8aW5maWxlLm1hZT4nLCAnLW9tYWUnLCAnPG91dGZpbGUubWFlPic=

>  <r_lp_tautomer_probability>  (325) 
1

>  <r_epik_Ionization_Penalty>  (325) 
3.67054e-06

>  <r_epik_Ionization_Penalty_Charging>  (325) 
0

>  <r_epik_Ionization_Penalty_Neutral>  (325) 
3.67054e-06

>  <r_epik_State_Penalty>  (325) 
-0

>  <r_epik_Charging_Adjusted_Penalty>  (325) 
0

>  <i_epik_Tot_Q>  (325) 
0

>  <i_epik_Tot_abs_Q>  (325) 
0

>  <s_lp_Force_Field>  (325) 
OPLS3e

>  <r_lp_Energy>  (325) 
43.8928

>  <b_lp_Chiralities_Consistent>  (325) 
1

>  <s_lp_Variant>  (325) 
80:0-1

>  <s_i_glide_gridfile>  (325) 
pfpi4k_grid

>  <i_i_glide_lignum>  (325) 
36

>  <i_i_glide_rotatable_bonds>  (325) 
3

>  <r_i_docking_score>  (325) 
-3.4322

>  <r_i_glide_ligand_efficiency>  (325) 
-0.156009

>  <r_i_glide_ligand_efficiency_sa>  (325) 
-0.437144

>  <r_i_glide_ligand_efficiency_ln>  (325) 
-0.838956

>  <r_i_glide_gscore>  (325) 
-3.4322

>  <r_i_glide_lipo>  (325) 
-0.223665

>  <r_i_glide_hbond>  (325) 
-0.221731

>  <r_i_glide_metal>  (325) 
-0

>  <r_i_glide_rewards>  (325) 
-1.31973

>  <r_i_glide_evdw>  (325) 
-21.139

>  <r_i_glide_ecoul>  (325) 
-4.06751

>  <r_i_glide_erotb>  (325) 
0

>  <r_i_glide_esite>  (325) 
0

>  <r_i_glide_emodel>  (325) 
-28.9643

>  <r_i_glide_energy>  (325) 
-25.2065

>  <r_i_glide_einternal>  (325) 
0.765478

>  <r_i_glide_intrahb_reward>  (325) 
-0

>  <i_i_glide_confnum>  (325) 
4

>  <i_i_glide_posenum>  (325) 
36

>  <r_i_glide_eff_state_penalty>  (325) 
0

>  <ligand_id>  (325) 
80

>  <original_smiles>  (325) 
CC12CCC(O)CC1=CC(O)C1C2CCC2(C)C(O)CCC12

>  <smiles>  (325) 
[H]OC1([H])C([H])=C2C([H])([H])C([H])(O[H])C([H])([H])C([H])([H])C2(C([H])([H])[H])C2([H])C([H])([H])C([H])([H])C3(C([H])([H])[H])C([H])(O[H])C([H])([H])C([H])([H])C3([H])C12[H]

$$$$
81:0:0
     RDKit          3D

 43 47  0  0  1  0  0  0  0  0999 V2000
    4.5155   -0.2593    1.9792 C   0  0  0  0  0  0  0  0  0  0  0  0
    4.4194   -1.5577    1.6513 C   0  0  0  0  0  0  0  0  0  0  0  0
    5.5044   -2.5566    1.8457 C   0  0  1  0  0  0  0  0  0  0  0  0
    4.7934   -3.8366    2.4227 C   0  0  0  0  0  0  0  0  0  0  0  0
    4.1788   -4.5927    1.2065 C   0  0  2  0  0  0  0  0  0  0  0  0
    5.5027   -5.1950    0.6196 C   0  0  2  0  0  0  0  0  0  0  0  0
    6.7735   -4.2748    0.6925 C   0  0  0  0  0  0  0  0  0  0  0  0
    6.2875   -2.8033    0.4872 C   0  0  1  0  0  0  0  0  0  0  0  0
    5.5638   -2.7166   -0.9702 C   0  0  2  0  0  0  0  0  0  0  0  0
    6.6348   -2.8295   -2.0855 C   0  0  0  0  0  0  0  0  0  0  0  0
    4.4777   -1.6339   -1.4971 C   0  0  0  0  0  0  0  0  0  0  0  0
    3.0312   -2.1577   -1.7916 N   0  0  1  0  0  0  0  0  0  0  0  0
    2.7579   -2.3140   -3.2381 C   0  0  0  0  0  0  0  0  0  0  0  0
    2.5400   -3.3636   -0.9592 C   0  0  0  0  0  0  0  0  0  0  0  0
    3.5832   -3.5403    0.1659 C   0  0  1  0  0  0  0  0  0  0  0  0
    3.2258   -2.1928    0.9920 C   0  0  1  0  0  0  0  0  0  0  0  0
    2.2138   -2.4757    1.9434 O   0  0  0  0  0  0  0  0  0  0  0  0
    4.6802   -3.8934   -0.9242 C   0  0  2  0  0  0  0  0  0  0  0  0
    5.2309   -5.1674   -0.7201 O   0  0  0  0  0  0  0  0  0  0  0  0
    3.6998    0.4267    1.7968 H   0  0  0  0  0  0  0  0  0  0  0  0
    5.4158    0.1331    2.4320 H   0  0  0  0  0  0  0  0  0  0  0  0
    6.2001   -2.1777    2.5952 H   0  0  0  0  0  0  0  0  0  0  0  0
    5.4872   -4.4747    2.9741 H   0  0  0  0  0  0  0  0  0  0  0  0
    4.0460   -3.5779    3.1722 H   0  0  0  0  0  0  0  0  0  0  0  0
    3.4567   -5.3574    1.4978 H   0  0  0  0  0  0  0  0  0  0  0  0
    5.7065   -6.2094    0.9623 H   0  0  0  0  0  0  0  0  0  0  0  0
    7.2885   -4.3859    1.6478 H   0  0  0  0  0  0  0  0  0  0  0  0
    7.5065   -4.5833   -0.0488 H   0  0  0  0  0  0  0  0  0  0  0  0
    7.1486   -2.1349    0.4780 H   0  0  0  0  0  0  0  0  0  0  0  0
    6.1835   -2.9032   -3.0780 H   0  0  0  0  0  0  0  0  0  0  0  0
    7.2854   -3.6956   -1.9852 H   0  0  0  0  0  0  0  0  0  0  0  0
    7.2839   -1.9561   -2.0880 H   0  0  0  0  0  0  0  0  0  0  0  0
    4.4427   -0.7776   -0.8247 H   0  0  0  0  0  0  0  0  0  0  0  0
    4.8485   -1.1665   -2.4115 H   0  0  0  0  0  0  0  0  0  0  0  0
    3.3941   -3.0802   -3.6832 H   0  0  0  0  0  0  0  0  0  0  0  0
    2.9338   -1.3758   -3.7684 H   0  0  0  0  0  0  0  0  0  0  0  0
    1.7187   -2.6027   -3.4020 H   0  0  0  0  0  0  0  0  0  0  0  0
    1.5496   -3.1271   -0.5745 H   0  0  0  0  0  0  0  0  0  0  0  0
    2.3812   -4.2596   -1.5517 H   0  0  0  0  0  0  0  0  0  0  0  0
    2.7395   -1.3858    0.4485 H   0  0  0  0  0  0  0  0  0  0  0  0
    1.8134   -1.6602    2.2018 H   0  0  0  0  0  0  0  0  0  0  0  0
    4.3966   -4.1196   -1.9566 H   0  0  0  0  0  0  0  0  0  0  0  0
    2.3953   -1.4169   -1.4977 H   0  0  0  0  0  0  0  0  0  0  0  0
  1  2  2  0
  1 20  1  0
  1 21  1  0
  2 16  1  0
  2  3  1  0
  3  8  1  0
  3  4  1  0
  3 22  1  1
  4  5  1  0
  4 23  1  0
  4 24  1  0
  5 15  1  0
  5  6  1  0
  5 25  1  1
  6 19  1  0
  6  7  1  0
  6 26  1  1
  7  8  1  0
  7 27  1  0
  7 28  1  0
  8  9  1  0
  8 29  1  6
  9 18  1  0
  9 10  1  6
  9 11  1  0
 10 30  1  0
 10 31  1  0
 10 32  1  0
 11 12  1  0
 11 33  1  0
 11 34  1  0
 12 13  1  0
 12 14  1  0
 12 43  1  1
 13 35  1  0
 13 36  1  0
 13 37  1  0
 15 14  1  6
 14 38  1  0
 14 39  1  0
 15 16  1  0
 15 18  1  0
 16 17  1  0
 16 40  1  6
 17 41  1  0
 18 19  1  0
 18 42  1  6
M  CHG  1  12   1
M  END
>  <i_m_ct_stereo_status>  (326) 
1

>  <s_m_source_file>  (326) 
/var/tmp/pbs.5076255.sched01/tmpegbcst3k/90u3quomt0.sdf

>  <i_m_source_file_index>  (326) 
37

>  <i_lp_mmshare_version>  (326) 
48012

>  <i_f3d_flags>  (326) 
2

>  <s_epik_input>  (326) 
W0NAXTEyM1tDQEhdNFtDQEBIXTVbQ0gyXVtDQEhdKFtDQEhdKFtDSDJdNClDKD1bQ0gyXSlbQ0BASF0yW09IXSlbQ0BdKFtDSDNdKShbQ0hdM081KVtDSDJdTihbQ0gzXSlbQ0gyXTE=

>  <s_epik_cmdline>  (326) 
J2VwaWtfcHl0aG9uJywgJy1waHQnLCAnMi4wJywgJy1waCcsICc3LjAnLCAnLXRuJywgJzgnLCAnLW1hJywgJzIwMCcsICctaW1hZScsICc8aW5maWxlLm1hZT4nLCAnLW9tYWUnLCAnPG91dGZpbGUubWFlPic=

>  <r_epik_Ionization_Penalty>  (326) 
0.00839076

>  <r_epik_Ionization_Penalty_Charging>  (326) 
0.00839058

>  <r_epik_Ionization_Penalty_Neutral>  (326) 
1.8222e-07

>  <r_epik_State_Penalty>  (326) 
0.00632026

>  <r_epik_Charging_Adjusted_Penalty>  (326) 
0.0147108

>  <i_epik_Tot_Q>  (326) 
1

>  <i_epik_Tot_abs_Q>  (326) 
1

>  <s_lp_Force_Field>  (326) 
OPLS3e

>  <r_lp_Energy>  (326) 
178.789

>  <b_lp_Chiralities_Consistent>  (326) 
0

>  <s_lp_Variant>  (326) 
81:0-1

>  <s_i_glide_gridfile>  (326) 
pfpi4k_grid

>  <i_i_glide_lignum>  (326) 
37

>  <i_i_glide_rotatable_bonds>  (326) 
1

>  <r_i_docking_score>  (326) 
-3.865

>  <r_i_glide_ligand_efficiency>  (326) 
-0.203421

>  <r_i_glide_ligand_efficiency_sa>  (326) 
-0.542809

>  <r_i_glide_ligand_efficiency_ln>  (326) 
-0.979861

>  <r_i_glide_gscore>  (326) 
-3.865

>  <r_i_glide_lipo>  (326) 
-0.615333

>  <r_i_glide_hbond>  (326) 
-0.186142

>  <r_i_glide_metal>  (326) 
-0

>  <r_i_glide_rewards>  (326) 
-1.62022

>  <r_i_glide_evdw>  (326) 
-16.8144

>  <r_i_glide_ecoul>  (326) 
-3.51286

>  <r_i_glide_erotb>  (326) 
0

>  <r_i_glide_esite>  (326) 
-0.0756497

>  <r_i_glide_emodel>  (326) 
-26.2951

>  <r_i_glide_energy>  (326) 
-20.3273

>  <r_i_glide_einternal>  (326) 
0.526944

>  <r_i_glide_intrahb_reward>  (326) 
-0

>  <i_i_glide_confnum>  (326) 
1

>  <i_i_glide_posenum>  (326) 
18

>  <r_i_glide_eff_state_penalty>  (326) 
0

>  <ligand_id>  (326) 
81

>  <original_smiles>  (326) 
C=C1C2CC3C4CC2C2(C)CN(C)CC3(C1O)C2O4

>  <smiles>  (326) 
[H]OC1([H])C(=C([H])[H])C2([H])C([H])([H])C3([H])C4([H])OC5([H])C(C([H])([H])[H])(C2([H])C4([H])[H])C([H])([H])[N+]([H])(C([H])([H])[H])C([H])([H])C153

$$$$
81:0:1
     RDKit          3D

 43 47  0  0  1  0  0  0  0  0999 V2000
    4.6630   -0.2581    2.1171 C   0  0  0  0  0  0  0  0  0  0  0  0
    4.4862   -1.5265    1.7061 C   0  0  0  0  0  0  0  0  0  0  0  0
    5.4048   -2.6500    2.0220 C   0  0  1  0  0  0  0  0  0  0  0  0
    4.4711   -3.8577    2.4070 C   0  0  0  0  0  0  0  0  0  0  0  0
    3.9924   -4.4962    1.0680 C   0  0  2  0  0  0  0  0  0  0  0  0
    5.3233   -5.2264    0.6744 C   0  0  2  0  0  0  0  0  0  0  0  0
    6.6552   -4.4634    1.0019 C   0  0  0  0  0  0  0  0  0  0  0  0
    6.3727   -2.9382    0.7987 C   0  0  1  0  0  0  0  0  0  0  0  0
    5.9186   -2.7170   -0.7486 C   0  0  2  0  0  0  0  0  0  0  0  0
    7.1495   -2.9181   -1.6712 C   0  0  0  0  0  0  0  0  0  0  0  0
    5.0608   -1.5010   -1.3870 C   0  0  0  0  0  0  0  0  0  0  0  0
    3.6356   -1.8406   -1.9347 N   0  0  1  0  0  0  0  0  0  0  0  0
    3.5938   -1.9116   -3.4165 C   0  0  0  0  0  0  0  0  0  0  0  0
    2.8849   -3.0139   -1.2678 C   0  0  0  0  0  0  0  0  0  0  0  0
    3.6996   -3.3490    0.0014 C   0  0  1  0  0  0  0  0  0  0  0  0
    3.3595   -1.9969    0.8316 C   0  0  1  0  0  0  0  0  0  0  0  0
    2.1811   -2.1782    1.5941 O   0  0  0  0  0  0  0  0  0  0  0  0
    4.9194   -3.7867   -0.9118 C   0  0  2  0  0  0  0  0  0  0  0  0
    5.2898   -5.1226   -0.6883 O   0  0  0  0  0  0  0  0  0  0  0  0
    3.9628    0.5188    1.8423 H   0  0  0  0  0  0  0  0  0  0  0  0
    5.5118    0.0112    2.7280 H   0  0  0  0  0  0  0  0  0  0  0  0
    5.9965   -2.3775    2.8947 H   0  0  0  0  0  0  0  0  0  0  0  0
    4.9903   -4.5898    3.0292 H   0  0  0  0  0  0  0  0  0  0  0  0
    3.6413   -3.5385    3.0372 H   0  0  0  0  0  0  0  0  0  0  0  0
    3.1523   -5.1829    1.1966 H   0  0  0  0  0  0  0  0  0  0  0  0
    5.3557   -6.2683    0.9926 H   0  0  0  0  0  0  0  0  0  0  0  0
    6.9883   -4.6638    2.0224 H   0  0  0  0  0  0  0  0  0  0  0  0
    7.4631   -4.8287    0.3721 H   0  0  0  0  0  0  0  0  0  0  0  0
    7.2911   -2.3714    0.9624 H   0  0  0  0  0  0  0  0  0  0  0  0
    6.8605   -2.9023   -2.7239 H   0  0  0  0  0  0  0  0  0  0  0  0
    7.6689   -3.8510   -1.5133 H   0  0  0  0  0  0  0  0  0  0  0  0
    7.8956   -2.1372   -1.5238 H   0  0  0  0  0  0  0  0  0  0  0  0
    5.0069   -0.6705   -0.6850 H   0  0  0  0  0  0  0  0  0  0  0  0
    5.6228   -1.0517   -2.2039 H   0  0  0  0  0  0  0  0  0  0  0  0
    4.2059   -2.7324   -3.7924 H   0  0  0  0  0  0  0  0  0  0  0  0
    3.9607   -0.9846   -3.8596 H   0  0  0  0  0  0  0  0  0  0  0  0
    2.5694   -2.0643   -3.7631 H   0  0  0  0  0  0  0  0  0  0  0  0
    1.8650   -2.7126   -1.0288 H   0  0  0  0  0  0  0  0  0  0  0  0
    2.7430   -3.8660   -1.9348 H   0  0  0  0  0  0  0  0  0  0  0  0
    3.0632   -1.1174    0.2606 H   0  0  0  0  0  0  0  0  0  0  0  0
    1.4835   -1.7039    1.1591 H   0  0  0  0  0  0  0  0  0  0  0  0
    4.7916   -3.9441   -1.9866 H   0  0  0  0  0  0  0  0  0  0  0  0
    3.0712   -1.0320   -1.7079 H   0  0  0  0  0  0  0  0  0  0  0  0
  1  2  2  0
  1 20  1  0
  1 21  1  0
  2 16  1  0
  2  3  1  0
  3  8  1  0
  3  4  1  0
  3 22  1  1
  4  5  1  0
  4 23  1  0
  4 24  1  0
  5 15  1  0
  5  6  1  0
  5 25  1  1
  6 19  1  0
  6  7  1  0
  6 26  1  6
  7  8  1  0
  7 27  1  0
  7 28  1  0
  8  9  1  0
  8 29  1  1
  9 18  1  0
  9 10  1  6
  9 11  1  0
 10 30  1  0
 10 31  1  0
 10 32  1  0
 11 12  1  0
 11 33  1  0
 11 34  1  0
 12 13  1  0
 12 14  1  0
 12 43  1  6
 13 35  1  0
 13 36  1  0
 13 37  1  0
 15 14  1  6
 14 38  1  0
 14 39  1  0
 15 16  1  0
 15 18  1  0
 16 17  1  0
 16 40  1  6
 17 41  1  0
 18 19  1  0
 18 42  1  6
M  CHG  1  12   1
M  END
>  <i_m_ct_stereo_status>  (327) 
1

>  <s_m_source_file>  (327) 
/var/tmp/pbs.5076255.sched01/tmpegbcst3k/90u3quomt0.sdf

>  <i_m_source_file_index>  (327) 
37

>  <i_lp_mmshare_version>  (327) 
48012

>  <i_f3d_flags>  (327) 
2

>  <s_epik_input>  (327) 
W0NAXTEyM1tDQEhdNFtDQEBIXTVbQ0gyXVtDQEhdKFtDQEhdKFtDSDJdNClDKD1bQ0gyXSlbQ0BASF0yW09IXSlbQ0BdKFtDSDNdKShbQ0hdM081KVtDSDJdTihbQ0gzXSlbQ0gyXTE=

>  <s_epik_cmdline>  (327) 
J2VwaWtfcHl0aG9uJywgJy1waHQnLCAnMi4wJywgJy1waCcsICc3LjAnLCAnLXRuJywgJzgnLCAnLW1hJywgJzIwMCcsICctaW1hZScsICc8aW5maWxlLm1hZT4nLCAnLW9tYWUnLCAnPG91dGZpbGUubWFlPic=

>  <r_epik_Ionization_Penalty>  (327) 
0.00839076

>  <r_epik_Ionization_Penalty_Charging>  (327) 
0.00839058

>  <r_epik_Ionization_Penalty_Neutral>  (327) 
1.8222e-07

>  <r_epik_State_Penalty>  (327) 
0.00632026

>  <r_epik_Charging_Adjusted_Penalty>  (327) 
0.0147108

>  <i_epik_Tot_Q>  (327) 
1

>  <i_epik_Tot_abs_Q>  (327) 
1

>  <s_lp_Force_Field>  (327) 
OPLS3e

>  <r_lp_Energy>  (327) 
178.789

>  <b_lp_Chiralities_Consistent>  (327) 
0

>  <s_lp_Variant>  (327) 
81:0-1

>  <s_i_glide_gridfile>  (327) 
pfpi4k_grid

>  <i_i_glide_lignum>  (327) 
37

>  <i_i_glide_rotatable_bonds>  (327) 
1

>  <r_i_docking_score>  (327) 
-3.76438

>  <r_i_glide_ligand_efficiency>  (327) 
-0.198126

>  <r_i_glide_ligand_efficiency_sa>  (327) 
-0.528678

>  <r_i_glide_ligand_efficiency_ln>  (327) 
-0.954352

>  <r_i_glide_gscore>  (327) 
-3.76438

>  <r_i_glide_lipo>  (327) 
-0.704945

>  <r_i_glide_hbond>  (327) 
-0.0857263

>  <r_i_glide_metal>  (327) 
-0

>  <r_i_glide_rewards>  (327) 
-1.62022

>  <r_i_glide_evdw>  (327) 
-16.5601

>  <r_i_glide_ecoul>  (327) 
-3.13388

>  <r_i_glide_erotb>  (327) 
0

>  <r_i_glide_esite>  (327) 
-0.0554018

>  <r_i_glide_emodel>  (327) 
-25.346

>  <r_i_glide_energy>  (327) 
-19.694

>  <r_i_glide_einternal>  (327) 
0.844073

>  <r_i_glide_intrahb_reward>  (327) 
-0

>  <i_i_glide_confnum>  (327) 
1

>  <i_i_glide_posenum>  (327) 
10

>  <r_i_glide_eff_state_penalty>  (327) 
0

>  <ligand_id>  (327) 
81

>  <original_smiles>  (327) 
C=C1C2CC3C4CC2C2(C)CN(C)CC3(C1O)C2O4

>  <smiles>  (327) 
[H]OC1([H])C(=C([H])[H])C2([H])C([H])([H])C3([H])C4([H])OC5([H])C(C([H])([H])[H])(C2([H])C4([H])[H])C([H])([H])[N+]([H])(C([H])([H])[H])C([H])([H])C153

$$$$
81:1:0
     RDKit          3D

 42 46  0  0  1  0  0  0  0  0999 V2000
    2.4721   -3.1751    2.3196 C   0  0  0  0  0  0  0  0  0  0  0  0
    3.4339   -3.5243    1.4504 C   0  0  0  0  0  0  0  0  0  0  0  0
    4.9434   -3.3916    1.8121 C   0  0  1  0  0  0  0  0  0  0  0  0
    5.4936   -4.7656    1.2989 C   0  0  0  0  0  0  0  0  0  0  0  0
    5.6397   -4.6558   -0.2551 C   0  0  2  0  0  0  0  0  0  0  0  0
    6.9286   -3.7610   -0.3641 C   0  0  2  0  0  0  0  0  0  0  0  0
    7.1944   -2.7085    0.7687 C   0  0  0  0  0  0  0  0  0  0  0  0
    5.7744   -2.1150    1.1183 C   0  0  1  0  0  0  0  0  0  0  0  0
    4.9968   -1.3348   -0.1279 C   0  0  1  0  0  0  0  0  0  0  0  0
    3.8043   -0.5412    0.4949 C   0  0  0  0  0  0  0  0  0  0  0  0
    5.1383   -0.9351   -1.7525 C   0  0  0  0  0  0  0  0  0  0  0  0
    4.3788   -1.8295   -2.7839 N   0  0  0  0  0  0  0  0  0  0  0  0
    3.0420   -1.2881   -3.0003 C   0  0  0  0  0  0  0  0  0  0  0  0
    4.2725   -3.3629   -2.4941 C   0  0  0  0  0  0  0  0  0  0  0  0
    4.3823   -3.8844   -0.9190 C   0  0  1  0  0  0  0  0  0  0  0  0
    3.1111   -4.0826    0.0218 C   0  0  1  0  0  0  0  0  0  0  0  0
    2.7401   -5.4456    0.0780 O   0  0  0  0  0  0  0  0  0  0  0  0
    5.1056   -2.7149   -0.5636 C   0  0  2  0  0  0  0  0  0  0  0  0
    6.3692   -2.9233   -1.2689 O   0  0  0  0  0  0  0  0  0  0  0  0
    1.4311   -3.2718    2.0678 H   0  0  0  0  0  0  0  0  0  0  0  0
    2.7215   -2.7806    3.2929 H   0  0  0  0  0  0  0  0  0  0  0  0
    5.0456   -3.3482    2.8951 H   0  0  0  0  0  0  0  0  0  0  0  0
    6.4449   -5.0289    1.7679 H   0  0  0  0  0  0  0  0  0  0  0  0
    4.8284   -5.5836    1.5780 H   0  0  0  0  0  0  0  0  0  0  0  0
    5.7812   -5.6341   -0.7053 H   0  0  0  0  0  0  0  0  0  0  0  0
    7.8315   -4.2551   -0.7267 H   0  0  0  0  0  0  0  0  0  0  0  0
    7.6421   -3.1970    1.6275 H   0  0  0  0  0  0  0  0  0  0  0  0
    7.8677   -1.9245    0.4213 H   0  0  0  0  0  0  0  0  0  0  0  0
    5.9241   -1.3726    1.8987 H   0  0  0  0  0  0  0  0  0  0  0  0
    4.0466    0.5218    0.4891 H   0  0  0  0  0  0  0  0  0  0  0  0
    3.6079   -0.7978    1.5331 H   0  0  0  0  0  0  0  0  0  0  0  0
    2.8857   -0.6680   -0.0676 H   0  0  0  0  0  0  0  0  0  0  0  0
    4.8039    0.0911   -1.8896 H   0  0  0  0  0  0  0  0  0  0  0  0
    6.1848   -0.8961   -2.0527 H   0  0  0  0  0  0  0  0  0  0  0  0
    2.5482   -1.7864   -3.8328 H   0  0  0  0  0  0  0  0  0  0  0  0
    3.0757   -0.2232   -3.2319 H   0  0  0  0  0  0  0  0  0  0  0  0
    2.4158   -1.4195   -2.1228 H   0  0  0  0  0  0  0  0  0  0  0  0
    3.3701   -3.7647   -2.9510 H   0  0  0  0  0  0  0  0  0  0  0  0
    5.0948   -3.8171   -3.0519 H   0  0  0  0  0  0  0  0  0  0  0  0
    2.2533   -3.5444   -0.3818 H   0  0  0  0  0  0  0  0  0  0  0  0
    2.8075   -5.7934   -0.8137 H   0  0  0  0  0  0  0  0  0  0  0  0
    4.0827   -2.3588   -0.6629 H   0  0  0  0  0  0  0  0  0  0  0  0
  1  2  2  0
  1 20  1  0
  1 21  1  0
  2 16  1  0
  2  3  1  0
  3  8  1  0
  3  4  1  0
  3 22  1  1
  4  5  1  0
  4 23  1  0
  4 24  1  0
  5 15  1  0
  5  6  1  0
  5 25  1  6
  6 19  1  0
  6  7  1  0
  6 26  1  6
  7  8  1  0
  7 27  1  0
  7 28  1  0
  8  9  1  0
  8 29  1  1
  9 18  1  0
  9 10  1  1
  9 11  1  0
 10 30  1  0
 10 31  1  0
 10 32  1  0
 11 12  1  0
 11 33  1  0
 11 34  1  0
 12 13  1  0
 12 14  1  0
 13 35  1  0
 13 36  1  0
 13 37  1  0
 15 14  1  6
 14 38  1  0
 14 39  1  0
 15 16  1  0
 15 18  1  0
 16 17  1  0
 16 40  1  6
 17 41  1  0
 18 19  1  0
 18 42  1  1
M  END
>  <i_m_ct_stereo_status>  (328) 
1

>  <s_m_source_file>  (328) 
/var/tmp/pbs.5076255.sched01/tmpegbcst3k/90u3quomt0.sdf

>  <i_m_source_file_index>  (328) 
38

>  <i_lp_mmshare_version>  (328) 
48012

>  <i_f3d_flags>  (328) 
0

>  <s_epik_input>  (328) 
W0NAXTEyM1tDQEhdNFtDQEBIXTVbQ0gyXVtDQEhdKFtDQEhdKFtDSDJdNClDKD1bQ0gyXSlbQ0BASF0yW09IXSlbQ0BdKFtDSDNdKShbQ0hdM081KVtDSDJdTihbQ0gzXSlbQ0gyXTE=

>  <s_epik_cmdline>  (328) 
J2VwaWtfcHl0aG9uJywgJy1waHQnLCAnMi4wJywgJy1waCcsICc3LjAnLCAnLXRuJywgJzgnLCAnLW1hJywgJzIwMCcsICctaW1hZScsICc8aW5maWxlLm1hZT4nLCAnLW9tYWUnLCAnPG91dGZpbGUubWFlPic=

>  <r_epik_Ionization_Penalty>  (328) 
2.52653

>  <r_epik_Ionization_Penalty_Charging>  (328) 
0

>  <r_epik_Ionization_Penalty_Neutral>  (328) 
2.52653

>  <r_epik_State_Penalty>  (328) 
2.69338

>  <r_epik_Charging_Adjusted_Penalty>  (328) 
2.69338

>  <i_epik_Tot_Q>  (328) 
0

>  <i_epik_Tot_abs_Q>  (328) 
0

>  <s_lp_Force_Field>  (328) 
OPLS3e

>  <r_lp_Energy>  (328) 
348.961

>  <b_lp_Chiralities_Consistent>  (328) 
1

>  <s_lp_Variant>  (328) 
81:0-2

>  <s_i_glide_gridfile>  (328) 
pfpi4k_grid

>  <i_i_glide_lignum>  (328) 
38

>  <i_i_glide_rotatable_bonds>  (328) 
1

>  <r_i_docking_score>  (328) 
-4.20862

>  <r_i_glide_ligand_efficiency>  (328) 
-0.221507

>  <r_i_glide_ligand_efficiency_sa>  (328) 
-0.591068

>  <r_i_glide_ligand_efficiency_ln>  (328) 
-1.06698

>  <r_i_glide_gscore>  (328) 
-4.20862

>  <r_i_glide_lipo>  (328) 
-0.428901

>  <r_i_glide_hbond>  (328) 
-0.32

>  <r_i_glide_metal>  (328) 
-0

>  <r_i_glide_rewards>  (328) 
-1.6271

>  <r_i_glide_evdw>  (328) 
-16.7062

>  <r_i_glide_ecoul>  (328) 
-6.6488

>  <r_i_glide_erotb>  (328) 
0

>  <r_i_glide_esite>  (328) 
0

>  <r_i_glide_emodel>  (328) 
-28.8509

>  <r_i_glide_energy>  (328) 
-23.355

>  <r_i_glide_einternal>  (328) 
0.577964

>  <r_i_glide_intrahb_reward>  (328) 
-0

>  <i_i_glide_confnum>  (328) 
2

>  <i_i_glide_posenum>  (328) 
8

>  <r_i_glide_eff_state_penalty>  (328) 
0

>  <ligand_id>  (328) 
81

>  <original_smiles>  (328) 
C=C1C2CC3C4CC2C2(C)CN(C)CC3(C1O)C2O4

>  <smiles>  (328) 
[H]OC1([H])C(=C([H])[H])C2([H])C([H])([H])C3([H])C4([H])OC5([H])C(C([H])([H])[H])(C([H])([H])N(C([H])([H])[H])C([H])([H])C153)C2([H])C4([H])[H]

$$$$
81:1:1
     RDKit          3D

 42 46  0  0  1  0  0  0  0  0999 V2000
    3.7313   -4.3277    2.4697 C   0  0  0  0  0  0  0  0  0  0  0  0
    4.6693   -4.0765    1.5424 C   0  0  0  0  0  0  0  0  0  0  0  0
    5.8033   -3.0330    1.7719 C   0  0  1  0  0  0  0  0  0  0  0  0
    7.0558   -3.8335    1.2639 C   0  0  0  0  0  0  0  0  0  0  0  0
    7.0402   -3.7717   -0.2944 C   0  0  2  0  0  0  0  0  0  0  0  0
    7.5067   -2.2959   -0.5461 C   0  0  2  0  0  0  0  0  0  0  0  0
    7.1124   -1.1955    0.5116 C   0  0  0  0  0  0  0  0  0  0  0  0
    5.6533   -1.5781    0.9695 C   0  0  1  0  0  0  0  0  0  0  0  0
    4.5131   -1.5282   -0.2336 C   0  0  1  0  0  0  0  0  0  0  0  0
    3.1095   -1.5831    0.4695 C   0  0  0  0  0  0  0  0  0  0  0  0
    4.3068   -1.2477   -1.8759 C   0  0  0  0  0  0  0  0  0  0  0  0
    4.1992   -2.5013   -2.8067 N   0  0  0  0  0  0  0  0  0  0  0  0
    2.7973   -2.9072   -2.9095 C   0  0  0  0  0  0  0  0  0  0  0  0
    5.0704   -3.7527   -2.4596 C   0  0  0  0  0  0  0  0  0  0  0  0
    5.5446   -3.9846   -0.8825 C   0  0  1  0  0  0  0  0  0  0  0  0
    4.6926   -4.8278    0.1709 C   0  0  1  0  0  0  0  0  0  0  0  0
    5.2306   -6.1219    0.3301 O   0  0  0  0  0  0  0  0  0  0  0  0
    5.4176   -2.5951   -0.6378 C   0  0  2  0  0  0  0  0  0  0  0  0
    6.5156   -2.0457   -1.4393 O   0  0  0  0  0  0  0  0  0  0  0  0
    2.9636   -5.0664    2.2946 H   0  0  0  0  0  0  0  0  0  0  0  0
    3.7285   -3.7978    3.4108 H   0  0  0  0  0  0  0  0  0  0  0  0
    5.8975   -2.8500    2.8442 H   0  0  0  0  0  0  0  0  0  0  0  0
    7.9996   -3.4536    1.6546 H   0  0  0  0  0  0  0  0  0  0  0  0
    7.0304   -4.8658    1.6216 H   0  0  0  0  0  0  0  0  0  0  0  0
    7.7740   -4.4566   -0.7088 H   0  0  0  0  0  0  0  0  0  0  0  0
    8.5074   -2.2060   -0.9770 H   0  0  0  0  0  0  0  0  0  0  0  0
    7.8164   -1.1640    1.3331 H   0  0  0  0  0  0  0  0  0  0  0  0
    7.0866   -0.1993    0.0856 H   0  0  0  0  0  0  0  0  0  0  0  0
    5.3504   -0.8317    1.7068 H   0  0  0  0  0  0  0  0  0  0  0  0
    2.6420   -0.6004    0.3928 H   0  0  0  0  0  0  0  0  0  0  0  0
    3.1640   -1.8111    1.5300 H   0  0  0  0  0  0  0  0  0  0  0  0
    2.4288   -2.2887   -0.0015 H   0  0  0  0  0  0  0  0  0  0  0  0
    3.3928   -0.6645   -2.0011 H   0  0  0  0  0  0  0  0  0  0  0  0
    5.0766   -0.5740   -2.2646 H   0  0  0  0  0  0  0  0  0  0  0  0
    2.6697   -3.6676   -3.6776 H   0  0  0  0  0  0  0  0  0  0  0  0
    2.1748   -2.0616   -3.1928 H   0  0  0  0  0  0  0  0  0  0  0  0
    2.3987   -3.3147   -1.9793 H   0  0  0  0  0  0  0  0  0  0  0  0
    4.6092   -4.6607   -2.8364 H   0  0  0  0  0  0  0  0  0  0  0  0
    5.9759   -3.6474   -3.0601 H   0  0  0  0  0  0  0  0  0  0  0  0
    3.6644   -4.9576   -0.1708 H   0  0  0  0  0  0  0  0  0  0  0  0
    5.1668   -6.5709   -0.5001 H   0  0  0  0  0  0  0  0  0  0  0  0
    4.3849   -2.9310   -0.6653 H   0  0  0  0  0  0  0  0  0  0  0  0
  1  2  2  0
  1 20  1  0
  1 21  1  0
  2 16  1  0
  2  3  1  0
  3  8  1  0
  3  4  1  0
  3 22  1  1
  4  5  1  0
  4 23  1  0
  4 24  1  0
  5 15  1  0
  5  6  1  0
  5 25  1  6
  6 19  1  0
  6  7  1  0
  6 26  1  6
  7  8  1  0
  7 27  1  0
  7 28  1  0
  8  9  1  0
  8 29  1  1
  9 18  1  0
  9 10  1  1
  9 11  1  0
 10 30  1  0
 10 31  1  0
 10 32  1  0
 11 12  1  0
 11 33  1  0
 11 34  1  0
 12 13  1  0
 12 14  1  0
 13 35  1  0
 13 36  1  0
 13 37  1  0
 15 14  1  6
 14 38  1  0
 14 39  1  0
 15 16  1  0
 15 18  1  0
 16 17  1  0
 16 40  1  6
 17 41  1  0
 18 19  1  0
 18 42  1  1
M  END
>  <i_m_ct_stereo_status>  (329) 
1

>  <s_m_source_file>  (329) 
/var/tmp/pbs.5076255.sched01/tmpegbcst3k/90u3quomt0.sdf

>  <i_m_source_file_index>  (329) 
38

>  <i_lp_mmshare_version>  (329) 
48012

>  <i_f3d_flags>  (329) 
0

>  <s_epik_input>  (329) 
W0NAXTEyM1tDQEhdNFtDQEBIXTVbQ0gyXVtDQEhdKFtDQEhdKFtDSDJdNClDKD1bQ0gyXSlbQ0BASF0yW09IXSlbQ0BdKFtDSDNdKShbQ0hdM081KVtDSDJdTihbQ0gzXSlbQ0gyXTE=

>  <s_epik_cmdline>  (329) 
J2VwaWtfcHl0aG9uJywgJy1waHQnLCAnMi4wJywgJy1waCcsICc3LjAnLCAnLXRuJywgJzgnLCAnLW1hJywgJzIwMCcsICctaW1hZScsICc8aW5maWxlLm1hZT4nLCAnLW9tYWUnLCAnPG91dGZpbGUubWFlPic=

>  <r_epik_Ionization_Penalty>  (329) 
2.52653

>  <r_epik_Ionization_Penalty_Charging>  (329) 
0

>  <r_epik_Ionization_Penalty_Neutral>  (329) 
2.52653

>  <r_epik_State_Penalty>  (329) 
2.69338

>  <r_epik_Charging_Adjusted_Penalty>  (329) 
2.69338

>  <i_epik_Tot_Q>  (329) 
0

>  <i_epik_Tot_abs_Q>  (329) 
0

>  <s_lp_Force_Field>  (329) 
OPLS3e

>  <r_lp_Energy>  (329) 
348.961

>  <b_lp_Chiralities_Consistent>  (329) 
1

>  <s_lp_Variant>  (329) 
81:0-2

>  <s_i_glide_gridfile>  (329) 
pfpi4k_grid

>  <i_i_glide_lignum>  (329) 
38

>  <i_i_glide_rotatable_bonds>  (329) 
1

>  <r_i_docking_score>  (329) 
-3.83909

>  <r_i_glide_ligand_efficiency>  (329) 
-0.202057

>  <r_i_glide_ligand_efficiency_sa>  (329) 
-0.53917

>  <r_i_glide_ligand_efficiency_ln>  (329) 
-0.973291

>  <r_i_glide_gscore>  (329) 
-3.83909

>  <r_i_glide_lipo>  (329) 
-0.517584

>  <r_i_glide_hbond>  (329) 
-0.16

>  <r_i_glide_metal>  (329) 
-0

>  <r_i_glide_rewards>  (329) 
-1.6271

>  <r_i_glide_evdw>  (329) 
-17.7822

>  <r_i_glide_ecoul>  (329) 
-4.30197

>  <r_i_glide_erotb>  (329) 
0

>  <r_i_glide_esite>  (329) 
0

>  <r_i_glide_emodel>  (329) 
-27.1183

>  <r_i_glide_energy>  (329) 
-22.0842

>  <r_i_glide_einternal>  (329) 
0.45918

>  <r_i_glide_intrahb_reward>  (329) 
-0

>  <i_i_glide_confnum>  (329) 
2

>  <i_i_glide_posenum>  (329) 
2

>  <r_i_glide_eff_state_penalty>  (329) 
0

>  <ligand_id>  (329) 
81

>  <original_smiles>  (329) 
C=C1C2CC3C4CC2C2(C)CN(C)CC3(C1O)C2O4

>  <smiles>  (329) 
[H]OC1([H])C(=C([H])[H])C2([H])C([H])([H])C3([H])C4([H])OC5([H])C(C([H])([H])[H])(C([H])([H])N(C([H])([H])[H])C([H])([H])C153)C2([H])C4([H])[H]

$$$$
81:1:2
     RDKit          3D

 42 46  0  0  1  0  0  0  0  0999 V2000
    7.7925   -3.2254   -0.9954 C   0  0  0  0  0  0  0  0  0  0  0  0
    6.5308   -2.9113   -0.6604 C   0  0  0  0  0  0  0  0  0  0  0  0
    5.5670   -3.9355    0.0147 C   0  0  1  0  0  0  0  0  0  0  0  0
    4.9428   -3.0438    1.1502 C   0  0  0  0  0  0  0  0  0  0  0  0
    3.8671   -2.1209    0.4771 C   0  0  2  0  0  0  0  0  0  0  0  0
    2.7161   -3.1565    0.2587 C   0  0  2  0  0  0  0  0  0  0  0  0
    3.0930   -4.6579   -0.0142 C   0  0  0  0  0  0  0  0  0  0  0  0
    4.3665   -4.5841   -0.9604 C   0  0  1  0  0  0  0  0  0  0  0  0
    4.1020   -3.8369   -2.4381 C   0  0  1  0  0  0  0  0  0  0  0  0
    5.3079   -4.1118   -3.3612 C   0  0  0  0  0  0  0  0  0  0  0  0
    2.9591   -3.0569   -3.3668 C   0  0  0  0  0  0  0  0  0  0  0  0
    3.0738   -1.5077   -3.4066 N   0  0  0  0  0  0  0  0  0  0  0  0
    3.9094   -1.0243   -4.4918 C   0  0  0  0  0  0  0  0  0  0  0  0
    3.4910   -0.7673   -2.1142 C   0  0  0  0  0  0  0  0  0  0  0  0
    4.3649   -1.5667   -0.9560 C   0  0  1  0  0  0  0  0  0  0  0  0
    5.9339   -1.4946   -0.9162 C   0  0  1  0  0  0  0  0  0  0  0  0
    6.3211   -0.6001    0.1062 O   0  0  0  0  0  0  0  0  0  0  0  0
    3.9339   -2.8171   -1.4330 C   0  0  2  0  0  0  0  0  0  0  0  0
    2.5516   -2.8088   -1.0339 O   0  0  0  0  0  0  0  0  0  0  0  0
    8.4545   -2.5199   -1.4777 H   0  0  0  0  0  0  0  0  0  0  0  0
    8.1778   -4.2180   -0.8093 H   0  0  0  0  0  0  0  0  0  0  0  0
    6.1520   -4.7404    0.4657 H   0  0  0  0  0  0  0  0  0  0  0  0
    4.5038   -3.6451    1.9481 H   0  0  0  0  0  0  0  0  0  0  0  0
    5.7107   -2.4616    1.6633 H   0  0  0  0  0  0  0  0  0  0  0  0
    3.5482   -1.3114    1.1344 H   0  0  0  0  0  0  0  0  0  0  0  0
    1.8238   -2.9954    0.8738 H   0  0  0  0  0  0  0  0  0  0  0  0
    3.2977   -5.2157    0.9019 H   0  0  0  0  0  0  0  0  0  0  0  0
    2.2709   -5.1574   -0.5250 H   0  0  0  0  0  0  0  0  0  0  0  0
    4.6585   -5.6117   -1.1652 H   0  0  0  0  0  0  0  0  0  0  0  0
    5.0274   -4.8769   -4.0872 H   0  0  0  0  0  0  0  0  0  0  0  0
    6.0949   -4.4345   -2.7219 H   0  0  0  0  0  0  0  0  0  0  0  0
    5.6891   -3.2524   -3.9010 H   0  0  0  0  0  0  0  0  0  0  0  0
    3.0375   -3.4187   -4.3842 H   0  0  0  0  0  0  0  0  0  0  0  0
    1.9406   -3.3466   -3.0877 H   0  0  0  0  0  0  0  0  0  0  0  0
    3.8243    0.0584   -4.5846 H   0  0  0  0  0  0  0  0  0  0  0  0
    3.5881   -1.4453   -5.4371 H   0  0  0  0  0  0  0  0  0  0  0  0
    4.9537   -1.2600   -4.3182 H   0  0  0  0  0  0  0  0  0  0  0  0
    3.9549    0.1742   -2.3617 H   0  0  0  0  0  0  0  0  0  0  0  0
    2.5420   -0.5538   -1.6744 H   0  0  0  0  0  0  0  0  0  0  0  0
    6.2583   -1.1207   -1.8788 H   0  0  0  0  0  0  0  0  0  0  0  0
    5.8295    0.2064    0.0259 H   0  0  0  0  0  0  0  0  0  0  0  0
    4.6108   -2.4866   -2.1972 H   0  0  0  0  0  0  0  0  0  0  0  0
  1  2  2  0
  1 20  1  0
  1 21  1  0
  2 16  1  0
  2  3  1  0
  3  8  1  0
  3  4  1  0
  3 22  1  1
  4  5  1  0
  4 23  1  0
  4 24  1  0
  5 15  1  0
  5  6  1  0
  5 25  1  1
  6 19  1  0
  6  7  1  0
  6 26  1  1
  7  8  1  0
  7 27  1  0
  7 28  1  0
  8  9  1  0
  8 29  1  6
  9 18  1  0
  9 10  1  6
  9 11  1  0
 10 30  1  0
 10 31  1  0
 10 32  1  0
 11 12  1  0
 11 33  1  0
 11 34  1  0
 12 13  1  0
 12 14  1  0
 13 35  1  0
 13 36  1  0
 13 37  1  0
 15 14  1  6
 14 38  1  0
 14 39  1  0
 15 16  1  0
 15 18  1  0
 16 17  1  0
 16 40  1  6
 17 41  1  0
 18 19  1  0
 18 42  1  1
M  END
>  <i_m_ct_stereo_status>  (330) 
1

>  <s_m_source_file>  (330) 
/var/tmp/pbs.5076255.sched01/tmpegbcst3k/90u3quomt0.sdf

>  <i_m_source_file_index>  (330) 
38

>  <i_lp_mmshare_version>  (330) 
48012

>  <i_f3d_flags>  (330) 
0

>  <s_epik_input>  (330) 
W0NAXTEyM1tDQEhdNFtDQEBIXTVbQ0gyXVtDQEhdKFtDQEhdKFtDSDJdNClDKD1bQ0gyXSlbQ0BASF0yW09IXSlbQ0BdKFtDSDNdKShbQ0hdM081KVtDSDJdTihbQ0gzXSlbQ0gyXTE=

>  <s_epik_cmdline>  (330) 
J2VwaWtfcHl0aG9uJywgJy1waHQnLCAnMi4wJywgJy1waCcsICc3LjAnLCAnLXRuJywgJzgnLCAnLW1hJywgJzIwMCcsICctaW1hZScsICc8aW5maWxlLm1hZT4nLCAnLW9tYWUnLCAnPG91dGZpbGUubWFlPic=

>  <r_epik_Ionization_Penalty>  (330) 
2.52653

>  <r_epik_Ionization_Penalty_Charging>  (330) 
0

>  <r_epik_Ionization_Penalty_Neutral>  (330) 
2.52653

>  <r_epik_State_Penalty>  (330) 
2.69338

>  <r_epik_Charging_Adjusted_Penalty>  (330) 
2.69338

>  <i_epik_Tot_Q>  (330) 
0

>  <i_epik_Tot_abs_Q>  (330) 
0

>  <s_lp_Force_Field>  (330) 
OPLS3e

>  <r_lp_Energy>  (330) 
348.961

>  <b_lp_Chiralities_Consistent>  (330) 
1

>  <s_lp_Variant>  (330) 
81:0-2

>  <s_i_glide_gridfile>  (330) 
pfpi4k_grid

>  <i_i_glide_lignum>  (330) 
38

>  <i_i_glide_rotatable_bonds>  (330) 
1

>  <r_i_docking_score>  (330) 
-2.55058

>  <r_i_glide_ligand_efficiency>  (330) 
-0.134241

>  <r_i_glide_ligand_efficiency_sa>  (330) 
-0.358209

>  <r_i_glide_ligand_efficiency_ln>  (330) 
-0.646627

>  <r_i_glide_gscore>  (330) 
-2.55058

>  <r_i_glide_lipo>  (330) 
-0.304695

>  <r_i_glide_hbond>  (330) 
-0.2375

>  <r_i_glide_metal>  (330) 
-0

>  <r_i_glide_rewards>  (330) 
-1.6271

>  <r_i_glide_evdw>  (330) 
-11.2611

>  <r_i_glide_ecoul>  (330) 
1.21177

>  <r_i_glide_erotb>  (330) 
0

>  <r_i_glide_esite>  (330) 
0

>  <r_i_glide_emodel>  (330) 
-12.5108

>  <r_i_glide_energy>  (330) 
-10.0494

>  <r_i_glide_einternal>  (330) 
0.608092

>  <r_i_glide_intrahb_reward>  (330) 
-0

>  <i_i_glide_confnum>  (330) 
1

>  <i_i_glide_posenum>  (330) 
25

>  <r_i_glide_eff_state_penalty>  (330) 
0

>  <ligand_id>  (330) 
81

>  <original_smiles>  (330) 
C=C1C2CC3C4CC2C2(C)CN(C)CC3(C1O)C2O4

>  <smiles>  (330) 
[H]OC1([H])C(=C([H])[H])C2([H])C([H])([H])C3([H])C4([H])OC5([H])C(C([H])([H])[H])(C([H])([H])N(C([H])([H])[H])C([H])([H])C153)C2([H])C4([H])[H]

$$$$
82:0:0
     RDKit          3D

 69 75  0  0  1  0  0  0  0  0999 V2000
    0.2528    0.0707    3.5792 C   0  0  0  0  0  0  0  0  0  0  0  0
    0.3004    0.8713    4.6696 C   0  0  0  0  0  0  0  0  0  0  0  0
    1.2281    2.0756    4.7589 C   0  0  2  0  0  0  0  0  0  0  0  0
    2.1947    2.0748    6.0613 C   0  0  1  0  0  0  0  0  0  0  0  0
    2.8023    3.3507    6.0337 O   0  0  0  0  0  0  0  0  0  0  0  0
    1.5186    2.0935    7.5075 C   0  0  2  0  0  0  0  0  0  0  0  0
    1.5581    0.7336    8.3272 C   0  0  1  0  0  0  0  0  0  0  0  0
    0.3192   -0.1840    8.1578 C   0  0  0  0  0  0  0  0  0  0  0  0
    0.1507   -0.4853    6.6949 C   0  0  1  0  0  0  0  0  0  0  0  0
   -1.1113   -0.7072    6.0616 O   0  0  0  0  0  0  0  0  0  0  0  0
   -0.4953    0.5881    5.8784 C   0  0  2  0  0  0  0  0  0  0  0  0
   -1.4386    1.6443    6.4261 C   0  0  0  0  0  0  0  0  0  0  0  0
   -0.8953    3.0697    6.7212 C   0  0  1  0  0  0  0  0  0  0  0  0
   -1.9991    3.8877    7.2137 O   0  0  0  0  0  0  0  0  0  0  0  0
   -3.0431    3.3320    8.0234 C   0  0  0  0  0  0  0  0  0  0  0  0
    0.2940    3.0514    7.7555 C   0  0  1  0  0  0  0  0  0  0  0  0
   -0.1825    2.7791    9.0552 O   0  0  0  0  0  0  0  0  0  0  0  0
   -0.5041    3.8909    5.4666 C   0  0  2  0  0  0  0  0  0  0  0  0
   -0.2115    5.2420    5.7856 O   0  0  0  0  0  0  0  0  0  0  0  0
   -0.9617    3.6894    4.0247 C   0  0  1  0  0  0  0  0  0  0  0  0
   -2.0163    2.7204    3.4919 C   0  0  0  0  0  0  0  0  0  0  0  0
   -1.1770    4.9109    3.3282 O   0  0  0  0  0  0  0  0  0  0  0  0
    0.5173    3.4215    4.4196 C   0  0  2  0  0  0  0  0  0  0  0  0
    1.4793    4.3279    3.5992 C   0  0  0  0  0  0  0  0  0  0  0  0
    2.9179   -0.0029    8.1359 C   0  0  2  0  0  0  0  0  0  0  0  0
    2.8933   -1.4533    8.6677 C   0  0  0  0  0  0  0  0  0  0  0  0
    4.1096    0.7062    8.8523 C   0  0  0  0  0  0  0  0  0  0  0  0
    4.7561    1.8607    8.0814 C   0  0  0  0  0  0  0  0  0  0  0  0
    4.8003    1.5697    6.5791 C   0  0  1  0  0  0  0  0  0  0  0  0
    5.8619    0.6572    6.3660 O   0  0  0  0  0  0  0  0  0  0  0  0
    3.4360    1.0336    5.9958 C   0  0  2  0  0  0  0  0  0  0  0  0
    3.7131    0.4898    4.5677 C   0  0  0  0  0  0  0  0  0  0  0  0
    3.1522   -0.1506    6.7405 O   0  0  0  0  0  0  0  0  0  0  0  0
   -0.3931   -0.7965    3.5651 H   0  0  0  0  0  0  0  0  0  0  0  0
    0.8514    0.2718    2.7067 H   0  0  0  0  0  0  0  0  0  0  0  0
    1.8618    1.9649    3.8851 H   0  0  0  0  0  0  0  0  0  0  0  0
    3.1834    3.4718    5.1774 H   0  0  0  0  0  0  0  0  0  0  0  0
    2.2327    2.6304    8.1170 H   0  0  0  0  0  0  0  0  0  0  0  0
    1.5305    0.9867    9.3857 H   0  0  0  0  0  0  0  0  0  0  0  0
    0.3889   -1.1204    8.7135 H   0  0  0  0  0  0  0  0  0  0  0  0
   -0.5469    0.2761    8.6051 H   0  0  0  0  0  0  0  0  0  0  0  0
    0.9211   -1.1052    6.2598 H   0  0  0  0  0  0  0  0  0  0  0  0
   -2.3173    1.6914    5.7917 H   0  0  0  0  0  0  0  0  0  0  0  0
   -1.8454    1.2096    7.3202 H   0  0  0  0  0  0  0  0  0  0  0  0
   -3.6858    4.1222    8.4361 H   0  0  0  0  0  0  0  0  0  0  0  0
   -2.6662    2.7685    8.8820 H   0  0  0  0  0  0  0  0  0  0  0  0
   -3.6974    2.6774    7.4392 H   0  0  0  0  0  0  0  0  0  0  0  0
    0.6978    4.0694    7.8117 H   0  0  0  0  0  0  0  0  0  0  0  0
    0.4738    3.0293    9.6881 H   0  0  0  0  0  0  0  0  0  0  0  0
    0.5582    5.4589    5.2991 H   0  0  0  0  0  0  0  0  0  0  0  0
   -1.8748    1.6949    3.7639 H   0  0  0  0  0  0  0  0  0  0  0  0
   -2.0274    2.7374    2.4021 H   0  0  0  0  0  0  0  0  0  0  0  0
   -3.0023    3.0299    3.8413 H   0  0  0  0  0  0  0  0  0  0  0  0
   -0.7983    4.7993    2.4610 H   0  0  0  0  0  0  0  0  0  0  0  0
    1.2706    5.3869    3.7195 H   0  0  0  0  0  0  0  0  0  0  0  0
    1.3714    4.0924    2.5406 H   0  0  0  0  0  0  0  0  0  0  0  0
    2.5283    4.1730    3.8139 H   0  0  0  0  0  0  0  0  0  0  0  0
    2.6071   -1.4875    9.7199 H   0  0  0  0  0  0  0  0  0  0  0  0
    3.8743   -1.9244    8.5729 H   0  0  0  0  0  0  0  0  0  0  0  0
    2.2136   -2.0952    8.1016 H   0  0  0  0  0  0  0  0  0  0  0  0
    3.8099    1.0407    9.8469 H   0  0  0  0  0  0  0  0  0  0  0  0
    4.8995   -0.0266    9.0212 H   0  0  0  0  0  0  0  0  0  0  0  0
    4.2503    2.8040    8.2635 H   0  0  0  0  0  0  0  0  0  0  0  0
    5.7658    2.0341    8.4548 H   0  0  0  0  0  0  0  0  0  0  0  0
    5.1040    2.4711    6.0542 H   0  0  0  0  0  0  0  0  0  0  0  0
    5.6309   -0.1481    6.8073 H   0  0  0  0  0  0  0  0  0  0  0  0
    4.0012    1.2871    3.8822 H   0  0  0  0  0  0  0  0  0  0  0  0
    2.8568   -0.0382    4.1585 H   0  0  0  0  0  0  0  0  0  0  0  0
    4.5125   -0.2517    4.5538 H   0  0  0  0  0  0  0  0  0  0  0  0
  1  2  2  0
  1 34  1  0
  1 35  1  0
  2 11  1  0
  2  3  1  0
  3 23  1  0
  3  4  1  0
  3 36  1  6
  4 31  1  0
  4  5  1  6
  4  6  1  0
  5 37  1  0
  6 16  1  0
  6  7  1  0
  6 38  1  1
  7  8  1  0
  7 25  1  0
  7 39  1  1
  8  9  1  0
  8 40  1  0
  8 41  1  0
  9 11  1  0
  9 10  1  0
  9 42  1  6
 11 10  1  6
 11 12  1  0
 12 13  1  0
 12 43  1  0
 12 44  1  0
 13 14  1  1
 13 16  1  0
 13 18  1  0
 14 15  1  0
 15 45  1  0
 15 46  1  0
 15 47  1  0
 16 17  1  0
 16 48  1  1
 17 49  1  0
 18 23  1  0
 18 19  1  1
 18 20  1  0
 19 50  1  0
 20 21  1  0
 20 22  1  6
 20 23  1  0
 21 51  1  0
 21 52  1  0
 21 53  1  0
 22 54  1  0
 23 24  1  6
 24 55  1  0
 24 56  1  0
 24 57  1  0
 25 33  1  0
 25 26  1  1
 25 27  1  0
 26 58  1  0
 26 59  1  0
 26 60  1  0
 27 28  1  0
 27 61  1  0
 27 62  1  0
 28 29  1  0
 28 63  1  0
 28 64  1  0
 29 30  1  0
 29 31  1  0
 29 65  1  6
 30 66  1  0
 31 32  1  6
 31 33  1  0
 32 67  1  0
 32 68  1  0
 32 69  1  0
M  END
>  <i_m_ct_stereo_status>  (331) 
1

>  <s_m_source_file>  (331) 
/var/tmp/pbs.5076255.sched01/tmpegbcst3k/90u3quomt0.sdf

>  <i_m_source_file_index>  (331) 
39

>  <i_lp_mmshare_version>  (331) 
48012

>  <i_f3d_flags>  (331) 
0

>  <s_epik_input>  (331) 
W0NIM11PW0NAXShbQ0gyXTEpKFtDQEhdMltPSF0pW0NAXShbT0hdKShbQ0BAXTMoW0NIM10pW09IXSlbQ0BAXTMoW0NIM10pW0NASF0oQzQ9W0NIMl0pW0NAQF0oW09IXSkoW0NAQEhdMltDQEhdNVtDSDJdW0NAQEhdKE82KVtDQEBdMTQ2KVtDQEBdNyhbQ0gzXSlbQ0BIXShbT0hdKVtDSDJdW0NIMl1bQ0BAXTUoTzcpW0NIM10=

>  <s_epik_cmdline>  (331) 
J2VwaWtfcHl0aG9uJywgJy1waHQnLCAnMi4wJywgJy1waCcsICc3LjAnLCAnLXRuJywgJzgnLCAnLW1hJywgJzIwMCcsICctaW1hZScsICc8aW5maWxlLm1hZT4nLCAnLW9tYWUnLCAnPG91dGZpbGUubWFlPic=

>  <r_lp_tautomer_probability>  (331) 
1

>  <r_epik_Ionization_Penalty>  (331) 
2.50343e-07

>  <r_epik_Ionization_Penalty_Charging>  (331) 
0

>  <r_epik_Ionization_Penalty_Neutral>  (331) 
2.50343e-07

>  <r_epik_State_Penalty>  (331) 
-0

>  <r_epik_Charging_Adjusted_Penalty>  (331) 
0

>  <i_epik_Tot_Q>  (331) 
0

>  <i_epik_Tot_abs_Q>  (331) 
0

>  <s_lp_Force_Field>  (331) 
OPLS3e

>  <r_lp_Energy>  (331) 
105.172

>  <b_lp_Chiralities_Consistent>  (331) 
1

>  <s_lp_Variant>  (331) 
82:0-1

>  <s_i_glide_gridfile>  (331) 
pfpi4k_grid

>  <i_i_glide_lignum>  (331) 
39

>  <i_i_glide_rotatable_bonds>  (331) 
6

>  <r_i_docking_score>  (331) 
-2.636

>  <r_i_glide_ligand_efficiency>  (331) 
-0.0798788

>  <r_i_glide_ligand_efficiency_sa>  (331) 
-0.256214

>  <r_i_glide_ligand_efficiency_ln>  (331) 
-0.586233

>  <r_i_glide_gscore>  (331) 
-2.636

>  <r_i_glide_lipo>  (331) 
-0.116157

>  <r_i_glide_hbond>  (331) 
-0.0340552

>  <r_i_glide_metal>  (331) 
-0

>  <r_i_glide_rewards>  (331) 
-0.241714

>  <r_i_glide_evdw>  (331) 
-17.6407

>  <r_i_glide_ecoul>  (331) 
-9.08025

>  <r_i_glide_erotb>  (331) 
0

>  <r_i_glide_esite>  (331) 
0

>  <r_i_glide_emodel>  (331) 
-27.9601

>  <r_i_glide_energy>  (331) 
-26.721

>  <r_i_glide_einternal>  (331) 
7.43577

>  <r_i_glide_intrahb_reward>  (331) 
-0

>  <i_i_glide_confnum>  (331) 
2

>  <i_i_glide_posenum>  (331) 
1

>  <r_i_glide_eff_state_penalty>  (331) 
0

>  <ligand_id>  (331) 
82

>  <original_smiles>  (331) 
C=C1C2C3(O)C4C(CC5OC15CC(OC)(C4O)C1(O)C(C)(O)C21C)C1(C)CCC(O)C3(C)O1

>  <smiles>  (331) 
[H]OC1([H])C([H])([H])C([H])([H])C2(C([H])([H])[H])OC1(C([H])([H])[H])C1(O[H])C3([H])C(=C([H])[H])C45OC4([H])C([H])([H])C2([H])C1([H])C([H])(O[H])C(OC([H])([H])[H])(C5([H])[H])C1(O[H])C(O[H])(C([H])([H])[H])C31C([H])([H])[H]

$$$$
82:0:1
     RDKit          3D

 69 75  0  0  1  0  0  0  0  0999 V2000
    4.1977    2.1082    5.2435 C   0  0  0  0  0  0  0  0  0  0  0  0
    3.1169    1.3043    5.1677 C   0  0  0  0  0  0  0  0  0  0  0  0
    2.2807    1.1847    3.8905 C   0  0  2  0  0  0  0  0  0  0  0  0
    0.7009    1.4970    4.1037 C   0  0  1  0  0  0  0  0  0  0  0  0
    0.1026    1.1044    2.8862 O   0  0  0  0  0  0  0  0  0  0  0  0
   -0.0983    0.5844    5.1404 C   0  0  2  0  0  0  0  0  0  0  0  0
   -0.4775    1.2394    6.5341 C   0  0  1  0  0  0  0  0  0  0  0  0
    0.5326    0.9930    7.6855 C   0  0  0  0  0  0  0  0  0  0  0  0
    1.8734    1.4755    7.2425 C   0  0  1  0  0  0  0  0  0  0  0  0
    3.1082    0.9038    7.6615 O   0  0  0  0  0  0  0  0  0  0  0  0
    2.6294    0.5526    6.3435 C   0  0  2  0  0  0  0  0  0  0  0  0
    2.4568   -0.9650    6.2603 C   0  0  0  0  0  0  0  0  0  0  0  0
    1.6189   -1.5315    5.0902 C   0  0  1  0  0  0  0  0  0  0  0  0
    1.4526   -2.9466    5.3380 O   0  0  0  0  0  0  0  0  0  0  0  0
    2.6066   -3.7887    5.3307 C   0  0  0  0  0  0  0  0  0  0  0  0
    0.1562   -0.9661    5.1036 C   0  0  1  0  0  0  0  0  0  0  0  0
   -0.5529   -1.5796    6.1638 O   0  0  0  0  0  0  0  0  0  0  0  0
    2.2404   -1.4049    3.6885 C   0  0  2  0  0  0  0  0  0  0  0  0
    1.5174   -2.1672    2.7368 O   0  0  0  0  0  0  0  0  0  0  0  0
    3.7033   -1.1796    3.3450 C   0  0  1  0  0  0  0  0  0  0  0  0
    4.9208   -1.1403    4.2584 C   0  0  0  0  0  0  0  0  0  0  0  0
    4.0976   -1.9748    2.2421 O   0  0  0  0  0  0  0  0  0  0  0  0
    2.6424   -0.0754    3.0527 C   0  0  2  0  0  0  0  0  0  0  0  0
    2.6064    0.2583    1.5424 C   0  0  0  0  0  0  0  0  0  0  0  0
   -0.8882    2.7295    6.3544 C   0  0  2  0  0  0  0  0  0  0  0  0
   -0.9810    3.4979    7.6937 C   0  0  0  0  0  0  0  0  0  0  0  0
   -2.2711    2.9117    5.6597 C   0  0  0  0  0  0  0  0  0  0  0  0
   -2.2656    2.8541    4.1299 C   0  0  0  0  0  0  0  0  0  0  0  0
   -1.0136    3.5166    3.5637 C   0  0  1  0  0  0  0  0  0  0  0  0
   -1.1961    4.9253    3.6147 O   0  0  0  0  0  0  0  0  0  0  0  0
    0.3236    3.0662    4.2659 C   0  0  2  0  0  0  0  0  0  0  0  0
    1.4570    4.0245    3.8184 C   0  0  0  0  0  0  0  0  0  0  0  0
    0.1551    3.3931    5.6451 O   0  0  0  0  0  0  0  0  0  0  0  0
    4.7644    2.2173    6.1540 H   0  0  0  0  0  0  0  0  0  0  0  0
    4.5070    2.6773    4.3833 H   0  0  0  0  0  0  0  0  0  0  0  0
    2.6794    1.9679    3.2522 H   0  0  0  0  0  0  0  0  0  0  0  0
    0.4263    1.6701    2.1955 H   0  0  0  0  0  0  0  0  0  0  0  0
   -1.1043    0.5492    4.7382 H   0  0  0  0  0  0  0  0  0  0  0  0
   -1.3787    0.7351    6.8865 H   0  0  0  0  0  0  0  0  0  0  0  0
    0.2646    1.4844    8.6180 H   0  0  0  0  0  0  0  0  0  0  0  0
    0.5663   -0.0519    7.9577 H   0  0  0  0  0  0  0  0  0  0  0  0
    1.9547    2.5552    7.1140 H   0  0  0  0  0  0  0  0  0  0  0  0
    3.4439   -1.4067    6.3294 H   0  0  0  0  0  0  0  0  0  0  0  0
    2.0143   -1.3080    7.1977 H   0  0  0  0  0  0  0  0  0  0  0  0
    2.2846   -4.8253    5.4389 H   0  0  0  0  0  0  0  0  0  0  0  0
    3.2796   -3.5730    6.1594 H   0  0  0  0  0  0  0  0  0  0  0  0
    3.1695   -3.7294    4.4000 H   0  0  0  0  0  0  0  0  0  0  0  0
   -0.3435   -1.3477    4.2151 H   0  0  0  0  0  0  0  0  0  0  0  0
   -0.3224   -2.5023    6.1199 H   0  0  0  0  0  0  0  0  0  0  0  0
    1.6161   -1.7270    1.9040 H   0  0  0  0  0  0  0  0  0  0  0  0
    4.8499   -0.4662    5.0949 H   0  0  0  0  0  0  0  0  0  0  0  0
    5.8055   -0.8456    3.6974 H   0  0  0  0  0  0  0  0  0  0  0  0
    5.0937   -2.1405    4.6506 H   0  0  0  0  0  0  0  0  0  0  0  0
    3.4768   -1.8253    1.5465 H   0  0  0  0  0  0  0  0  0  0  0  0
    2.3533   -0.5963    0.9230 H   0  0  0  0  0  0  0  0  0  0  0  0
    3.5894    0.6070    1.2385 H   0  0  0  0  0  0  0  0  0  0  0  0
    1.9013    1.0444    1.2919 H   0  0  0  0  0  0  0  0  0  0  0  0
   -1.6769    3.0133    8.3805 H   0  0  0  0  0  0  0  0  0  0  0  0
   -1.3281    4.5212    7.5399 H   0  0  0  0  0  0  0  0  0  0  0  0
   -0.0132    3.5930    8.1879 H   0  0  0  0  0  0  0  0  0  0  0  0
   -2.9885    2.2013    6.0693 H   0  0  0  0  0  0  0  0  0  0  0  0
   -2.6675    3.8929    5.9148 H   0  0  0  0  0  0  0  0  0  0  0  0
   -2.3411    1.8343    3.7584 H   0  0  0  0  0  0  0  0  0  0  0  0
   -3.1531    3.3401    3.7261 H   0  0  0  0  0  0  0  0  0  0  0  0
   -0.9678    3.3033    2.4971 H   0  0  0  0  0  0  0  0  0  0  0  0
   -0.5667    5.2913    3.0234 H   0  0  0  0  0  0  0  0  0  0  0  0
    1.6842    3.9198    2.7568 H   0  0  0  0  0  0  0  0  0  0  0  0
    2.3699    3.8730    4.3910 H   0  0  0  0  0  0  0  0  0  0  0  0
    1.2091    5.0716    3.9927 H   0  0  0  0  0  0  0  0  0  0  0  0
  1  2  2  0
  1 34  1  0
  1 35  1  0
  2 11  1  0
  2  3  1  0
  3 23  1  0
  3  4  1  0
  3 36  1  6
  4 31  1  0
  4  5  1  6
  4  6  1  0
  5 37  1  0
  6 16  1  0
  6  7  1  0
  6 38  1  6
  7  8  1  0
  7 25  1  0
  7 39  1  1
  8  9  1  0
  8 40  1  0
  8 41  1  0
  9 11  1  0
  9 10  1  0
  9 42  1  6
 11 10  1  1
 11 12  1  0
 12 13  1  0
 12 43  1  0
 12 44  1  0
 13 14  1  1
 13 16  1  0
 13 18  1  0
 14 15  1  0
 15 45  1  0
 15 46  1  0
 15 47  1  0
 16 17  1  0
 16 48  1  6
 17 49  1  0
 18 23  1  0
 18 19  1  6
 18 20  1  0
 19 50  1  0
 20 21  1  0
 20 22  1  6
 20 23  1  0
 21 51  1  0
 21 52  1  0
 21 53  1  0
 22 54  1  0
 23 24  1  6
 24 55  1  0
 24 56  1  0
 24 57  1  0
 25 33  1  0
 25 26  1  1
 25 27  1  0
 26 58  1  0
 26 59  1  0
 26 60  1  0
 27 28  1  0
 27 61  1  0
 27 62  1  0
 28 29  1  0
 28 63  1  0
 28 64  1  0
 29 30  1  0
 29 31  1  0
 29 65  1  6
 30 66  1  0
 31 32  1  6
 31 33  1  0
 32 67  1  0
 32 68  1  0
 32 69  1  0
M  END
>  <i_m_ct_stereo_status>  (332) 
1

>  <s_m_source_file>  (332) 
/var/tmp/pbs.5076255.sched01/tmpegbcst3k/90u3quomt0.sdf

>  <i_m_source_file_index>  (332) 
39

>  <i_lp_mmshare_version>  (332) 
48012

>  <i_f3d_flags>  (332) 
0

>  <s_epik_input>  (332) 
W0NIM11PW0NAXShbQ0gyXTEpKFtDQEhdMltPSF0pW0NAXShbT0hdKShbQ0BAXTMoW0NIM10pW09IXSlbQ0BAXTMoW0NIM10pW0NASF0oQzQ9W0NIMl0pW0NAQF0oW09IXSkoW0NAQEhdMltDQEhdNVtDSDJdW0NAQEhdKE82KVtDQEBdMTQ2KVtDQEBdNyhbQ0gzXSlbQ0BIXShbT0hdKVtDSDJdW0NIMl1bQ0BAXTUoTzcpW0NIM10=

>  <s_epik_cmdline>  (332) 
J2VwaWtfcHl0aG9uJywgJy1waHQnLCAnMi4wJywgJy1waCcsICc3LjAnLCAnLXRuJywgJzgnLCAnLW1hJywgJzIwMCcsICctaW1hZScsICc8aW5maWxlLm1hZT4nLCAnLW9tYWUnLCAnPG91dGZpbGUubWFlPic=

>  <r_lp_tautomer_probability>  (332) 
1

>  <r_epik_Ionization_Penalty>  (332) 
2.50343e-07

>  <r_epik_Ionization_Penalty_Charging>  (332) 
0

>  <r_epik_Ionization_Penalty_Neutral>  (332) 
2.50343e-07

>  <r_epik_State_Penalty>  (332) 
-0

>  <r_epik_Charging_Adjusted_Penalty>  (332) 
0

>  <i_epik_Tot_Q>  (332) 
0

>  <i_epik_Tot_abs_Q>  (332) 
0

>  <s_lp_Force_Field>  (332) 
OPLS3e

>  <r_lp_Energy>  (332) 
105.172

>  <b_lp_Chiralities_Consistent>  (332) 
1

>  <s_lp_Variant>  (332) 
82:0-1

>  <s_i_glide_gridfile>  (332) 
pfpi4k_grid

>  <i_i_glide_lignum>  (332) 
39

>  <i_i_glide_rotatable_bonds>  (332) 
6

>  <r_i_docking_score>  (332) 
-2.26843

>  <r_i_glide_ligand_efficiency>  (332) 
-0.0687404

>  <r_i_glide_ligand_efficiency_sa>  (332) 
-0.220487

>  <r_i_glide_ligand_efficiency_ln>  (332) 
-0.504487

>  <r_i_glide_gscore>  (332) 
-2.26843

>  <r_i_glide_lipo>  (332) 
-0.0935233

>  <r_i_glide_hbond>  (332) 
0

>  <r_i_glide_metal>  (332) 
-0

>  <r_i_glide_rewards>  (332) 
-0.241714

>  <r_i_glide_evdw>  (332) 
-18.7054

>  <r_i_glide_ecoul>  (332) 
-6.65281

>  <r_i_glide_erotb>  (332) 
0

>  <r_i_glide_esite>  (332) 
0

>  <r_i_glide_emodel>  (332) 
-29.0014

>  <r_i_glide_energy>  (332) 
-25.3583

>  <r_i_glide_einternal>  (332) 
1.35285

>  <r_i_glide_intrahb_reward>  (332) 
-0

>  <i_i_glide_confnum>  (332) 
1

>  <i_i_glide_posenum>  (332) 
33

>  <r_i_glide_eff_state_penalty>  (332) 
0

>  <ligand_id>  (332) 
82

>  <original_smiles>  (332) 
C=C1C2C3(O)C4C(CC5OC15CC(OC)(C4O)C1(O)C(C)(O)C21C)C1(C)CCC(O)C3(C)O1

>  <smiles>  (332) 
[H]OC1([H])C([H])([H])C([H])([H])C2(C([H])([H])[H])OC1(C([H])([H])[H])C1(O[H])C3([H])C(=C([H])[H])C45OC4([H])C([H])([H])C2([H])C1([H])C([H])(O[H])C(OC([H])([H])[H])(C5([H])[H])C1(O[H])C(O[H])(C([H])([H])[H])C31C([H])([H])[H]

$$$$
82:0:2
     RDKit          3D

 69 75  0  0  1  0  0  0  0  0999 V2000
   -0.5507    1.1213    2.0871 C   0  0  0  0  0  0  0  0  0  0  0  0
   -0.0347    1.3700    3.2939 C   0  0  0  0  0  0  0  0  0  0  0  0
    1.2772    2.1266    3.5041 C   0  0  2  0  0  0  0  0  0  0  0  0
    2.3660    1.3361    4.4018 C   0  0  1  0  0  0  0  0  0  0  0  0
    3.3935    2.2847    4.6029 O   0  0  0  0  0  0  0  0  0  0  0  0
    1.9743    0.9745    5.9074 C   0  0  2  0  0  0  0  0  0  0  0  0
    1.6367   -0.5422    6.2162 C   0  0  1  0  0  0  0  0  0  0  0  0
    0.1391   -0.9315    6.1228 C   0  0  0  0  0  0  0  0  0  0  0  0
   -0.3610   -0.5707    4.7523 C   0  0  1  0  0  0  0  0  0  0  0  0
   -1.6837   -0.1714    4.4638 O   0  0  0  0  0  0  0  0  0  0  0  0
   -0.6870    0.8621    4.5333 C   0  0  2  0  0  0  0  0  0  0  0  0
   -1.0768    1.8472    5.6226 C   0  0  0  0  0  0  0  0  0  0  0  0
   -0.0058    2.8104    6.1965 C   0  0  1  0  0  0  0  0  0  0  0  0
   -0.6110    3.6539    7.2232 O   0  0  0  0  0  0  0  0  0  0  0  0
   -1.6994    3.1714    8.0245 C   0  0  0  0  0  0  0  0  0  0  0  0
    1.2507    2.0648    6.7737 C   0  0  1  0  0  0  0  0  0  0  0  0
    0.9235    1.5053    8.0193 O   0  0  0  0  0  0  0  0  0  0  0  0
    0.4654    3.9025    5.2095 C   0  0  2  0  0  0  0  0  0  0  0  0
    1.3076    4.8498    5.8331 O   0  0  0  0  0  0  0  0  0  0  0  0
   -0.2506    4.4254    3.9809 C   0  0  1  0  0  0  0  0  0  0  0  0
   -1.6571    4.1050    3.4706 C   0  0  0  0  0  0  0  0  0  0  0  0
   -0.1041    5.8206    3.8573 O   0  0  0  0  0  0  0  0  0  0  0  0
    1.0694    3.6265    3.8313 C   0  0  2  0  0  0  0  0  0  0  0  0
    2.1550    4.4846    3.0963 C   0  0  0  0  0  0  0  0  0  0  0  0
    2.5788   -1.4947    5.4248 C   0  0  2  0  0  0  0  0  0  0  0  0
    2.1089   -2.9692    5.4493 C   0  0  0  0  0  0  0  0  0  0  0  0
    4.0477   -1.4972    5.9527 C   0  0  0  0  0  0  0  0  0  0  0  0
    4.9451   -0.3695    5.4380 C   0  0  0  0  0  0  0  0  0  0  0  0
    4.6411   -0.0530    3.9767 C   0  0  1  0  0  0  0  0  0  0  0  0
    5.2554   -1.0644    3.1995 O   0  0  0  0  0  0  0  0  0  0  0  0
    3.1013    0.1025    3.6612 C   0  0  2  0  0  0  0  0  0  0  0  0
    2.9296    0.1103    2.1196 C   0  0  0  0  0  0  0  0  0  0  0  0
    2.5098   -1.1369    4.0477 O   0  0  0  0  0  0  0  0  0  0  0  0
   -1.4754    0.5660    1.9646 H   0  0  0  0  0  0  0  0  0  0  0  0
   -0.0625    1.4693    1.1773 H   0  0  0  0  0  0  0  0  0  0  0  0
    1.6716    2.1911    2.4915 H   0  0  0  0  0  0  0  0  0  0  0  0
    3.7206    2.5584    3.7520 H   0  0  0  0  0  0  0  0  0  0  0  0
    2.9179    1.0038    6.4401 H   0  0  0  0  0  0  0  0  0  0  0  0
    1.8717   -0.7206    7.2661 H   0  0  0  0  0  0  0  0  0  0  0  0
   -0.0594   -1.9854    6.3109 H   0  0  0  0  0  0  0  0  0  0  0  0
   -0.4158   -0.4463    6.9130 H   0  0  0  0  0  0  0  0  0  0  0  0
    0.0531   -1.1628    3.9424 H   0  0  0  0  0  0  0  0  0  0  0  0
   -1.9661    2.3821    5.3092 H   0  0  0  0  0  0  0  0  0  0  0  0
   -1.4682    1.2258    6.4105 H   0  0  0  0  0  0  0  0  0  0  0  0
   -1.9504    3.8969    8.8090 H   0  0  0  0  0  0  0  0  0  0  0  0
   -1.4770    2.2255    8.5252 H   0  0  0  0  0  0  0  0  0  0  0  0
   -2.6136    3.0435    7.4383 H   0  0  0  0  0  0  0  0  0  0  0  0
    2.0040    2.8153    7.0228 H   0  0  0  0  0  0  0  0  0  0  0  0
    0.6296    2.2093    8.5838 H   0  0  0  0  0  0  0  0  0  0  0  0
    1.6118    5.4483    5.1569 H   0  0  0  0  0  0  0  0  0  0  0  0
   -1.8665    3.0603    3.3473 H   0  0  0  0  0  0  0  0  0  0  0  0
   -1.8306    4.5568    2.4924 H   0  0  0  0  0  0  0  0  0  0  0  0
   -2.3844    4.5091    4.1730 H   0  0  0  0  0  0  0  0  0  0  0  0
    0.1257    6.0100    2.9521 H   0  0  0  0  0  0  0  0  0  0  0  0
    2.3830    5.4126    3.6174 H   0  0  0  0  0  0  0  0  0  0  0  0
    1.8134    4.7603    2.1004 H   0  0  0  0  0  0  0  0  0  0  0  0
    3.0927    3.9591    2.9258 H   0  0  0  0  0  0  0  0  0  0  0  0
    2.0030   -3.3367    6.4709 H   0  0  0  0  0  0  0  0  0  0  0  0
    2.8189   -3.6215    4.9371 H   0  0  0  0  0  0  0  0  0  0  0  0
    1.1609   -3.1158    4.9285 H   0  0  0  0  0  0  0  0  0  0  0  0
    4.0564   -1.5103    7.0421 H   0  0  0  0  0  0  0  0  0  0  0  0
    4.5305   -2.4265    5.6498 H   0  0  0  0  0  0  0  0  0  0  0  0
    4.8563    0.5271    6.0415 H   0  0  0  0  0  0  0  0  0  0  0  0
    5.9921   -0.6539    5.5439 H   0  0  0  0  0  0  0  0  0  0  0  0
    5.1698    0.8577    3.7005 H   0  0  0  0  0  0  0  0  0  0  0  0
    5.0658   -0.8946    2.2845 H   0  0  0  0  0  0  0  0  0  0  0  0
    3.3759    0.9940    1.6627 H   0  0  0  0  0  0  0  0  0  0  0  0
    1.8837    0.0569    1.8241 H   0  0  0  0  0  0  0  0  0  0  0  0
    3.3740   -0.7617    1.6420 H   0  0  0  0  0  0  0  0  0  0  0  0
  1  2  2  0
  1 34  1  0
  1 35  1  0
  2 11  1  0
  2  3  1  0
  3 23  1  0
  3  4  1  0
  3 36  1  6
  4 31  1  0
  4  5  1  1
  4  6  1  0
  5 37  1  0
  6 16  1  0
  6  7  1  0
  6 38  1  1
  7  8  1  0
  7 25  1  0
  7 39  1  1
  8  9  1  0
  8 40  1  0
  8 41  1  0
  9 11  1  0
  9 10  1  0
  9 42  1  6
 11 10  1  6
 11 12  1  0
 12 13  1  0
 12 43  1  0
 12 44  1  0
 13 14  1  1
 13 16  1  0
 13 18  1  0
 14 15  1  0
 15 45  1  0
 15 46  1  0
 15 47  1  0
 16 17  1  0
 16 48  1  1
 17 49  1  0
 18 23  1  0
 18 19  1  1
 18 20  1  0
 19 50  1  0
 20 21  1  0
 20 22  1  1
 20 23  1  0
 21 51  1  0
 21 52  1  0
 21 53  1  0
 22 54  1  0
 23 24  1  1
 24 55  1  0
 24 56  1  0
 24 57  1  0
 25 33  1  0
 25 26  1  6
 25 27  1  0
 26 58  1  0
 26 59  1  0
 26 60  1  0
 27 28  1  0
 27 61  1  0
 27 62  1  0
 28 29  1  0
 28 63  1  0
 28 64  1  0
 29 30  1  0
 29 31  1  0
 29 65  1  6
 30 66  1  0
 31 32  1  6
 31 33  1  0
 32 67  1  0
 32 68  1  0
 32 69  1  0
M  END
>  <i_m_ct_stereo_status>  (333) 
1

>  <s_m_source_file>  (333) 
/var/tmp/pbs.5076255.sched01/tmpegbcst3k/90u3quomt0.sdf

>  <i_m_source_file_index>  (333) 
39

>  <i_lp_mmshare_version>  (333) 
48012

>  <i_f3d_flags>  (333) 
0

>  <s_epik_input>  (333) 
W0NIM11PW0NAXShbQ0gyXTEpKFtDQEhdMltPSF0pW0NAXShbT0hdKShbQ0BAXTMoW0NIM10pW09IXSlbQ0BAXTMoW0NIM10pW0NASF0oQzQ9W0NIMl0pW0NAQF0oW09IXSkoW0NAQEhdMltDQEhdNVtDSDJdW0NAQEhdKE82KVtDQEBdMTQ2KVtDQEBdNyhbQ0gzXSlbQ0BIXShbT0hdKVtDSDJdW0NIMl1bQ0BAXTUoTzcpW0NIM10=

>  <s_epik_cmdline>  (333) 
J2VwaWtfcHl0aG9uJywgJy1waHQnLCAnMi4wJywgJy1waCcsICc3LjAnLCAnLXRuJywgJzgnLCAnLW1hJywgJzIwMCcsICctaW1hZScsICc8aW5maWxlLm1hZT4nLCAnLW9tYWUnLCAnPG91dGZpbGUubWFlPic=

>  <r_lp_tautomer_probability>  (333) 
1

>  <r_epik_Ionization_Penalty>  (333) 
2.50343e-07

>  <r_epik_Ionization_Penalty_Charging>  (333) 
0

>  <r_epik_Ionization_Penalty_Neutral>  (333) 
2.50343e-07

>  <r_epik_State_Penalty>  (333) 
-0

>  <r_epik_Charging_Adjusted_Penalty>  (333) 
0

>  <i_epik_Tot_Q>  (333) 
0

>  <i_epik_Tot_abs_Q>  (333) 
0

>  <s_lp_Force_Field>  (333) 
OPLS3e

>  <r_lp_Energy>  (333) 
105.172

>  <b_lp_Chiralities_Consistent>  (333) 
1

>  <s_lp_Variant>  (333) 
82:0-1

>  <s_i_glide_gridfile>  (333) 
pfpi4k_grid

>  <i_i_glide_lignum>  (333) 
39

>  <i_i_glide_rotatable_bonds>  (333) 
6

>  <r_i_docking_score>  (333) 
-2.2059

>  <r_i_glide_ligand_efficiency>  (333) 
-0.0668455

>  <r_i_glide_ligand_efficiency_sa>  (333) 
-0.214409

>  <r_i_glide_ligand_efficiency_ln>  (333) 
-0.490581

>  <r_i_glide_gscore>  (333) 
-2.2059

>  <r_i_glide_lipo>  (333) 
-0.0863506

>  <r_i_glide_hbond>  (333) 
0

>  <r_i_glide_metal>  (333) 
-0

>  <r_i_glide_rewards>  (333) 
-0.241714

>  <r_i_glide_evdw>  (333) 
-22.7354

>  <r_i_glide_ecoul>  (333) 
-4.94045

>  <r_i_glide_erotb>  (333) 
0

>  <r_i_glide_esite>  (333) 
0

>  <r_i_glide_emodel>  (333) 
-27.7885

>  <r_i_glide_energy>  (333) 
-27.6758

>  <r_i_glide_einternal>  (333) 
7.92614

>  <r_i_glide_intrahb_reward>  (333) 
-0

>  <i_i_glide_confnum>  (333) 
1

>  <i_i_glide_posenum>  (333) 
17

>  <r_i_glide_eff_state_penalty>  (333) 
0

>  <ligand_id>  (333) 
82

>  <original_smiles>  (333) 
C=C1C2C3(O)C4C(CC5OC15CC(OC)(C4O)C1(O)C(C)(O)C21C)C1(C)CCC(O)C3(C)O1

>  <smiles>  (333) 
[H]OC1([H])C([H])([H])C([H])([H])C2(C([H])([H])[H])OC1(C([H])([H])[H])C1(O[H])C3([H])C(=C([H])[H])C45OC4([H])C([H])([H])C2([H])C1([H])C([H])(O[H])C(OC([H])([H])[H])(C5([H])[H])C1(O[H])C(O[H])(C([H])([H])[H])C31C([H])([H])[H]

$$$$
83:0:0
     RDKit          3D

 44 49  0  0  1  0  0  0  0  0999 V2000
    4.8233   -0.5972    2.8029 O   0  0  0  0  0  0  0  0  0  0  0  0
    5.1019   -1.7777    2.2318 C   0  0  0  0  0  0  0  0  0  0  0  0
    4.1091   -2.7131    2.1214 C   0  0  0  0  0  0  0  0  0  0  0  0
    2.7682   -2.5552    1.5556 O   0  0  0  0  0  0  0  0  0  0  0  0
    2.4971   -3.3563    0.2744 C   0  0  2  0  0  0  0  0  0  0  0  0
    2.9309   -3.5226   -1.3470 C   0  0  1  0  0  0  0  0  0  0  0  0
    1.8275   -3.2323   -2.1875 O   0  0  0  0  0  0  0  0  0  0  0  0
    4.4679   -3.0928   -2.0291 C   0  0  2  0  0  0  0  0  0  0  0  0
    4.6121   -3.9528   -3.1505 O   0  0  0  0  0  0  0  0  0  0  0  0
    5.8908   -3.2851   -1.1435 C   0  0  1  0  0  0  0  0  0  0  0  0
    6.5658   -2.2396   -0.0722 C   0  0  0  0  0  0  0  0  0  0  0  0
    6.3284   -1.7408    1.2449 C   0  0  0  0  0  0  0  0  0  0  0  0
    5.7648   -4.6190   -0.4530 C   0  0  0  0  0  0  0  0  0  0  0  0
    4.5821   -4.3205    0.4093 C   0  0  0  0  0  0  0  0  0  0  0  0
    4.7182   -3.6531    1.4844 C   0  0  0  0  0  0  0  0  0  0  0  0
    3.7968   -3.0426    0.3511 C   0  0  2  0  0  0  0  0  0  0  0  0
    3.8373   -1.3777   -0.1856 C   0  0  0  0  0  0  0  0  0  0  0  0
    3.6825   -0.9813   -1.6329 C   0  0  0  0  0  0  0  0  0  0  0  0
    4.4797   -1.7331   -2.5369 N   0  0  0  0  0  0  0  0  0  0  0  0
    4.0911   -1.4668   -3.9301 C   0  0  0  0  0  0  0  0  0  0  0  0
    3.7031   -0.0213   -4.2307 C   0  0  0  0  0  0  0  0  0  0  0  0
    2.3200    0.2154   -4.7827 C   0  0  0  0  0  0  0  0  0  0  0  0
    3.5294    0.4944   -5.6220 C   0  0  0  0  0  0  0  0  0  0  0  0
    3.9231   -0.6310    3.1084 H   0  0  0  0  0  0  0  0  0  0  0  0
    2.2938   -4.3724    0.6159 H   0  0  0  0  0  0  0  0  0  0  0  0
    2.8993   -4.6026   -1.4114 H   0  0  0  0  0  0  0  0  0  0  0  0
    1.7152   -3.9004   -2.8512 H   0  0  0  0  0  0  0  0  0  0  0  0
    4.0850   -4.7295   -2.9970 H   0  0  0  0  0  0  0  0  0  0  0  0
    6.6703   -3.3788   -1.9126 H   0  0  0  0  0  0  0  0  0  0  0  0
    7.5362   -1.9382   -0.4377 H   0  0  0  0  0  0  0  0  0  0  0  0
    7.1239   -1.1151    1.6111 H   0  0  0  0  0  0  0  0  0  0  0  0
    5.4205   -5.4048   -1.1132 H   0  0  0  0  0  0  0  0  0  0  0  0
    6.6725   -4.9186    0.0558 H   0  0  0  0  0  0  0  0  0  0  0  0
    3.0101   -0.8106    0.2530 H   0  0  0  0  0  0  0  0  0  0  0  0
    4.6280   -0.7051    0.1165 H   0  0  0  0  0  0  0  0  0  0  0  0
    2.6289   -0.9632   -1.9296 H   0  0  0  0  0  0  0  0  0  0  0  0
    4.0627    0.0307   -1.6791 H   0  0  0  0  0  0  0  0  0  0  0  0
    4.9488   -1.6873   -4.5542 H   0  0  0  0  0  0  0  0  0  0  0  0
    3.2867   -2.1277   -4.2551 H   0  0  0  0  0  0  0  0  0  0  0  0
    4.1207    0.7458   -3.5811 H   0  0  0  0  0  0  0  0  0  0  0  0
    1.7336   -0.6562   -5.0492 H   0  0  0  0  0  0  0  0  0  0  0  0
    1.7536    1.0524   -4.3921 H   0  0  0  0  0  0  0  0  0  0  0  0
    3.8078    1.5326   -5.7377 H   0  0  0  0  0  0  0  0  0  0  0  0
    3.7901   -0.1855   -6.4275 H   0  0  0  0  0  0  0  0  0  0  0  0
  1  2  1  0
  1 24  1  0
  2 12  1  0
  2  3  2  3
  3 15  1  0
  3  4  1  0
  4  5  1  0
  5 16  1  0
  5  6  1  0
  5 25  1  1
  6  7  1  0
  6  8  1  0
  6 26  1  1
  7 27  1  0
  8 19  1  0
  8  9  1  6
  8 10  1  0
  9 28  1  0
 10 11  1  0
 10 13  1  0
 10 29  1  6
 11 12  2  3
 11 30  1  0
 12 31  1  0
 13 14  1  0
 13 32  1  0
 13 33  1  0
 14 16  1  0
 14 15  2  0
 15 16  1  0
 16 17  1  6
 17 18  1  0
 17 34  1  0
 17 35  1  0
 18 19  1  0
 18 36  1  0
 18 37  1  0
 19 20  1  0
 20 21  1  0
 20 38  1  0
 20 39  1  0
 21 23  1  0
 21 22  1  0
 21 40  1  0
 22 23  1  0
 22 41  1  0
 22 42  1  0
 23 43  1  0
 23 44  1  0
M  END
>  <i_m_ct_stereo_status>  (334) 
1

>  <s_m_source_file>  (334) 
/var/tmp/pbs.5076255.sched01/tmpegbcst3k/90u3quomt0.sdf

>  <i_m_source_file_index>  (334) 
40

>  <i_lp_mmshare_version>  (334) 
48012

>  <i_f3d_flags>  (334) 
1

>  <s_epik_input>  (334) 
W0NIMl0xW0NIMl1bQ0hdMVtDSDJdTihbQ0gyXVtDSDJdMilbQ0BAXShbT0hdKShbQ0BASF0zW09IXSlbQ0BASF0oL1tDSF09W0NIXVxDPTRcW09IXSlbQ0gyXUM1PUM2QzRcT1tDQEBIXTNDMjU2

>  <s_epik_cmdline>  (334) 
J2VwaWtfcHl0aG9uJywgJy1waHQnLCAnMi4wJywgJy1waCcsICc3LjAnLCAnLXRuJywgJzgnLCAnLW1hJywgJzIwMCcsICctaW1hZScsICc8aW5maWxlLm1hZT4nLCAnLW9tYWUnLCAnPG91dGZpbGUubWFlPic=

>  <r_epik_Ionization_Penalty>  (334) 
0.0394939

>  <r_epik_Ionization_Penalty_Charging>  (334) 
0

>  <r_epik_Ionization_Penalty_Neutral>  (334) 
0.0394939

>  <r_epik_State_Penalty>  (334) 
0.0399976

>  <r_epik_Charging_Adjusted_Penalty>  (334) 
0.0399976

>  <i_epik_Tot_Q>  (334) 
0

>  <i_epik_Tot_abs_Q>  (334) 
0

>  <s_lp_Force_Field>  (334) 
OPLS3e

>  <r_lp_Energy>  (334) 
445.281

>  <b_lp_Chiralities_Consistent>  (334) 
1

>  <s_lp_Variant>  (334) 
83:0-1

>  <s_i_glide_gridfile>  (334) 
pfpi4k_grid

>  <i_i_glide_lignum>  (334) 
40

>  <i_i_glide_rotatable_bonds>  (334) 
5

>  <r_i_docking_score>  (334) 
-3.89978

>  <r_i_glide_ligand_efficiency>  (334) 
-0.169556

>  <r_i_glide_ligand_efficiency_sa>  (334) 
-0.482194

>  <r_i_glide_ligand_efficiency_ln>  (334) 
-0.943003

>  <r_i_glide_gscore>  (334) 
-3.89978

>  <r_i_glide_lipo>  (334) 
-0.94221

>  <r_i_glide_hbond>  (334) 
0

>  <r_i_glide_metal>  (334) 
-0

>  <r_i_glide_rewards>  (334) 
-1.31722

>  <r_i_glide_evdw>  (334) 
-19.735

>  <r_i_glide_ecoul>  (334) 
-6.83851

>  <r_i_glide_erotb>  (334) 
0.374073

>  <r_i_glide_esite>  (334) 
-0.00190094

>  <r_i_glide_emodel>  (334) 
-28.1803

>  <r_i_glide_energy>  (334) 
-26.5736

>  <r_i_glide_einternal>  (334) 
8.25243

>  <r_i_glide_intrahb_reward>  (334) 
-0

>  <i_i_glide_confnum>  (334) 
3

>  <i_i_glide_posenum>  (334) 
22

>  <r_i_glide_eff_state_penalty>  (334) 
0

>  <ligand_id>  (334) 
83

>  <original_smiles>  (334) 
OC1=C2OC3C(O)C4(O)C(C=C1)CC1=C2C13CCN4CC1CC1

>  <smiles>  (334) 
[H]OC1=C2OC3([H])C([H])(O[H])C4(O[H])N(C([H])([H])C5([H])C([H])([H])C5([H])[H])C([H])([H])C([H])([H])C35C2=C5C([H])([H])C4([H])C([H])=C1[H]

$$$$
83:0:1
     RDKit          3D

 44 49  0  0  1  0  0  0  0  0999 V2000
    4.0735   -1.3484   -3.7230 O   0  0  0  0  0  0  0  0  0  0  0  0
    4.2815   -2.3859   -2.9171 C   0  0  0  0  0  0  0  0  0  0  0  0
    5.5267   -2.5023   -2.2591 C   0  0  0  0  0  0  0  0  0  0  0  0
    6.1695   -1.4912   -1.4553 O   0  0  0  0  0  0  0  0  0  0  0  0
    6.3320   -1.8633    0.0378 C   0  0  2  0  0  0  0  0  0  0  0  0
    5.4930   -2.1186    1.4715 C   0  0  1  0  0  0  0  0  0  0  0  0
    5.8176   -1.0706    2.3792 O   0  0  0  0  0  0  0  0  0  0  0  0
    3.8598   -2.6697    1.5763 C   0  0  2  0  0  0  0  0  0  0  0  0
    3.8030   -3.3912    2.8014 O   0  0  0  0  0  0  0  0  0  0  0  0
    3.2279   -3.7691    0.4659 C   0  0  1  0  0  0  0  0  0  0  0  0
    2.5733   -3.4670   -1.0223 C   0  0  0  0  0  0  0  0  0  0  0  0
    2.9826   -3.0451   -2.3127 C   0  0  0  0  0  0  0  0  0  0  0  0
    4.3060   -4.7975    0.2461 C   0  0  0  0  0  0  0  0  0  0  0  0
    5.2468   -3.8944   -0.3323 C   0  0  0  0  0  0  0  0  0  0  0  0
    5.4095   -3.5174   -1.5959 C   0  0  0  0  0  0  0  0  0  0  0  0
    5.2088   -2.3822   -0.4644 C   0  0  2  0  0  0  0  0  0  0  0  0
    4.0509   -1.0799   -0.4849 C   0  0  0  0  0  0  0  0  0  0  0  0
    3.3839   -0.5457    0.7812 C   0  0  0  0  0  0  0  0  0  0  0  0
    2.8820   -1.5850    1.6382 N   0  0  0  0  0  0  0  0  0  0  0  0
    2.4617   -1.0298    2.9308 C   0  0  0  0  0  0  0  0  0  0  0  0
    1.2784   -0.0719    2.7998 C   0  0  0  0  0  0  0  0  0  0  0  0
    1.0011    0.9161    3.9027 C   0  0  0  0  0  0  0  0  0  0  0  0
    0.0556   -0.2328    3.6659 C   0  0  0  0  0  0  0  0  0  0  0  0
    3.1318   -1.2354   -3.7968 H   0  0  0  0  0  0  0  0  0  0  0  0
    7.1849   -2.5499    0.0588 H   0  0  0  0  0  0  0  0  0  0  0  0
    6.0609   -2.9306    1.9397 H   0  0  0  0  0  0  0  0  0  0  0  0
    6.7374   -0.8576    2.2839 H   0  0  0  0  0  0  0  0  0  0  0  0
    4.1006   -4.2752    2.6388 H   0  0  0  0  0  0  0  0  0  0  0  0
    2.4088   -4.2706    0.9911 H   0  0  0  0  0  0  0  0  0  0  0  0
    1.5462   -3.8007   -1.0184 H   0  0  0  0  0  0  0  0  0  0  0  0
    2.1815   -3.1142   -3.0328 H   0  0  0  0  0  0  0  0  0  0  0  0
    4.7553   -5.1660    1.1697 H   0  0  0  0  0  0  0  0  0  0  0  0
    4.0046   -5.6455   -0.3539 H   0  0  0  0  0  0  0  0  0  0  0  0
    4.5214   -0.1657   -0.8515 H   0  0  0  0  0  0  0  0  0  0  0  0
    3.2100   -1.0682   -1.1594 H   0  0  0  0  0  0  0  0  0  0  0  0
    4.0559    0.1276    1.3119 H   0  0  0  0  0  0  0  0  0  0  0  0
    2.5632    0.0963    0.4770 H   0  0  0  0  0  0  0  0  0  0  0  0
    2.1702   -1.8230    3.6199 H   0  0  0  0  0  0  0  0  0  0  0  0
    3.2895   -0.5024    3.4058 H   0  0  0  0  0  0  0  0  0  0  0  0
    1.0649    0.2943    1.7985 H   0  0  0  0  0  0  0  0  0  0  0  0
    1.6521    0.8741    4.7721 H   0  0  0  0  0  0  0  0  0  0  0  0
    0.6729    1.9111    3.6056 H   0  0  0  0  0  0  0  0  0  0  0  0
   -0.9053   -0.0035    3.2077 H   0  0  0  0  0  0  0  0  0  0  0  0
    0.0603   -1.0636    4.3667 H   0  0  0  0  0  0  0  0  0  0  0  0
  1  2  1  0
  1 24  1  0
  2 12  1  0
  2  3  2  3
  3 15  1  0
  3  4  1  0
  4  5  1  0
  5 16  1  0
  5  6  1  0
  5 25  1  1
  6  7  1  0
  6  8  1  0
  6 26  1  1
  7 27  1  0
  8 19  1  0
  8  9  1  1
  8 10  1  0
  9 28  1  0
 10 11  1  0
 10 13  1  0
 10 29  1  1
 11 12  2  3
 11 30  1  0
 12 31  1  0
 13 14  1  0
 13 32  1  0
 13 33  1  0
 14 16  1  0
 14 15  2  0
 15 16  1  0
 16 17  1  6
 17 18  1  0
 17 34  1  0
 17 35  1  0
 18 19  1  0
 18 36  1  0
 18 37  1  0
 19 20  1  0
 20 21  1  0
 20 38  1  0
 20 39  1  0
 21 23  1  0
 21 22  1  0
 21 40  1  0
 22 23  1  0
 22 41  1  0
 22 42  1  0
 23 43  1  0
 23 44  1  0
M  END
>  <i_m_ct_stereo_status>  (335) 
1

>  <s_m_source_file>  (335) 
/var/tmp/pbs.5076255.sched01/tmpegbcst3k/90u3quomt0.sdf

>  <i_m_source_file_index>  (335) 
40

>  <i_lp_mmshare_version>  (335) 
48012

>  <i_f3d_flags>  (335) 
1

>  <s_epik_input>  (335) 
W0NIMl0xW0NIMl1bQ0hdMVtDSDJdTihbQ0gyXVtDSDJdMilbQ0BAXShbT0hdKShbQ0BASF0zW09IXSlbQ0BASF0oL1tDSF09W0NIXVxDPTRcW09IXSlbQ0gyXUM1PUM2QzRcT1tDQEBIXTNDMjU2

>  <s_epik_cmdline>  (335) 
J2VwaWtfcHl0aG9uJywgJy1waHQnLCAnMi4wJywgJy1waCcsICc3LjAnLCAnLXRuJywgJzgnLCAnLW1hJywgJzIwMCcsICctaW1hZScsICc8aW5maWxlLm1hZT4nLCAnLW9tYWUnLCAnPG91dGZpbGUubWFlPic=

>  <r_epik_Ionization_Penalty>  (335) 
0.0394939

>  <r_epik_Ionization_Penalty_Charging>  (335) 
0

>  <r_epik_Ionization_Penalty_Neutral>  (335) 
0.0394939

>  <r_epik_State_Penalty>  (335) 
0.0399976

>  <r_epik_Charging_Adjusted_Penalty>  (335) 
0.0399976

>  <i_epik_Tot_Q>  (335) 
0

>  <i_epik_Tot_abs_Q>  (335) 
0

>  <s_lp_Force_Field>  (335) 
OPLS3e

>  <r_lp_Energy>  (335) 
445.281

>  <b_lp_Chiralities_Consistent>  (335) 
1

>  <s_lp_Variant>  (335) 
83:0-1

>  <s_i_glide_gridfile>  (335) 
pfpi4k_grid

>  <i_i_glide_lignum>  (335) 
40

>  <i_i_glide_rotatable_bonds>  (335) 
5

>  <r_i_docking_score>  (335) 
-2.9758

>  <r_i_glide_ligand_efficiency>  (335) 
-0.129382

>  <r_i_glide_ligand_efficiency_sa>  (335) 
-0.367946

>  <r_i_glide_ligand_efficiency_ln>  (335) 
-0.719574

>  <r_i_glide_gscore>  (335) 
-2.9758

>  <r_i_glide_lipo>  (335) 
-0.418675

>  <r_i_glide_hbond>  (335) 
-0.115532

>  <r_i_glide_metal>  (335) 
-0

>  <r_i_glide_rewards>  (335) 
-1.25888

>  <r_i_glide_evdw>  (335) 
-24.2331

>  <r_i_glide_ecoul>  (335) 
-2.29051

>  <r_i_glide_erotb>  (335) 
0.374073

>  <r_i_glide_esite>  (335) 
-0.00154773

>  <r_i_glide_emodel>  (335) 
-30.1469

>  <r_i_glide_energy>  (335) 
-26.5236

>  <r_i_glide_einternal>  (335) 
1.03109

>  <r_i_glide_intrahb_reward>  (335) 
-0

>  <i_i_glide_confnum>  (335) 
2

>  <i_i_glide_posenum>  (335) 
36

>  <r_i_glide_eff_state_penalty>  (335) 
0

>  <ligand_id>  (335) 
83

>  <original_smiles>  (335) 
OC1=C2OC3C(O)C4(O)C(C=C1)CC1=C2C13CCN4CC1CC1

>  <smiles>  (335) 
[H]OC1=C2OC3([H])C([H])(O[H])C4(O[H])N(C([H])([H])C5([H])C([H])([H])C5([H])[H])C([H])([H])C([H])([H])C35C2=C5C([H])([H])C4([H])C([H])=C1[H]

$$$$
83:0:2
     RDKit          3D

 44 49  0  0  1  0  0  0  0  0999 V2000
    1.4234   -1.4094    1.6755 O   0  0  0  0  0  0  0  0  0  0  0  0
    2.0337   -0.6659    2.6349 C   0  0  0  0  0  0  0  0  0  0  0  0
    2.4469    0.6146    2.3060 C   0  0  0  0  0  0  0  0  0  0  0  0
    1.7037    1.6798    1.7082 O   0  0  0  0  0  0  0  0  0  0  0  0
    1.4718    2.9141    2.6001 C   0  0  2  0  0  0  0  0  0  0  0  0
    0.7177    3.4667    3.9990 C   0  0  1  0  0  0  0  0  0  0  0  0
   -0.2833    4.4089    3.6308 O   0  0  0  0  0  0  0  0  0  0  0  0
    0.3028    2.4750    5.3345 C   0  0  2  0  0  0  0  0  0  0  0  0
    0.3635    3.3811    6.4232 O   0  0  0  0  0  0  0  0  0  0  0  0
    1.2676    1.1996    5.8310 C   0  0  1  0  0  0  0  0  0  0  0  0
    1.2835   -0.3497    5.2770 C   0  0  0  0  0  0  0  0  0  0  0  0
    1.6471   -1.0721    4.1008 C   0  0  0  0  0  0  0  0  0  0  0  0
    2.6918    1.7008    5.7239 C   0  0  0  0  0  0  0  0  0  0  0  0
    2.7611    1.9576    4.2683 C   0  0  0  0  0  0  0  0  0  0  0  0
    2.8741    0.9805    3.4453 C   0  0  0  0  0  0  0  0  0  0  0  0
    1.5402    1.7975    3.3259 C   0  0  2  0  0  0  0  0  0  0  0  0
   -0.0578    1.0925    3.1789 C   0  0  0  0  0  0  0  0  0  0  0  0
   -1.3008    1.6515    3.8823 C   0  0  0  0  0  0  0  0  0  0  0  0
   -1.0602    1.9460    5.2615 N   0  0  0  0  0  0  0  0  0  0  0  0
   -2.1787    2.6847    5.8500 C   0  0  0  0  0  0  0  0  0  0  0  0
   -2.5910    2.1174    7.1914 C   0  0  0  0  0  0  0  0  0  0  0  0
   -3.2469    3.0025    8.2227 C   0  0  0  0  0  0  0  0  0  0  0  0
   -1.8508    2.4855    8.4526 C   0  0  0  0  0  0  0  0  0  0  0  0
    1.4257   -0.9601    0.8422 H   0  0  0  0  0  0  0  0  0  0  0  0
    2.4186    3.4483    2.5546 H   0  0  0  0  0  0  0  0  0  0  0  0
    1.4569    4.1659    4.4071 H   0  0  0  0  0  0  0  0  0  0  0  0
   -0.1848    4.5412    2.6890 H   0  0  0  0  0  0  0  0  0  0  0  0
    1.2562    3.4309    6.7224 H   0  0  0  0  0  0  0  0  0  0  0  0
    1.0398    1.0703    6.8995 H   0  0  0  0  0  0  0  0  0  0  0  0
    1.0222   -1.0074    6.0880 H   0  0  0  0  0  0  0  0  0  0  0  0
    1.5794   -2.1263    4.2278 H   0  0  0  0  0  0  0  0  0  0  0  0
    2.8325    2.6665    6.1912 H   0  0  0  0  0  0  0  0  0  0  0  0
    3.4144    1.0148    6.1383 H   0  0  0  0  0  0  0  0  0  0  0  0
   -0.3908    1.1377    2.1369 H   0  0  0  0  0  0  0  0  0  0  0  0
   -0.2081    0.0383    3.3242 H   0  0  0  0  0  0  0  0  0  0  0  0
   -1.6871    2.5130    3.3407 H   0  0  0  0  0  0  0  0  0  0  0  0
   -2.1037    0.9180    3.8348 H   0  0  0  0  0  0  0  0  0  0  0  0
   -1.9788    3.7549    5.9351 H   0  0  0  0  0  0  0  0  0  0  0  0
   -3.0513    2.6045    5.2009 H   0  0  0  0  0  0  0  0  0  0  0  0
   -2.9678    1.0981    7.1388 H   0  0  0  0  0  0  0  0  0  0  0  0
   -3.3540    4.0535    7.9660 H   0  0  0  0  0  0  0  0  0  0  0  0
   -4.0259    2.5908    8.8581 H   0  0  0  0  0  0  0  0  0  0  0  0
   -1.6955    1.7108    9.1981 H   0  0  0  0  0  0  0  0  0  0  0  0
   -1.0452    3.2039    8.3681 H   0  0  0  0  0  0  0  0  0  0  0  0
  1  2  1  0
  1 24  1  0
  2 12  1  0
  2  3  2  3
  3 15  1  0
  3  4  1  0
  4  5  1  0
  5 16  1  0
  5  6  1  0
  5 25  1  1
  6  7  1  0
  6  8  1  0
  6 26  1  1
  7 27  1  0
  8 19  1  0
  8  9  1  1
  8 10  1  0
  9 28  1  0
 10 11  1  0
 10 13  1  0
 10 29  1  1
 11 12  2  3
 11 30  1  0
 12 31  1  0
 13 14  1  0
 13 32  1  0
 13 33  1  0
 14 16  1  0
 14 15  2  0
 15 16  1  0
 16 17  1  1
 17 18  1  0
 17 34  1  0
 17 35  1  0
 18 19  1  0
 18 36  1  0
 18 37  1  0
 19 20  1  0
 20 21  1  0
 20 38  1  0
 20 39  1  0
 21 23  1  0
 21 22  1  0
 21 40  1  0
 22 23  1  0
 22 41  1  0
 22 42  1  0
 23 43  1  0
 23 44  1  0
M  END
>  <i_m_ct_stereo_status>  (336) 
1

>  <s_m_source_file>  (336) 
/var/tmp/pbs.5076255.sched01/tmpegbcst3k/90u3quomt0.sdf

>  <i_m_source_file_index>  (336) 
40

>  <i_lp_mmshare_version>  (336) 
48012

>  <i_f3d_flags>  (336) 
1

>  <s_epik_input>  (336) 
W0NIMl0xW0NIMl1bQ0hdMVtDSDJdTihbQ0gyXVtDSDJdMilbQ0BAXShbT0hdKShbQ0BASF0zW09IXSlbQ0BASF0oL1tDSF09W0NIXVxDPTRcW09IXSlbQ0gyXUM1PUM2QzRcT1tDQEBIXTNDMjU2

>  <s_epik_cmdline>  (336) 
J2VwaWtfcHl0aG9uJywgJy1waHQnLCAnMi4wJywgJy1waCcsICc3LjAnLCAnLXRuJywgJzgnLCAnLW1hJywgJzIwMCcsICctaW1hZScsICc8aW5maWxlLm1hZT4nLCAnLW9tYWUnLCAnPG91dGZpbGUubWFlPic=

>  <r_epik_Ionization_Penalty>  (336) 
0.0394939

>  <r_epik_Ionization_Penalty_Charging>  (336) 
0

>  <r_epik_Ionization_Penalty_Neutral>  (336) 
0.0394939

>  <r_epik_State_Penalty>  (336) 
0.0399976

>  <r_epik_Charging_Adjusted_Penalty>  (336) 
0.0399976

>  <i_epik_Tot_Q>  (336) 
0

>  <i_epik_Tot_abs_Q>  (336) 
0

>  <s_lp_Force_Field>  (336) 
OPLS3e

>  <r_lp_Energy>  (336) 
445.281

>  <b_lp_Chiralities_Consistent>  (336) 
1

>  <s_lp_Variant>  (336) 
83:0-1

>  <s_i_glide_gridfile>  (336) 
pfpi4k_grid

>  <i_i_glide_lignum>  (336) 
40

>  <i_i_glide_rotatable_bonds>  (336) 
5

>  <r_i_docking_score>  (336) 
-2.94626

>  <r_i_glide_ligand_efficiency>  (336) 
-0.128098

>  <r_i_glide_ligand_efficiency_sa>  (336) 
-0.364294

>  <r_i_glide_ligand_efficiency_ln>  (336) 
-0.712432

>  <r_i_glide_gscore>  (336) 
-2.94626

>  <r_i_glide_lipo>  (336) 
-0.132826

>  <r_i_glide_hbond>  (336) 
0

>  <r_i_glide_metal>  (336) 
-0

>  <r_i_glide_rewards>  (336) 
-1.25888

>  <r_i_glide_evdw>  (336) 
-17.1622

>  <r_i_glide_ecoul>  (336) 
-7.12028

>  <r_i_glide_erotb>  (336) 
0.374073

>  <r_i_glide_esite>  (336) 
-0.00246912

>  <r_i_glide_emodel>  (336) 
-26.7064

>  <r_i_glide_energy>  (336) 
-24.2825

>  <r_i_glide_einternal>  (336) 
5.10254

>  <r_i_glide_intrahb_reward>  (336) 
-0

>  <i_i_glide_confnum>  (336) 
2

>  <i_i_glide_posenum>  (336) 
34

>  <r_i_glide_eff_state_penalty>  (336) 
0

>  <ligand_id>  (336) 
83

>  <original_smiles>  (336) 
OC1=C2OC3C(O)C4(O)C(C=C1)CC1=C2C13CCN4CC1CC1

>  <smiles>  (336) 
[H]OC1=C2OC3([H])C([H])(O[H])C4(O[H])N(C([H])([H])C5([H])C([H])([H])C5([H])[H])C([H])([H])C([H])([H])C35C2=C5C([H])([H])C4([H])C([H])=C1[H]

$$$$
83:1:0
     RDKit          3D

 44 49  0  0  1  0  0  0  0  0999 V2000
    3.4942   -2.9569   -3.4294 O   0  0  0  0  0  0  0  0  0  0  0  0
    4.5534   -2.4795   -2.7662 C   0  0  0  0  0  0  0  0  0  0  0  0
    5.4232   -3.3167   -2.1454 C   0  0  0  0  0  0  0  0  0  0  0  0
    6.4444   -2.7177   -1.4671 O   0  0  0  0  0  0  0  0  0  0  0  0
    6.6696   -3.3363   -0.2130 C   0  0  1  0  0  0  0  0  0  0  0  0
    6.4982   -2.2600    0.8479 C   0  0  1  0  0  0  0  0  0  0  0  0
    7.1465   -1.0644    0.4383 O   0  0  0  0  0  0  0  0  0  0  0  0
    5.0492   -2.0845    1.3730 C   0  0  1  0  0  0  0  0  0  0  0  0
    5.0839   -0.8946    2.1360 O   0  0  0  0  0  0  0  0  0  0  0  0
    3.9374   -1.8847    0.2771 C   0  0  1  0  0  0  0  0  0  0  0  0
    4.2505   -0.9130   -0.8756 C   0  0  0  0  0  0  0  0  0  0  0  0
    4.4638   -1.1541   -2.2016 C   0  0  0  0  0  0  0  0  0  0  0  0
    3.2418   -3.1967   -0.1523 C   0  0  0  0  0  0  0  0  0  0  0  0
    4.1470   -4.3309   -0.5629 C   0  0  0  0  0  0  0  0  0  0  0  0
    5.0153   -4.3923   -1.5100 C   0  0  0  0  0  0  0  0  0  0  0  0
    5.6364   -4.4398   -0.1422 C   0  0  1  0  0  0  0  0  0  0  0  0
    5.5401   -5.2946    1.1090 C   0  0  0  0  0  0  0  0  0  0  0  0
    5.3833   -4.4570    2.4145 C   0  0  0  0  0  0  0  0  0  0  0  0
    4.6840   -3.1475    2.3562 N   0  0  0  0  0  0  0  0  0  0  0  0
    3.6864   -2.8888    3.3921 C   0  0  0  0  0  0  0  0  0  0  0  0
    4.2659   -2.7281    4.7831 C   0  0  0  0  0  0  0  0  0  0  0  0
    4.2382   -3.8763    5.7686 C   0  0  0  0  0  0  0  0  0  0  0  0
    3.3384   -2.6855    5.9758 C   0  0  0  0  0  0  0  0  0  0  0  0
    3.5271   -3.8991   -3.3887 H   0  0  0  0  0  0  0  0  0  0  0  0
    7.6766   -3.7650   -0.1900 H   0  0  0  0  0  0  0  0  0  0  0  0
    7.0863   -2.5837    1.6926 H   0  0  0  0  0  0  0  0  0  0  0  0
    7.1913   -0.4808    1.1842 H   0  0  0  0  0  0  0  0  0  0  0  0
    4.4813   -0.2839    1.7418 H   0  0  0  0  0  0  0  0  0  0  0  0
    3.1187   -1.3730    0.7797 H   0  0  0  0  0  0  0  0  0  0  0  0
    4.2324    0.1177   -0.5660 H   0  0  0  0  0  0  0  0  0  0  0  0
    4.6244   -0.2961   -2.8378 H   0  0  0  0  0  0  0  0  0  0  0  0
    2.7046   -3.5787    0.7127 H   0  0  0  0  0  0  0  0  0  0  0  0
    2.4750   -3.0193   -0.9104 H   0  0  0  0  0  0  0  0  0  0  0  0
    4.6855   -5.9724    1.0239 H   0  0  0  0  0  0  0  0  0  0  0  0
    6.4070   -5.9566    1.1923 H   0  0  0  0  0  0  0  0  0  0  0  0
    4.8596   -5.0959    3.1285 H   0  0  0  0  0  0  0  0  0  0  0  0
    6.3694   -4.3180    2.8458 H   0  0  0  0  0  0  0  0  0  0  0  0
    3.0837   -2.0090    3.1569 H   0  0  0  0  0  0  0  0  0  0  0  0
    2.9958   -3.7268    3.4131 H   0  0  0  0  0  0  0  0  0  0  0  0
    5.1245   -2.0626    4.8351 H   0  0  0  0  0  0  0  0  0  0  0  0
    3.7854   -4.8076    5.4351 H   0  0  0  0  0  0  0  0  0  0  0  0
    5.0871   -3.9870    6.4408 H   0  0  0  0  0  0  0  0  0  0  0  0
    3.5877   -2.0110    6.7931 H   0  0  0  0  0  0  0  0  0  0  0  0
    2.2752   -2.8148    5.7844 H   0  0  0  0  0  0  0  0  0  0  0  0
  1  2  1  0
  1 24  1  0
  2 12  1  0
  2  3  2  3
  3 15  1  0
  3  4  1  0
  4  5  1  0
  5 16  1  0
  5  6  1  0
  5 25  1  6
  6  7  1  0
  6  8  1  0
  6 26  1  1
  7 27  1  0
  8 19  1  0
  8  9  1  1
  8 10  1  0
  9 28  1  0
 10 11  1  0
 10 13  1  0
 10 29  1  1
 11 12  2  3
 11 30  1  0
 12 31  1  0
 13 14  1  0
 13 32  1  0
 13 33  1  0
 14 16  1  0
 14 15  2  0
 15 16  1  0
 16 17  1  6
 17 18  1  0
 17 34  1  0
 17 35  1  0
 18 19  1  0
 18 36  1  0
 18 37  1  0
 19 20  1  0
 20 21  1  0
 20 38  1  0
 20 39  1  0
 21 23  1  0
 21 22  1  0
 21 40  1  0
 22 23  1  0
 22 41  1  0
 22 42  1  0
 23 43  1  0
 23 44  1  0
M  END
>  <i_m_ct_stereo_status>  (337) 
1

>  <s_m_source_file>  (337) 
/var/tmp/pbs.5076255.sched01/tmpegbcst3k/90u3quomt0.sdf

>  <i_m_source_file_index>  (337) 
41

>  <i_lp_mmshare_version>  (337) 
48012

>  <i_f3d_flags>  (337) 
2

>  <s_epik_input>  (337) 
W0NIMl0xW0NIMl1bQ0hdMVtDSDJdTihbQ0gyXVtDSDJdMilbQ0BAXShbT0hdKShbQ0BASF0zW09IXSlbQ0BASF0oL1tDSF09W0NIXVxDPTRcW09IXSlbQ0gyXUM1PUM2QzRcT1tDQEBIXTNDMjU2

>  <s_epik_cmdline>  (337) 
J2VwaWtfcHl0aG9uJywgJy1waHQnLCAnMi4wJywgJy1waCcsICc3LjAnLCAnLXRuJywgJzgnLCAnLW1hJywgJzIwMCcsICctaW1hZScsICc8aW5maWxlLm1hZT4nLCAnLW9tYWUnLCAnPG91dGZpbGUubWFlPic=

>  <r_epik_Ionization_Penalty>  (337) 
0.0394939

>  <r_epik_Ionization_Penalty_Charging>  (337) 
0

>  <r_epik_Ionization_Penalty_Neutral>  (337) 
0.0394939

>  <r_epik_State_Penalty>  (337) 
0.0399976

>  <r_epik_Charging_Adjusted_Penalty>  (337) 
0.0399976

>  <i_epik_Tot_Q>  (337) 
0

>  <i_epik_Tot_abs_Q>  (337) 
0

>  <s_lp_Force_Field>  (337) 
OPLS3e

>  <r_lp_Energy>  (337) 
137.042

>  <b_lp_Chiralities_Consistent>  (337) 
0

>  <s_lp_Variant>  (337) 
83:0-2

>  <s_i_glide_gridfile>  (337) 
pfpi4k_grid

>  <i_i_glide_lignum>  (337) 
41

>  <i_i_glide_rotatable_bonds>  (337) 
5

>  <r_i_docking_score>  (337) 
-3.42337

>  <r_i_glide_ligand_efficiency>  (337) 
-0.148842

>  <r_i_glide_ligand_efficiency_sa>  (337) 
-0.423287

>  <r_i_glide_ligand_efficiency_ln>  (337) 
-0.827801

>  <r_i_glide_gscore>  (337) 
-3.42337

>  <r_i_glide_lipo>  (337) 
-0.667674

>  <r_i_glide_hbond>  (337) 
-0.0359529

>  <r_i_glide_metal>  (337) 
-0

>  <r_i_glide_rewards>  (337) 
-1.32624

>  <r_i_glide_evdw>  (337) 
-18.7924

>  <r_i_glide_ecoul>  (337) 
-5.51966

>  <r_i_glide_erotb>  (337) 
0.374073

>  <r_i_glide_esite>  (337) 
0

>  <r_i_glide_emodel>  (337) 
-29.3417

>  <r_i_glide_energy>  (337) 
-24.312

>  <r_i_glide_einternal>  (337) 
0.649187

>  <r_i_glide_intrahb_reward>  (337) 
-0

>  <i_i_glide_confnum>  (337) 
3

>  <i_i_glide_posenum>  (337) 
21

>  <r_i_glide_eff_state_penalty>  (337) 
0

>  <ligand_id>  (337) 
83

>  <original_smiles>  (337) 
OC1=C2OC3C(O)C4(O)C(C=C1)CC1=C2C13CCN4CC1CC1

>  <smiles>  (337) 
[H]OC1=C2OC3([H])C([H])(O[H])C4(O[H])N(C([H])([H])C5([H])C([H])([H])C5([H])[H])C([H])([H])C([H])([H])C35C2=C5C([H])([H])C4([H])C([H])=C1[H]

$$$$
83:1:1
     RDKit          3D

 44 49  0  0  1  0  0  0  0  0999 V2000
    3.5186   -2.5948   -3.5226 O   0  0  0  0  0  0  0  0  0  0  0  0
    4.5922   -2.1777   -2.8119 C   0  0  0  0  0  0  0  0  0  0  0  0
    5.4481   -3.0613   -2.2697 C   0  0  0  0  0  0  0  0  0  0  0  0
    6.4596   -2.5148   -1.5221 O   0  0  0  0  0  0  0  0  0  0  0  0
    6.6695   -3.2560   -0.3346 C   0  0  1  0  0  0  0  0  0  0  0  0
    6.5066   -2.2839    0.8252 C   0  0  1  0  0  0  0  0  0  0  0  0
    7.1647   -1.0589    0.4841 O   0  0  0  0  0  0  0  0  0  0  0  0
    5.0446   -2.1426    1.3500 C   0  0  1  0  0  0  0  0  0  0  0  0
    5.1055   -1.0086    2.2031 O   0  0  0  0  0  0  0  0  0  0  0  0
    3.9613   -1.8460    0.2444 C   0  0  1  0  0  0  0  0  0  0  0  0
    4.2860   -0.7613   -0.7952 C   0  0  0  0  0  0  0  0  0  0  0  0
    4.4905   -0.8923   -2.1375 C   0  0  0  0  0  0  0  0  0  0  0  0
    3.2508   -3.0858   -0.3402 C   0  0  0  0  0  0  0  0  0  0  0  0
    4.1716   -4.1854   -0.8026 C   0  0  0  0  0  0  0  0  0  0  0  0
    5.0231   -4.2200   -1.7408 C   0  0  0  0  0  0  0  0  0  0  0  0
    5.6370   -4.3673   -0.3729 C   0  0  1  0  0  0  0  0  0  0  0  0
    5.5307   -5.3104    0.8152 C   0  0  0  0  0  0  0  0  0  0  0  0
    5.3706   -4.5856    2.1853 C   0  0  0  0  0  0  0  0  0  0  0  0
    4.6424   -3.2890    2.2250 N   0  0  0  0  0  0  0  0  0  0  0  0
    3.6895   -3.0842    3.3343 C   0  0  0  0  0  0  0  0  0  0  0  0
    2.2284   -3.0773    2.9248 C   0  0  0  0  0  0  0  0  0  0  0  0
    1.5029   -1.7556    2.7900 C   0  0  0  0  0  0  0  0  0  0  0  0
    1.1530   -2.7026    3.9096 C   0  0  0  0  0  0  0  0  0  0  0  0
    2.8566   -1.9249   -3.4392 H   0  0  0  0  0  0  0  0  0  0  0  0
    7.6715   -3.6829   -0.3432 H   0  0  0  0  0  0  0  0  0  0  0  0
    7.0935   -2.6611    1.6554 H   0  0  0  0  0  0  0  0  0  0  0  0
    7.1863   -0.5175    1.2628 H   0  0  0  0  0  0  0  0  0  0  0  0
    4.5065   -0.3626    1.8589 H   0  0  0  0  0  0  0  0  0  0  0  0
    3.1565   -1.3532    0.7686 H   0  0  0  0  0  0  0  0  0  0  0  0
    4.2559    0.2322   -0.3650 H   0  0  0  0  0  0  0  0  0  0  0  0
    4.6470    0.0258   -2.6961 H   0  0  0  0  0  0  0  0  0  0  0  0
    2.7140   -3.5911    0.4513 H   0  0  0  0  0  0  0  0  0  0  0  0
    2.4961   -2.8160   -1.0902 H   0  0  0  0  0  0  0  0  0  0  0  0
    4.6728   -5.9632    0.6695 H   0  0  0  0  0  0  0  0  0  0  0  0
    6.3928   -5.9757    0.8414 H   0  0  0  0  0  0  0  0  0  0  0  0
    4.8520   -5.2912    2.8330 H   0  0  0  0  0  0  0  0  0  0  0  0
    6.3567   -4.4747    2.6326 H   0  0  0  0  0  0  0  0  0  0  0  0
    3.8077   -3.8920    4.0500 H   0  0  0  0  0  0  0  0  0  0  0  0
    3.9060   -2.1813    3.9115 H   0  0  0  0  0  0  0  0  0  0  0  0
    1.9190   -3.9517    2.3541 H   0  0  0  0  0  0  0  0  0  0  0  0
    2.0751   -0.8615    3.0337 H   0  0  0  0  0  0  0  0  0  0  0  0
    0.8171   -1.6523    1.9517 H   0  0  0  0  0  0  0  0  0  0  0  0
    0.2129   -3.2447    3.8173 H   0  0  0  0  0  0  0  0  0  0  0  0
    1.4808   -2.4770    4.9233 H   0  0  0  0  0  0  0  0  0  0  0  0
  1  2  1  0
  1 24  1  0
  2 12  1  0
  2  3  2  3
  3 15  1  0
  3  4  1  0
  4  5  1  0
  5 16  1  0
  5  6  1  0
  5 25  1  6
  6  7  1  0
  6  8  1  0
  6 26  1  1
  7 27  1  0
  8 19  1  0
  8  9  1  1
  8 10  1  0
  9 28  1  0
 10 11  1  0
 10 13  1  0
 10 29  1  1
 11 12  2  3
 11 30  1  0
 12 31  1  0
 13 14  1  0
 13 32  1  0
 13 33  1  0
 14 16  1  0
 14 15  2  0
 15 16  1  0
 16 17  1  6
 17 18  1  0
 17 34  1  0
 17 35  1  0
 18 19  1  0
 18 36  1  0
 18 37  1  0
 19 20  1  0
 20 21  1  0
 20 38  1  0
 20 39  1  0
 21 23  1  0
 21 22  1  0
 21 40  1  0
 22 23  1  0
 22 41  1  0
 22 42  1  0
 23 43  1  0
 23 44  1  0
M  END
>  <i_m_ct_stereo_status>  (338) 
1

>  <s_m_source_file>  (338) 
/var/tmp/pbs.5076255.sched01/tmpegbcst3k/90u3quomt0.sdf

>  <i_m_source_file_index>  (338) 
41

>  <i_lp_mmshare_version>  (338) 
48012

>  <i_f3d_flags>  (338) 
2

>  <s_epik_input>  (338) 
W0NIMl0xW0NIMl1bQ0hdMVtDSDJdTihbQ0gyXVtDSDJdMilbQ0BAXShbT0hdKShbQ0BASF0zW09IXSlbQ0BASF0oL1tDSF09W0NIXVxDPTRcW09IXSlbQ0gyXUM1PUM2QzRcT1tDQEBIXTNDMjU2

>  <s_epik_cmdline>  (338) 
J2VwaWtfcHl0aG9uJywgJy1waHQnLCAnMi4wJywgJy1waCcsICc3LjAnLCAnLXRuJywgJzgnLCAnLW1hJywgJzIwMCcsICctaW1hZScsICc8aW5maWxlLm1hZT4nLCAnLW9tYWUnLCAnPG91dGZpbGUubWFlPic=

>  <r_epik_Ionization_Penalty>  (338) 
0.0394939

>  <r_epik_Ionization_Penalty_Charging>  (338) 
0

>  <r_epik_Ionization_Penalty_Neutral>  (338) 
0.0394939

>  <r_epik_State_Penalty>  (338) 
0.0399976

>  <r_epik_Charging_Adjusted_Penalty>  (338) 
0.0399976

>  <i_epik_Tot_Q>  (338) 
0

>  <i_epik_Tot_abs_Q>  (338) 
0

>  <s_lp_Force_Field>  (338) 
OPLS3e

>  <r_lp_Energy>  (338) 
137.042

>  <b_lp_Chiralities_Consistent>  (338) 
0

>  <s_lp_Variant>  (338) 
83:0-2

>  <s_i_glide_gridfile>  (338) 
pfpi4k_grid

>  <i_i_glide_lignum>  (338) 
41

>  <i_i_glide_rotatable_bonds>  (338) 
5

>  <r_i_docking_score>  (338) 
-3.35375

>  <r_i_glide_ligand_efficiency>  (338) 
-0.145815

>  <r_i_glide_ligand_efficiency_sa>  (338) 
-0.41468

>  <r_i_glide_ligand_efficiency_ln>  (338) 
-0.810968

>  <r_i_glide_gscore>  (338) 
-3.35375

>  <r_i_glide_lipo>  (338) 
-0.636424

>  <r_i_glide_hbond>  (338) 
-0.0498383

>  <r_i_glide_metal>  (338) 
-0

>  <r_i_glide_rewards>  (338) 
-1.32194

>  <r_i_glide_evdw>  (338) 
-20.4514

>  <r_i_glide_ecoul>  (338) 
-4.64704

>  <r_i_glide_erotb>  (338) 
0.374073

>  <r_i_glide_esite>  (338) 
0

>  <r_i_glide_emodel>  (338) 
-29.2464

>  <r_i_glide_energy>  (338) 
-25.0984

>  <r_i_glide_einternal>  (338) 
1.53344

>  <r_i_glide_intrahb_reward>  (338) 
-0

>  <i_i_glide_confnum>  (338) 
1

>  <i_i_glide_posenum>  (338) 
38

>  <r_i_glide_eff_state_penalty>  (338) 
0

>  <ligand_id>  (338) 
83

>  <original_smiles>  (338) 
OC1=C2OC3C(O)C4(O)C(C=C1)CC1=C2C13CCN4CC1CC1

>  <smiles>  (338) 
[H]OC1=C2OC3([H])C([H])(O[H])C4(O[H])N(C([H])([H])C5([H])C([H])([H])C5([H])[H])C([H])([H])C([H])([H])C35C2=C5C([H])([H])C4([H])C([H])=C1[H]

$$$$
83:1:2
     RDKit          3D

 44 49  0  0  1  0  0  0  0  0999 V2000
    3.5337   -2.5991   -3.5518 O   0  0  0  0  0  0  0  0  0  0  0  0
    4.5727   -2.1689   -2.8285 C   0  0  0  0  0  0  0  0  0  0  0  0
    5.4424   -3.0657   -2.2791 C   0  0  0  0  0  0  0  0  0  0  0  0
    6.4511   -2.5224   -1.5410 O   0  0  0  0  0  0  0  0  0  0  0  0
    6.6748   -3.2547   -0.3492 C   0  0  1  0  0  0  0  0  0  0  0  0
    6.4982   -2.2886    0.8100 C   0  0  1  0  0  0  0  0  0  0  0  0
    7.1413   -1.0605    0.4878 O   0  0  0  0  0  0  0  0  0  0  0  0
    5.0455   -2.1580    1.3367 C   0  0  1  0  0  0  0  0  0  0  0  0
    5.0782   -1.0381    2.1954 O   0  0  0  0  0  0  0  0  0  0  0  0
    3.9401   -1.8609    0.2573 C   0  0  1  0  0  0  0  0  0  0  0  0
    4.2573   -0.7859   -0.7945 C   0  0  0  0  0  0  0  0  0  0  0  0
    4.4723   -0.9068   -2.1395 C   0  0  0  0  0  0  0  0  0  0  0  0
    3.2479   -3.1264   -0.2957 C   0  0  0  0  0  0  0  0  0  0  0  0
    4.1561   -4.2178   -0.7963 C   0  0  0  0  0  0  0  0  0  0  0  0
    5.0183   -4.2023   -1.7510 C   0  0  0  0  0  0  0  0  0  0  0  0
    5.6441   -4.3658   -0.3950 C   0  0  1  0  0  0  0  0  0  0  0  0
    5.5487   -5.3262    0.7768 C   0  0  0  0  0  0  0  0  0  0  0  0
    5.3839   -4.6142    2.1533 C   0  0  0  0  0  0  0  0  0  0  0  0
    4.6812   -3.3075    2.2127 N   0  0  0  0  0  0  0  0  0  0  0  0
    3.6712   -3.1475    3.2603 C   0  0  0  0  0  0  0  0  0  0  0  0
    4.2370   -3.1214    4.6664 C   0  0  0  0  0  0  0  0  0  0  0  0
    3.3548   -2.6989    5.8176 C   0  0  0  0  0  0  0  0  0  0  0  0
    4.4798   -1.8054    5.3619 C   0  0  0  0  0  0  0  0  0  0  0  0
    2.8553   -1.9451   -3.4529 H   0  0  0  0  0  0  0  0  0  0  0  0
    7.6858   -3.6744   -0.3615 H   0  0  0  0  0  0  0  0  0  0  0  0
    7.0859   -2.6656    1.6359 H   0  0  0  0  0  0  0  0  0  0  0  0
    7.1546   -0.5185    1.2667 H   0  0  0  0  0  0  0  0  0  0  0  0
    4.4631   -0.4004    1.8643 H   0  0  0  0  0  0  0  0  0  0  0  0
    3.1149   -1.3981    0.8008 H   0  0  0  0  0  0  0  0  0  0  0  0
    4.2448    0.1969   -0.3718 H   0  0  0  0  0  0  0  0  0  0  0  0
    4.6363    0.0130   -2.6840 H   0  0  0  0  0  0  0  0  0  0  0  0
    2.7067   -3.5870    0.5248 H   0  0  0  0  0  0  0  0  0  0  0  0
    2.4916   -2.8813   -1.0426 H   0  0  0  0  0  0  0  0  0  0  0  0
    4.6970   -5.9954    0.6247 H   0  0  0  0  0  0  0  0  0  0  0  0
    6.4168   -5.9881    0.8033 H   0  0  0  0  0  0  0  0  0  0  0  0
    4.8555   -5.3177    2.8017 H   0  0  0  0  0  0  0  0  0  0  0  0
    6.3679   -4.5103    2.6039 H   0  0  0  0  0  0  0  0  0  0  0  0
    3.0711   -2.2500    3.1048 H   0  0  0  0  0  0  0  0  0  0  0  0
    2.9781   -3.9839    3.1975 H   0  0  0  0  0  0  0  0  0  0  0  0
    4.9293   -3.9286    4.8908 H   0  0  0  0  0  0  0  0  0  0  0  0
    2.3382   -2.3974    5.5769 H   0  0  0  0  0  0  0  0  0  0  0  0
    3.4815   -3.2017    6.7752 H   0  0  0  0  0  0  0  0  0  0  0  0
    5.3604   -1.7303    5.9968 H   0  0  0  0  0  0  0  0  0  0  0  0
    4.2286   -0.9095    4.8006 H   0  0  0  0  0  0  0  0  0  0  0  0
  1  2  1  0
  1 24  1  0
  2 12  1  0
  2  3  2  3
  3 15  1  0
  3  4  1  0
  4  5  1  0
  5 16  1  0
  5  6  1  0
  5 25  1  6
  6  7  1  0
  6  8  1  0
  6 26  1  1
  7 27  1  0
  8 19  1  0
  8  9  1  1
  8 10  1  0
  9 28  1  0
 10 11  1  0
 10 13  1  0
 10 29  1  1
 11 12  2  3
 11 30  1  0
 12 31  1  0
 13 14  1  0
 13 32  1  0
 13 33  1  0
 14 16  1  0
 14 15  2  0
 15 16  1  0
 16 17  1  6
 17 18  1  0
 17 34  1  0
 17 35  1  0
 18 19  1  0
 18 36  1  0
 18 37  1  0
 19 20  1  0
 20 21  1  0
 20 38  1  0
 20 39  1  0
 21 23  1  0
 21 22  1  0
 21 40  1  0
 22 23  1  0
 22 41  1  0
 22 42  1  0
 23 43  1  0
 23 44  1  0
M  END
>  <i_m_ct_stereo_status>  (339) 
1

>  <s_m_source_file>  (339) 
/var/tmp/pbs.5076255.sched01/tmpegbcst3k/90u3quomt0.sdf

>  <i_m_source_file_index>  (339) 
41

>  <i_lp_mmshare_version>  (339) 
48012

>  <i_f3d_flags>  (339) 
2

>  <s_epik_input>  (339) 
W0NIMl0xW0NIMl1bQ0hdMVtDSDJdTihbQ0gyXVtDSDJdMilbQ0BAXShbT0hdKShbQ0BASF0zW09IXSlbQ0BASF0oL1tDSF09W0NIXVxDPTRcW09IXSlbQ0gyXUM1PUM2QzRcT1tDQEBIXTNDMjU2

>  <s_epik_cmdline>  (339) 
J2VwaWtfcHl0aG9uJywgJy1waHQnLCAnMi4wJywgJy1waCcsICc3LjAnLCAnLXRuJywgJzgnLCAnLW1hJywgJzIwMCcsICctaW1hZScsICc8aW5maWxlLm1hZT4nLCAnLW9tYWUnLCAnPG91dGZpbGUubWFlPic=

>  <r_epik_Ionization_Penalty>  (339) 
0.0394939

>  <r_epik_Ionization_Penalty_Charging>  (339) 
0

>  <r_epik_Ionization_Penalty_Neutral>  (339) 
0.0394939

>  <r_epik_State_Penalty>  (339) 
0.0399976

>  <r_epik_Charging_Adjusted_Penalty>  (339) 
0.0399976

>  <i_epik_Tot_Q>  (339) 
0

>  <i_epik_Tot_abs_Q>  (339) 
0

>  <s_lp_Force_Field>  (339) 
OPLS3e

>  <r_lp_Energy>  (339) 
137.042

>  <b_lp_Chiralities_Consistent>  (339) 
0

>  <s_lp_Variant>  (339) 
83:0-2

>  <s_i_glide_gridfile>  (339) 
pfpi4k_grid

>  <i_i_glide_lignum>  (339) 
41

>  <i_i_glide_rotatable_bonds>  (339) 
5

>  <r_i_docking_score>  (339) 
-3.26526

>  <r_i_glide_ligand_efficiency>  (339) 
-0.141968

>  <r_i_glide_ligand_efficiency_sa>  (339) 
-0.403737

>  <r_i_glide_ligand_efficiency_ln>  (339) 
-0.789569

>  <r_i_glide_gscore>  (339) 
-3.26526

>  <r_i_glide_lipo>  (339) 
-0.620576

>  <r_i_glide_hbond>  (339) 
-0.0460055

>  <r_i_glide_metal>  (339) 
-0

>  <r_i_glide_rewards>  (339) 
-1.32077

>  <r_i_glide_evdw>  (339) 
-19.4811

>  <r_i_glide_ecoul>  (339) 
-4.5195

>  <r_i_glide_erotb>  (339) 
0.374073

>  <r_i_glide_esite>  (339) 
0

>  <r_i_glide_emodel>  (339) 
-28.8492

>  <r_i_glide_energy>  (339) 
-24.0006

>  <r_i_glide_einternal>  (339) 
0.624879

>  <r_i_glide_intrahb_reward>  (339) 
-0

>  <i_i_glide_confnum>  (339) 
1

>  <i_i_glide_posenum>  (339) 
1

>  <r_i_glide_eff_state_penalty>  (339) 
0

>  <ligand_id>  (339) 
83

>  <original_smiles>  (339) 
OC1=C2OC3C(O)C4(O)C(C=C1)CC1=C2C13CCN4CC1CC1

>  <smiles>  (339) 
[H]OC1=C2OC3([H])C([H])(O[H])C4(O[H])N(C([H])([H])C5([H])C([H])([H])C5([H])[H])C([H])([H])C([H])([H])C35C2=C5C([H])([H])C4([H])C([H])=C1[H]

$$$$
83:2:0
     RDKit          3D

 44 49  0  0  1  0  0  0  0  0999 V2000
    4.4301   -1.3134   -2.9476 O   0  0  0  0  0  0  0  0  0  0  0  0
    5.2934   -1.6289   -1.9724 C   0  0  0  0  0  0  0  0  0  0  0  0
    5.1046   -1.1463   -0.7081 C   0  0  0  0  0  0  0  0  0  0  0  0
    3.8055   -0.9759   -0.3685 O   0  0  0  0  0  0  0  0  0  0  0  0
    3.5917   -1.7205    0.8541 C   0  0  1  0  0  0  0  0  0  0  0  0
    3.0022   -3.1231    0.5345 C   0  0  1  0  0  0  0  0  0  0  0  0
    2.2154   -3.0420   -0.6632 O   0  0  0  0  0  0  0  0  0  0  0  0
    3.9404   -4.3962    0.6728 C   0  0  1  0  0  0  0  0  0  0  0  0
    3.1397   -5.4667    0.1732 O   0  0  0  0  0  0  0  0  0  0  0  0
    5.2729   -4.4917   -0.1872 C   0  0  1  0  0  0  0  0  0  0  0  0
    5.1453   -3.9112   -1.5980 C   0  0  0  0  0  0  0  0  0  0  0  0
    5.9428   -2.9140   -2.0534 C   0  0  0  0  0  0  0  0  0  0  0  0
    6.4651   -3.8934    0.5601 C   0  0  0  0  0  0  0  0  0  0  0  0
    6.2585   -2.4346    0.9615 C   0  0  0  0  0  0  0  0  0  0  0  0
    5.8007   -1.3896    0.4237 C   0  0  0  0  0  0  0  0  0  0  0  0
    4.9417   -1.7912    1.5580 C   0  0  1  0  0  0  0  0  0  0  0  0
    5.0078   -2.3634    2.9711 C   0  0  0  0  0  0  0  0  0  0  0  0
    4.1833   -3.6648    3.1664 C   0  0  0  0  0  0  0  0  0  0  0  0
    4.2008   -4.7086    2.1131 N   0  0  0  0  0  0  0  0  0  0  0  0
    4.4332   -6.0841    2.5525 C   0  0  0  0  0  0  0  0  0  0  0  0
    3.2853   -6.6806    3.3439 C   0  0  0  0  0  0  0  0  0  0  0  0
    3.2698   -8.1658    3.6200 C   0  0  0  0  0  0  0  0  0  0  0  0
    2.2856   -7.5686    2.6454 C   0  0  0  0  0  0  0  0  0  0  0  0
    3.7829   -0.7241   -2.5878 H   0  0  0  0  0  0  0  0  0  0  0  0
    2.8934   -1.1558    1.4605 H   0  0  0  0  0  0  0  0  0  0  0  0
    2.2323   -3.2773    1.2920 H   0  0  0  0  0  0  0  0  0  0  0  0
    1.7729   -2.1819   -0.6944 H   0  0  0  0  0  0  0  0  0  0  0  0
    3.2061   -5.4604   -0.7792 H   0  0  0  0  0  0  0  0  0  0  0  0
    5.5099   -5.5462   -0.3287 H   0  0  0  0  0  0  0  0  0  0  0  0
    4.1105   -3.8904   -1.9208 H   0  0  0  0  0  0  0  0  0  0  0  0
    6.9685   -2.8630   -1.7168 H   0  0  0  0  0  0  0  0  0  0  0  0
    6.6381   -4.4578    1.4837 H   0  0  0  0  0  0  0  0  0  0  0  0
    7.4060   -4.0028    0.0122 H   0  0  0  0  0  0  0  0  0  0  0  0
    6.0362   -2.5143    3.2852 H   0  0  0  0  0  0  0  0  0  0  0  0
    4.6246   -1.6135    3.6562 H   0  0  0  0  0  0  0  0  0  0  0  0
    4.5488   -4.1148    4.0882 H   0  0  0  0  0  0  0  0  0  0  0  0
    3.1490   -3.3990    3.3805 H   0  0  0  0  0  0  0  0  0  0  0  0
    4.6600   -6.7379    1.7082 H   0  0  0  0  0  0  0  0  0  0  0  0
    5.3222   -6.0999    3.1807 H   0  0  0  0  0  0  0  0  0  0  0  0
    2.9055   -6.0502    4.1477 H   0  0  0  0  0  0  0  0  0  0  0  0
    4.0915   -8.7534    3.2141 H   0  0  0  0  0  0  0  0  0  0  0  0
    2.8760   -8.5082    4.5756 H   0  0  0  0  0  0  0  0  0  0  0  0
    1.2448   -7.4997    2.9549 H   0  0  0  0  0  0  0  0  0  0  0  0
    2.4491   -7.7430    1.5834 H   0  0  0  0  0  0  0  0  0  0  0  0
  1  2  1  0
  1 24  1  0
  2 12  1  0
  2  3  2  3
  3 15  1  0
  3  4  1  0
  4  5  1  0
  5 16  1  0
  5  6  1  0
  5 25  1  1
  6  7  1  0
  6  8  1  0
  6 26  1  1
  7 27  1  0
  8 19  1  0
  8  9  1  6
  8 10  1  0
  9 28  1  0
 10 11  1  0
 10 13  1  0
 10 29  1  6
 11 12  2  3
 11 30  1  0
 12 31  1  0
 13 14  1  0
 13 32  1  0
 13 33  1  0
 14 16  1  0
 14 15  2  0
 15 16  1  0
 16 17  1  1
 17 18  1  0
 17 34  1  0
 17 35  1  0
 18 19  1  0
 18 36  1  0
 18 37  1  0
 19 20  1  0
 20 21  1  0
 20 38  1  0
 20 39  1  0
 21 23  1  0
 21 22  1  0
 21 40  1  0
 22 23  1  0
 22 41  1  0
 22 42  1  0
 23 43  1  0
 23 44  1  0
M  END
>  <i_m_ct_stereo_status>  (340) 
1

>  <s_m_source_file>  (340) 
/var/tmp/pbs.5076255.sched01/tmpegbcst3k/90u3quomt0.sdf

>  <i_m_source_file_index>  (340) 
42

>  <i_lp_mmshare_version>  (340) 
48012

>  <i_f3d_flags>  (340) 
2

>  <s_epik_input>  (340) 
W0NIMl0xW0NIMl1bQ0hdMVtDSDJdTihbQ0gyXVtDSDJdMilbQ0BAXShbT0hdKShbQ0BASF0zW09IXSlbQ0BASF0oL1tDSF09W0NIXVxDPTRcW09IXSlbQ0gyXUM1PUM2QzRcT1tDQEBIXTNDMjU2

>  <s_epik_cmdline>  (340) 
J2VwaWtfcHl0aG9uJywgJy1waHQnLCAnMi4wJywgJy1waCcsICc3LjAnLCAnLXRuJywgJzgnLCAnLW1hJywgJzIwMCcsICctaW1hZScsICc8aW5maWxlLm1hZT4nLCAnLW9tYWUnLCAnPG91dGZpbGUubWFlPic=

>  <r_epik_Ionization_Penalty>  (340) 
0.0394939

>  <r_epik_Ionization_Penalty_Charging>  (340) 
0

>  <r_epik_Ionization_Penalty_Neutral>  (340) 
0.0394939

>  <r_epik_State_Penalty>  (340) 
0.0399976

>  <r_epik_Charging_Adjusted_Penalty>  (340) 
0.0399976

>  <i_epik_Tot_Q>  (340) 
0

>  <i_epik_Tot_abs_Q>  (340) 
0

>  <s_lp_Force_Field>  (340) 
OPLS3e

>  <r_lp_Energy>  (340) 
174.492

>  <b_lp_Chiralities_Consistent>  (340) 
0

>  <s_lp_Variant>  (340) 
83:0-3

>  <s_i_glide_gridfile>  (340) 
pfpi4k_grid

>  <i_i_glide_lignum>  (340) 
42

>  <i_i_glide_rotatable_bonds>  (340) 
5

>  <r_i_docking_score>  (340) 
-3.68453

>  <r_i_glide_ligand_efficiency>  (340) 
-0.160197

>  <r_i_glide_ligand_efficiency_sa>  (340) 
-0.455579

>  <r_i_glide_ligand_efficiency_ln>  (340) 
-0.890953

>  <r_i_glide_gscore>  (340) 
-3.68453

>  <r_i_glide_lipo>  (340) 
-0.545588

>  <r_i_glide_hbond>  (340) 
0

>  <r_i_glide_metal>  (340) 
-0

>  <r_i_glide_rewards>  (340) 
-1.28084

>  <r_i_glide_evdw>  (340) 
-17.4104

>  <r_i_glide_ecoul>  (340) 
-8.32956

>  <r_i_glide_erotb>  (340) 
0.261851

>  <r_i_glide_esite>  (340) 
0

>  <r_i_glide_emodel>  (340) 
-31.5908

>  <r_i_glide_energy>  (340) 
-25.74

>  <r_i_glide_einternal>  (340) 
0.668242

>  <r_i_glide_intrahb_reward>  (340) 
-0

>  <i_i_glide_confnum>  (340) 
1

>  <i_i_glide_posenum>  (340) 
7

>  <r_i_glide_eff_state_penalty>  (340) 
0

>  <ligand_id>  (340) 
83

>  <original_smiles>  (340) 
OC1=C2OC3C(O)C4(O)C(C=C1)CC1=C2C13CCN4CC1CC1

>  <smiles>  (340) 
[H]OC1=C2OC3([H])C([H])(O[H])C4(O[H])N(C([H])([H])C5([H])C([H])([H])C5([H])[H])C([H])([H])C([H])([H])C35C2=C5C([H])([H])C4([H])C([H])=C1[H]

$$$$
83:2:1
     RDKit          3D

 44 49  0  0  1  0  0  0  0  0999 V2000
    4.4031   -1.8013   -3.2480 O   0  0  0  0  0  0  0  0  0  0  0  0
    5.3038   -2.0095   -2.2792 C   0  0  0  0  0  0  0  0  0  0  0  0
    5.1634   -1.3346   -1.1097 C   0  0  0  0  0  0  0  0  0  0  0  0
    3.8814   -1.0663   -0.7581 O   0  0  0  0  0  0  0  0  0  0  0  0
    3.6810   -1.5925    0.5697 C   0  0  1  0  0  0  0  0  0  0  0  0
    3.0355   -3.0002    0.4929 C   0  0  1  0  0  0  0  0  0  0  0  0
    2.2131   -3.0818   -0.6643 O   0  0  0  0  0  0  0  0  0  0  0  0
    3.9391   -4.2652    0.8069 C   0  0  1  0  0  0  0  0  0  0  0  0
    3.0957   -5.3698    0.5078 O   0  0  0  0  0  0  0  0  0  0  0  0
    5.2365   -4.5423   -0.0653 C   0  0  1  0  0  0  0  0  0  0  0  0
    5.0730   -4.1872   -1.5436 C   0  0  0  0  0  0  0  0  0  0  0  0
    5.8902   -3.3125   -2.1751 C   0  0  0  0  0  0  0  0  0  0  0  0
    6.4808   -3.8788    0.5477 C   0  0  0  0  0  0  0  0  0  0  0  0
    6.3519   -2.3634    0.7117 C   0  0  0  0  0  0  0  0  0  0  0  0
    5.8806   -1.4324    0.0439 C   0  0  0  0  0  0  0  0  0  0  0  0
    5.0545   -1.6100    1.2341 C   0  0  1  0  0  0  0  0  0  0  0  0
    5.1454   -1.9430    2.7194 C   0  0  0  0  0  0  0  0  0  0  0  0
    4.2849   -3.1654    3.1449 C   0  0  0  0  0  0  0  0  0  0  0  0
    4.2362   -4.3602    2.2691 N   0  0  0  0  0  0  0  0  0  0  0  0
    4.4380   -5.6573    2.9115 C   0  0  0  0  0  0  0  0  0  0  0  0
    3.2803   -6.0988    3.7856 C   0  0  0  0  0  0  0  0  0  0  0  0
    3.2519   -7.5108    4.3222 C   0  0  0  0  0  0  0  0  0  0  0  0
    2.2780   -7.0908    3.2504 C   0  0  0  0  0  0  0  0  0  0  0  0
    4.2756   -2.6170   -3.7026 H   0  0  0  0  0  0  0  0  0  0  0  0
    3.0243   -0.9015    1.0996 H   0  0  0  0  0  0  0  0  0  0  0  0
    2.2881   -3.0035    1.2861 H   0  0  0  0  0  0  0  0  0  0  0  0
    1.7186   -2.2604   -0.7367 H   0  0  0  0  0  0  0  0  0  0  0  0
    3.1221   -5.5060   -0.4316 H   0  0  0  0  0  0  0  0  0  0  0  0
    5.4353   -5.6159   -0.0453 H   0  0  0  0  0  0  0  0  0  0  0  0
    4.0326   -4.1820   -1.8326 H   0  0  0  0  0  0  0  0  0  0  0  0
    6.9281   -3.2498   -1.8834 H   0  0  0  0  0  0  0  0  0  0  0  0
    6.6560   -4.2972    1.5373 H   0  0  0  0  0  0  0  0  0  0  0  0
    7.3884   -4.1147   -0.0020 H   0  0  0  0  0  0  0  0  0  0  0  0
    6.1830   -2.0782    3.0242 H   0  0  0  0  0  0  0  0  0  0  0  0
    4.8085   -1.0770    3.2889 H   0  0  0  0  0  0  0  0  0  0  0  0
    4.6636   -3.4757    4.1193 H   0  0  0  0  0  0  0  0  0  0  0  0
    3.2680   -2.8279    3.3368 H   0  0  0  0  0  0  0  0  0  0  0  0
    4.6453   -6.4379    2.1768 H   0  0  0  0  0  0  0  0  0  0  0  0
    5.3274   -5.5992    3.5365 H   0  0  0  0  0  0  0  0  0  0  0  0
    2.9026   -5.3353    4.4636 H   0  0  0  0  0  0  0  0  0  0  0  0
    4.0710   -8.1666    4.0337 H   0  0  0  0  0  0  0  0  0  0  0  0
    2.8493   -7.6754    5.3203 H   0  0  0  0  0  0  0  0  0  0  0  0
    1.2364   -6.9592    3.5350 H   0  0  0  0  0  0  0  0  0  0  0  0
    2.4461   -7.4509    2.2378 H   0  0  0  0  0  0  0  0  0  0  0  0
  1  2  1  0
  1 24  1  0
  2 12  1  0
  2  3  2  3
  3 15  1  0
  3  4  1  0
  4  5  1  0
  5 16  1  0
  5  6  1  0
  5 25  1  1
  6  7  1  0
  6  8  1  0
  6 26  1  1
  7 27  1  0
  8 19  1  0
  8  9  1  6
  8 10  1  0
  9 28  1  0
 10 11  1  0
 10 13  1  0
 10 29  1  6
 11 12  2  3
 11 30  1  0
 12 31  1  0
 13 14  1  0
 13 32  1  0
 13 33  1  0
 14 16  1  0
 14 15  2  0
 15 16  1  0
 16 17  1  1
 17 18  1  0
 17 34  1  0
 17 35  1  0
 18 19  1  0
 18 36  1  0
 18 37  1  0
 19 20  1  0
 20 21  1  0
 20 38  1  0
 20 39  1  0
 21 23  1  0
 21 22  1  0
 21 40  1  0
 22 23  1  0
 22 41  1  0
 22 42  1  0
 23 43  1  0
 23 44  1  0
M  END
>  <i_m_ct_stereo_status>  (341) 
1

>  <s_m_source_file>  (341) 
/var/tmp/pbs.5076255.sched01/tmpegbcst3k/90u3quomt0.sdf

>  <i_m_source_file_index>  (341) 
42

>  <i_lp_mmshare_version>  (341) 
48012

>  <i_f3d_flags>  (341) 
2

>  <s_epik_input>  (341) 
W0NIMl0xW0NIMl1bQ0hdMVtDSDJdTihbQ0gyXVtDSDJdMilbQ0BAXShbT0hdKShbQ0BASF0zW09IXSlbQ0BASF0oL1tDSF09W0NIXVxDPTRcW09IXSlbQ0gyXUM1PUM2QzRcT1tDQEBIXTNDMjU2

>  <s_epik_cmdline>  (341) 
J2VwaWtfcHl0aG9uJywgJy1waHQnLCAnMi4wJywgJy1waCcsICc3LjAnLCAnLXRuJywgJzgnLCAnLW1hJywgJzIwMCcsICctaW1hZScsICc8aW5maWxlLm1hZT4nLCAnLW9tYWUnLCAnPG91dGZpbGUubWFlPic=

>  <r_epik_Ionization_Penalty>  (341) 
0.0394939

>  <r_epik_Ionization_Penalty_Charging>  (341) 
0

>  <r_epik_Ionization_Penalty_Neutral>  (341) 
0.0394939

>  <r_epik_State_Penalty>  (341) 
0.0399976

>  <r_epik_Charging_Adjusted_Penalty>  (341) 
0.0399976

>  <i_epik_Tot_Q>  (341) 
0

>  <i_epik_Tot_abs_Q>  (341) 
0

>  <s_lp_Force_Field>  (341) 
OPLS3e

>  <r_lp_Energy>  (341) 
174.492

>  <b_lp_Chiralities_Consistent>  (341) 
0

>  <s_lp_Variant>  (341) 
83:0-3

>  <s_i_glide_gridfile>  (341) 
pfpi4k_grid

>  <i_i_glide_lignum>  (341) 
42

>  <i_i_glide_rotatable_bonds>  (341) 
5

>  <r_i_docking_score>  (341) 
-3.35783

>  <r_i_glide_ligand_efficiency>  (341) 
-0.145993

>  <r_i_glide_ligand_efficiency_sa>  (341) 
-0.415184

>  <r_i_glide_ligand_efficiency_ln>  (341) 
-0.811954

>  <r_i_glide_gscore>  (341) 
-3.35783

>  <r_i_glide_lipo>  (341) 
-0.626763

>  <r_i_glide_hbond>  (341) 
0

>  <r_i_glide_metal>  (341) 
-0

>  <r_i_glide_rewards>  (341) 
-1.2792

>  <r_i_glide_evdw>  (341) 
-17.6654

>  <r_i_glide_ecoul>  (341) 
-5.53631

>  <r_i_glide_erotb>  (341) 
0.261851

>  <r_i_glide_esite>  (341) 
0

>  <r_i_glide_emodel>  (341) 
-28.547

>  <r_i_glide_energy>  (341) 
-23.2017

>  <r_i_glide_einternal>  (341) 
0.645208

>  <r_i_glide_intrahb_reward>  (341) 
-0

>  <i_i_glide_confnum>  (341) 
1

>  <i_i_glide_posenum>  (341) 
1

>  <r_i_glide_eff_state_penalty>  (341) 
0

>  <ligand_id>  (341) 
83

>  <original_smiles>  (341) 
OC1=C2OC3C(O)C4(O)C(C=C1)CC1=C2C13CCN4CC1CC1

>  <smiles>  (341) 
[H]OC1=C2OC3([H])C([H])(O[H])C4(O[H])N(C([H])([H])C5([H])C([H])([H])C5([H])[H])C([H])([H])C([H])([H])C35C2=C5C([H])([H])C4([H])C([H])=C1[H]

$$$$
83:2:2
     RDKit          3D

 44 49  0  0  1  0  0  0  0  0999 V2000
    4.8922   -1.2134   -1.2602 O   0  0  0  0  0  0  0  0  0  0  0  0
    5.6142   -2.1285   -0.5975 C   0  0  0  0  0  0  0  0  0  0  0  0
    5.5679   -2.1639    0.7679 C   0  0  0  0  0  0  0  0  0  0  0  0
    4.3614   -1.7813    1.2917 O   0  0  0  0  0  0  0  0  0  0  0  0
    3.9276   -2.8624    2.1459 C   0  0  1  0  0  0  0  0  0  0  0  0
    2.9445   -3.8051    1.3859 C   0  0  1  0  0  0  0  0  0  0  0  0
    2.2725   -3.0604    0.3857 O   0  0  0  0  0  0  0  0  0  0  0  0
    3.4445   -5.2319    0.9234 C   0  0  1  0  0  0  0  0  0  0  0  0
    2.3555   -5.7421    0.1525 O   0  0  0  0  0  0  0  0  0  0  0  0
    4.6986   -5.3347   -0.0546 C   0  0  1  0  0  0  0  0  0  0  0  0
    4.7733   -4.2307   -1.1211 C   0  0  0  0  0  0  0  0  0  0  0  0
    5.8361   -3.4024   -1.2438 C   0  0  0  0  0  0  0  0  0  0  0  0
    6.0145   -5.4469    0.7312 C   0  0  0  0  0  0  0  0  0  0  0  0
    6.2255   -4.2866    1.6751 C   0  0  0  0  0  0  0  0  0  0  0  0
    6.1452   -3.0165    1.6291 C   0  0  0  0  0  0  0  0  0  0  0  0
    5.1919   -3.5666    2.6313 C   0  0  1  0  0  0  0  0  0  0  0  0
    5.0614   -4.6575    3.6860 C   0  0  0  0  0  0  0  0  0  0  0  0
    3.8742   -5.6424    3.4611 C   0  0  0  0  0  0  0  0  0  0  0  0
    3.5970   -6.1459    2.0945 N   0  0  0  0  0  0  0  0  0  0  0  0
    3.3916   -7.5835    1.9455 C   0  0  0  0  0  0  0  0  0  0  0  0
    2.0853   -8.0892    2.5290 C   0  0  0  0  0  0  0  0  0  0  0  0
    2.1029   -9.0220    3.7214 C   0  0  0  0  0  0  0  0  0  0  0  0
    1.7246   -9.5472    2.3584 C   0  0  0  0  0  0  0  0  0  0  0  0
    4.5858   -1.6007   -2.0679 H   0  0  0  0  0  0  0  0  0  0  0  0
    3.4271   -2.4144    2.9990 H   0  0  0  0  0  0  0  0  0  0  0  0
    2.1490   -4.0075    2.1047 H   0  0  0  0  0  0  0  0  0  0  0  0
    2.1843   -2.1619    0.6809 H   0  0  0  0  0  0  0  0  0  0  0  0
    2.6099   -5.7064   -0.7658 H   0  0  0  0  0  0  0  0  0  0  0  0
    4.6222   -6.2628   -0.6109 H   0  0  0  0  0  0  0  0  0  0  0  0
    3.7986   -3.8041   -1.2905 H   0  0  0  0  0  0  0  0  0  0  0  0
    6.8219   -3.7798   -1.0219 H   0  0  0  0  0  0  0  0  0  0  0  0
    5.9939   -6.3512    1.3423 H   0  0  0  0  0  0  0  0  0  0  0  0
    6.8836   -5.5859    0.0768 H   0  0  0  0  0  0  0  0  0  0  0  0
    5.9946   -5.2116    3.8152 H   0  0  0  0  0  0  0  0  0  0  0  0
    4.9042   -4.1671    4.6445 H   0  0  0  0  0  0  0  0  0  0  0  0
    4.0730   -6.5067    4.0971 H   0  0  0  0  0  0  0  0  0  0  0  0
    2.9636   -5.2052    3.8725 H   0  0  0  0  0  0  0  0  0  0  0  0
    3.4549   -7.8825    0.8966 H   0  0  0  0  0  0  0  0  0  0  0  0
    4.2133   -8.0947    2.4446 H   0  0  0  0  0  0  0  0  0  0  0  0
    1.2558   -7.3838    2.4680 H   0  0  0  0  0  0  0  0  0  0  0  0
    3.0750   -9.3079    4.1230 H   0  0  0  0  0  0  0  0  0  0  0  0
    1.3061   -8.9210    4.4564 H   0  0  0  0  0  0  0  0  0  0  0  0
    0.6762   -9.7929    2.1890 H   0  0  0  0  0  0  0  0  0  0  0  0
    2.4445  -10.1808    1.8377 H   0  0  0  0  0  0  0  0  0  0  0  0
  1  2  1  0
  1 24  1  0
  2 12  1  0
  2  3  2  3
  3 15  1  0
  3  4  1  0
  4  5  1  0
  5 16  1  0
  5  6  1  0
  5 25  1  1
  6  7  1  0
  6  8  1  0
  6 26  1  1
  7 27  1  0
  8 19  1  0
  8  9  1  6
  8 10  1  0
  9 28  1  0
 10 11  1  0
 10 13  1  0
 10 29  1  6
 11 12  2  3
 11 30  1  0
 12 31  1  0
 13 14  1  0
 13 32  1  0
 13 33  1  0
 14 16  1  0
 14 15  2  0
 15 16  1  0
 16 17  1  1
 17 18  1  0
 17 34  1  0
 17 35  1  0
 18 19  1  0
 18 36  1  0
 18 37  1  0
 19 20  1  0
 20 21  1  0
 20 38  1  0
 20 39  1  0
 21 23  1  0
 21 22  1  0
 21 40  1  0
 22 23  1  0
 22 41  1  0
 22 42  1  0
 23 43  1  0
 23 44  1  0
M  END
>  <i_m_ct_stereo_status>  (342) 
1

>  <s_m_source_file>  (342) 
/var/tmp/pbs.5076255.sched01/tmpegbcst3k/90u3quomt0.sdf

>  <i_m_source_file_index>  (342) 
42

>  <i_lp_mmshare_version>  (342) 
48012

>  <i_f3d_flags>  (342) 
2

>  <s_epik_input>  (342) 
W0NIMl0xW0NIMl1bQ0hdMVtDSDJdTihbQ0gyXVtDSDJdMilbQ0BAXShbT0hdKShbQ0BASF0zW09IXSlbQ0BASF0oL1tDSF09W0NIXVxDPTRcW09IXSlbQ0gyXUM1PUM2QzRcT1tDQEBIXTNDMjU2

>  <s_epik_cmdline>  (342) 
J2VwaWtfcHl0aG9uJywgJy1waHQnLCAnMi4wJywgJy1waCcsICc3LjAnLCAnLXRuJywgJzgnLCAnLW1hJywgJzIwMCcsICctaW1hZScsICc8aW5maWxlLm1hZT4nLCAnLW9tYWUnLCAnPG91dGZpbGUubWFlPic=

>  <r_epik_Ionization_Penalty>  (342) 
0.0394939

>  <r_epik_Ionization_Penalty_Charging>  (342) 
0

>  <r_epik_Ionization_Penalty_Neutral>  (342) 
0.0394939

>  <r_epik_State_Penalty>  (342) 
0.0399976

>  <r_epik_Charging_Adjusted_Penalty>  (342) 
0.0399976

>  <i_epik_Tot_Q>  (342) 
0

>  <i_epik_Tot_abs_Q>  (342) 
0

>  <s_lp_Force_Field>  (342) 
OPLS3e

>  <r_lp_Energy>  (342) 
174.492

>  <b_lp_Chiralities_Consistent>  (342) 
0

>  <s_lp_Variant>  (342) 
83:0-3

>  <s_i_glide_gridfile>  (342) 
pfpi4k_grid

>  <i_i_glide_lignum>  (342) 
42

>  <i_i_glide_rotatable_bonds>  (342) 
5

>  <r_i_docking_score>  (342) 
-2.96339

>  <r_i_glide_ligand_efficiency>  (342) 
-0.128843

>  <r_i_glide_ligand_efficiency_sa>  (342) 
-0.366413

>  <r_i_glide_ligand_efficiency_ln>  (342) 
-0.716575

>  <r_i_glide_gscore>  (342) 
-2.96339

>  <r_i_glide_lipo>  (342) 
-0.583119

>  <r_i_glide_hbond>  (342) 
0

>  <r_i_glide_metal>  (342) 
-0

>  <r_i_glide_rewards>  (342) 
-1.25888

>  <r_i_glide_evdw>  (342) 
-16.4038

>  <r_i_glide_ecoul>  (342) 
-4.47234

>  <r_i_glide_erotb>  (342) 
0.374073

>  <r_i_glide_esite>  (342) 
-0.00441953

>  <r_i_glide_emodel>  (342) 
-25.0806

>  <r_i_glide_energy>  (342) 
-20.8762

>  <r_i_glide_einternal>  (342) 
1.08594

>  <r_i_glide_intrahb_reward>  (342) 
-0

>  <i_i_glide_confnum>  (342) 
3

>  <i_i_glide_posenum>  (342) 
20

>  <r_i_glide_eff_state_penalty>  (342) 
0

>  <ligand_id>  (342) 
83

>  <original_smiles>  (342) 
OC1=C2OC3C(O)C4(O)C(C=C1)CC1=C2C13CCN4CC1CC1

>  <smiles>  (342) 
[H]OC1=C2OC3([H])C([H])(O[H])C4(O[H])N(C([H])([H])C5([H])C([H])([H])C5([H])[H])C([H])([H])C([H])([H])C35C2=C5C([H])([H])C4([H])C([H])=C1[H]

$$$$
83:3:0
     RDKit          3D

 44 49  0  0  1  0  0  0  0  0999 V2000
    3.5878   -3.4614   -3.2545 O   0  0  0  0  0  0  0  0  0  0  0  0
    4.6306   -2.9354   -2.5804 C   0  0  0  0  0  0  0  0  0  0  0  0
    5.3650   -3.6736   -1.7241 C   0  0  0  0  0  0  0  0  0  0  0  0
    6.3600   -2.9941   -1.0802 O   0  0  0  0  0  0  0  0  0  0  0  0
    6.4190   -3.3571    0.2908 C   0  0  1  0  0  0  0  0  0  0  0  0
    6.2614   -2.0720    1.0883 C   0  0  1  0  0  0  0  0  0  0  0  0
    7.0690   -1.0727    0.4826 O   0  0  0  0  0  0  0  0  0  0  0  0
    4.7874   -1.6826    1.4059 C   0  0  1  0  0  0  0  0  0  0  0  0
    4.9001   -0.3471    1.8927 O   0  0  0  0  0  0  0  0  0  0  0  0
    3.8117   -1.6647    0.1701 C   0  0  1  0  0  0  0  0  0  0  0  0
    4.3131   -0.9639   -1.1111 C   0  0  0  0  0  0  0  0  0  0  0  0
    4.6057   -1.5024   -2.3293 C   0  0  0  0  0  0  0  0  0  0  0  0
    3.0412   -2.9816   -0.0876 C   0  0  0  0  0  0  0  0  0  0  0  0
    3.8894   -4.2372   -0.1437 C   0  0  0  0  0  0  0  0  0  0  0  0
    4.8242   -4.5971   -0.9279 C   0  0  0  0  0  0  0  0  0  0  0  0
    5.2954   -4.3539    0.4826 C   0  0  1  0  0  0  0  0  0  0  0  0
    5.0224   -4.8928    1.8791 C   0  0  0  0  0  0  0  0  0  0  0  0
    4.8413   -3.7775    2.9532 C   0  0  0  0  0  0  0  0  0  0  0  0
    4.2235   -2.4879    2.5399 N   0  0  0  0  0  0  0  0  0  0  0  0
    3.2835   -1.8686    3.4903 C   0  0  0  0  0  0  0  0  0  0  0  0
    1.8552   -1.8006    2.9885 C   0  0  0  0  0  0  0  0  0  0  0  0
    1.2677   -0.4664    2.5885 C   0  0  0  0  0  0  0  0  0  0  0  0
    0.7715   -1.1761    3.8241 C   0  0  0  0  0  0  0  0  0  0  0  0
    3.5438   -4.3826   -3.0467 H   0  0  0  0  0  0  0  0  0  0  0  0
    7.3740   -3.8284    0.5020 H   0  0  0  0  0  0  0  0  0  0  0  0
    6.7443   -2.2165    2.0457 H   0  0  0  0  0  0  0  0  0  0  0  0
    7.1610   -0.3619    1.1228 H   0  0  0  0  0  0  0  0  0  0  0  0
    4.2701    0.1781    1.4227 H   0  0  0  0  0  0  0  0  0  0  0  0
    3.0149   -0.9935    0.4607 H   0  0  0  0  0  0  0  0  0  0  0  0
    4.3574    0.1153   -1.0258 H   0  0  0  0  0  0  0  0  0  0  0  0
    4.8854   -0.8103   -3.1195 H   0  0  0  0  0  0  0  0  0  0  0  0
    2.4029   -3.1896    0.7649 H   0  0  0  0  0  0  0  0  0  0  0  0
    2.3669   -2.8921   -0.9528 H   0  0  0  0  0  0  0  0  0  0  0  0
    4.1171   -5.4939    1.8512 H   0  0  0  0  0  0  0  0  0  0  0  0
    5.8142   -5.5768    2.1775 H   0  0  0  0  0  0  0  0  0  0  0  0
    4.2178   -4.2205    3.7269 H   0  0  0  0  0  0  0  0  0  0  0  0
    5.8006   -3.5974    3.4370 H   0  0  0  0  0  0  0  0  0  0  0  0
    3.2720   -2.4538    4.4056 H   0  0  0  0  0  0  0  0  0  0  0  0
    3.6097   -0.8755    3.8180 H   0  0  0  0  0  0  0  0  0  0  0  0
    1.4902   -2.7261    2.5433 H   0  0  0  0  0  0  0  0  0  0  0  0
    1.9045    0.4103    2.7193 H   0  0  0  0  0  0  0  0  0  0  0  0
    0.6389   -0.4591    1.7007 H   0  0  0  0  0  0  0  0  0  0  0  0
   -0.1977   -1.6670    3.7602 H   0  0  0  0  0  0  0  0  0  0  0  0
    1.0636   -0.8201    4.8133 H   0  0  0  0  0  0  0  0  0  0  0  0
  1  2  1  0
  1 24  1  0
  2 12  1  0
  2  3  2  3
  3 15  1  0
  3  4  1  0
  4  5  1  0
  5 16  1  0
  5  6  1  0
  5 25  1  6
  6  7  1  0
  6  8  1  0
  6 26  1  1
  7 27  1  0
  8 19  1  0
  8  9  1  1
  8 10  1  0
  9 28  1  0
 10 11  1  0
 10 13  1  0
 10 29  1  1
 11 12  2  3
 11 30  1  0
 12 31  1  0
 13 14  1  0
 13 32  1  0
 13 33  1  0
 14 16  1  0
 14 15  2  0
 15 16  1  0
 16 17  1  1
 17 18  1  0
 17 34  1  0
 17 35  1  0
 18 19  1  0
 18 36  1  0
 18 37  1  0
 19 20  1  0
 20 21  1  0
 20 38  1  0
 20 39  1  0
 21 23  1  0
 21 22  1  0
 21 40  1  0
 22 23  1  0
 22 41  1  0
 22 42  1  0
 23 43  1  0
 23 44  1  0
M  END
>  <i_m_ct_stereo_status>  (343) 
1

>  <s_m_source_file>  (343) 
/var/tmp/pbs.5076255.sched01/tmpegbcst3k/90u3quomt0.sdf

>  <i_m_source_file_index>  (343) 
43

>  <i_lp_mmshare_version>  (343) 
48012

>  <i_f3d_flags>  (343) 
3

>  <s_epik_input>  (343) 
W0NIMl0xW0NIMl1bQ0hdMVtDSDJdTihbQ0gyXVtDSDJdMilbQ0BAXShbT0hdKShbQ0BASF0zW09IXSlbQ0BASF0oL1tDSF09W0NIXVxDPTRcW09IXSlbQ0gyXUM1PUM2QzRcT1tDQEBIXTNDMjU2

>  <s_epik_cmdline>  (343) 
J2VwaWtfcHl0aG9uJywgJy1waHQnLCAnMi4wJywgJy1waCcsICc3LjAnLCAnLXRuJywgJzgnLCAnLW1hJywgJzIwMCcsICctaW1hZScsICc8aW5maWxlLm1hZT4nLCAnLW9tYWUnLCAnPG91dGZpbGUubWFlPic=

>  <r_epik_Ionization_Penalty>  (343) 
0.0394939

>  <r_epik_Ionization_Penalty_Charging>  (343) 
0

>  <r_epik_Ionization_Penalty_Neutral>  (343) 
0.0394939

>  <r_epik_State_Penalty>  (343) 
0.0399976

>  <r_epik_Charging_Adjusted_Penalty>  (343) 
0.0399976

>  <i_epik_Tot_Q>  (343) 
0

>  <i_epik_Tot_abs_Q>  (343) 
0

>  <s_lp_Force_Field>  (343) 
OPLS3e

>  <r_lp_Energy>  (343) 
140.775

>  <b_lp_Chiralities_Consistent>  (343) 
0

>  <s_lp_Variant>  (343) 
83:0-4

>  <s_i_glide_gridfile>  (343) 
pfpi4k_grid

>  <i_i_glide_lignum>  (343) 
43

>  <i_i_glide_rotatable_bonds>  (343) 
5

>  <r_i_docking_score>  (343) 
-3.94002

>  <r_i_glide_ligand_efficiency>  (343) 
-0.171305

>  <r_i_glide_ligand_efficiency_sa>  (343) 
-0.48717

>  <r_i_glide_ligand_efficiency_ln>  (343) 
-0.952733

>  <r_i_glide_gscore>  (343) 
-3.94002

>  <r_i_glide_lipo>  (343) 
-0.453275

>  <r_i_glide_hbond>  (343) 
-0.302179

>  <r_i_glide_metal>  (343) 
-0

>  <r_i_glide_rewards>  (343) 
-1.3191

>  <r_i_glide_evdw>  (343) 
-20.3264

>  <r_i_glide_ecoul>  (343) 
-8.15484

>  <r_i_glide_erotb>  (343) 
0.374073

>  <r_i_glide_esite>  (343) 
0

>  <r_i_glide_emodel>  (343) 
-33.7797

>  <r_i_glide_energy>  (343) 
-28.4812

>  <r_i_glide_einternal>  (343) 
2.16622

>  <r_i_glide_intrahb_reward>  (343) 
-0

>  <i_i_glide_confnum>  (343) 
4

>  <i_i_glide_posenum>  (343) 
18

>  <r_i_glide_eff_state_penalty>  (343) 
0

>  <ligand_id>  (343) 
83

>  <original_smiles>  (343) 
OC1=C2OC3C(O)C4(O)C(C=C1)CC1=C2C13CCN4CC1CC1

>  <smiles>  (343) 
[H]OC1=C2OC3([H])C([H])(O[H])C4(O[H])N(C([H])([H])C5([H])C([H])([H])C5([H])[H])C([H])([H])C([H])([H])C35C2=C5C([H])([H])C4([H])C([H])=C1[H]

$$$$
83:3:1
     RDKit          3D

 44 49  0  0  1  0  0  0  0  0999 V2000
    3.6507   -3.4566   -3.3366 O   0  0  0  0  0  0  0  0  0  0  0  0
    4.6598   -2.9334   -2.6280 C   0  0  0  0  0  0  0  0  0  0  0  0
    5.3553   -3.6695   -1.7332 C   0  0  0  0  0  0  0  0  0  0  0  0
    6.3434   -3.0099   -1.0590 O   0  0  0  0  0  0  0  0  0  0  0  0
    6.3455   -3.3608    0.3147 C   0  0  1  0  0  0  0  0  0  0  0  0
    6.1669   -2.0677    1.1016 C   0  0  1  0  0  0  0  0  0  0  0  0
    6.9968   -1.0571    0.5330 O   0  0  0  0  0  0  0  0  0  0  0  0
    4.6847   -1.6710    1.3598 C   0  0  1  0  0  0  0  0  0  0  0  0
    4.7589   -0.3391    1.8442 O   0  0  0  0  0  0  0  0  0  0  0  0
    3.7415   -1.6392    0.1015 C   0  0  1  0  0  0  0  0  0  0  0  0
    4.2884   -0.9624   -1.1722 C   0  0  0  0  0  0  0  0  0  0  0  0
    4.6297   -1.5015   -2.3741 C   0  0  0  0  0  0  0  0  0  0  0  0
    2.9661   -2.9561   -0.1375 C   0  0  0  0  0  0  0  0  0  0  0  0
    3.8100   -4.2166   -0.1881 C   0  0  0  0  0  0  0  0  0  0  0  0
    4.7645   -4.5765   -0.9472 C   0  0  0  0  0  0  0  0  0  0  0  0
    5.2048   -4.3546    0.4679 C   0  0  1  0  0  0  0  0  0  0  0  0
    4.8719   -4.8932    1.8503 C   0  0  0  0  0  0  0  0  0  0  0  0
    4.6535   -3.7703    2.9058 C   0  0  0  0  0  0  0  0  0  0  0  0
    4.0610   -2.4868    2.4518 N   0  0  0  0  0  0  0  0  0  0  0  0
    3.1042   -1.8628    3.3626 C   0  0  0  0  0  0  0  0  0  0  0  0
    3.7256   -1.2217    4.5890 C   0  0  0  0  0  0  0  0  0  0  0  0
    3.7231   -1.9434    5.9143 C   0  0  0  0  0  0  0  0  0  0  0  0
    2.8392   -0.7376    5.7117 C   0  0  0  0  0  0  0  0  0  0  0  0
    3.5703   -4.3773   -3.0971 H   0  0  0  0  0  0  0  0  0  0  0  0
    7.2944   -3.8385    0.5649 H   0  0  0  0  0  0  0  0  0  0  0  0
    6.6154   -2.2204    2.0788 H   0  0  0  0  0  0  0  0  0  0  0  0
    7.1086   -0.3803    1.1842 H   0  0  0  0  0  0  0  0  0  0  0  0
    4.2451    0.2111    1.2719 H   0  0  0  0  0  0  0  0  0  0  0  0
    2.9329   -0.9652    0.3752 H   0  0  0  0  0  0  0  0  0  0  0  0
    4.3466    0.1088   -1.0893 H   0  0  0  0  0  0  0  0  0  0  0  0
    4.9540   -0.8189   -3.1427 H   0  0  0  0  0  0  0  0  0  0  0  0
    2.2892   -3.0979    0.7046 H   0  0  0  0  0  0  0  0  0  0  0  0
    2.3239   -2.8883   -1.0157 H   0  0  0  0  0  0  0  0  0  0  0  0
    3.9660   -5.4960    1.7900 H   0  0  0  0  0  0  0  0  0  0  0  0
    5.6468   -5.5817    2.1881 H   0  0  0  0  0  0  0  0  0  0  0  0
    3.9935   -4.1967    3.6637 H   0  0  0  0  0  0  0  0  0  0  0  0
    5.5862   -3.5833    3.4326 H   0  0  0  0  0  0  0  0  0  0  0  0
    2.4977   -1.1229    2.8346 H   0  0  0  0  0  0  0  0  0  0  0  0
    2.4092   -2.6274    3.7001 H   0  0  0  0  0  0  0  0  0  0  0  0
    4.5933   -0.6006    4.3838 H   0  0  0  0  0  0  0  0  0  0  0  0
    3.2542   -2.9251    5.9438 H   0  0  0  0  0  0  0  0  0  0  0  0
    4.6028   -1.8247    6.5434 H   0  0  0  0  0  0  0  0  0  0  0  0
    3.1270    0.1852    6.2126 H   0  0  0  0  0  0  0  0  0  0  0  0
    1.7678   -0.9012    5.6066 H   0  0  0  0  0  0  0  0  0  0  0  0
  1  2  1  0
  1 24  1  0
  2 12  1  0
  2  3  2  3
  3 15  1  0
  3  4  1  0
  4  5  1  0
  5 16  1  0
  5  6  1  0
  5 25  1  1
  6  7  1  0
  6  8  1  0
  6 26  1  1
  7 27  1  0
  8 19  1  0
  8  9  1  1
  8 10  1  0
  9 28  1  0
 10 11  1  0
 10 13  1  0
 10 29  1  1
 11 12  2  3
 11 30  1  0
 12 31  1  0
 13 14  1  0
 13 32  1  0
 13 33  1  0
 14 16  1  0
 14 15  2  0
 15 16  1  0
 16 17  1  1
 17 18  1  0
 17 34  1  0
 17 35  1  0
 18 19  1  0
 18 36  1  0
 18 37  1  0
 19 20  1  0
 20 21  1  0
 20 38  1  0
 20 39  1  0
 21 23  1  0
 21 22  1  0
 21 40  1  0
 22 23  1  0
 22 41  1  0
 22 42  1  0
 23 43  1  0
 23 44  1  0
M  END
>  <i_m_ct_stereo_status>  (344) 
1

>  <s_m_source_file>  (344) 
/var/tmp/pbs.5076255.sched01/tmpegbcst3k/90u3quomt0.sdf

>  <i_m_source_file_index>  (344) 
43

>  <i_lp_mmshare_version>  (344) 
48012

>  <i_f3d_flags>  (344) 
3

>  <s_epik_input>  (344) 
W0NIMl0xW0NIMl1bQ0hdMVtDSDJdTihbQ0gyXVtDSDJdMilbQ0BAXShbT0hdKShbQ0BASF0zW09IXSlbQ0BASF0oL1tDSF09W0NIXVxDPTRcW09IXSlbQ0gyXUM1PUM2QzRcT1tDQEBIXTNDMjU2

>  <s_epik_cmdline>  (344) 
J2VwaWtfcHl0aG9uJywgJy1waHQnLCAnMi4wJywgJy1waCcsICc3LjAnLCAnLXRuJywgJzgnLCAnLW1hJywgJzIwMCcsICctaW1hZScsICc8aW5maWxlLm1hZT4nLCAnLW9tYWUnLCAnPG91dGZpbGUubWFlPic=

>  <r_epik_Ionization_Penalty>  (344) 
0.0394939

>  <r_epik_Ionization_Penalty_Charging>  (344) 
0

>  <r_epik_Ionization_Penalty_Neutral>  (344) 
0.0394939

>  <r_epik_State_Penalty>  (344) 
0.0399976

>  <r_epik_Charging_Adjusted_Penalty>  (344) 
0.0399976

>  <i_epik_Tot_Q>  (344) 
0

>  <i_epik_Tot_abs_Q>  (344) 
0

>  <s_lp_Force_Field>  (344) 
OPLS3e

>  <r_lp_Energy>  (344) 
140.775

>  <b_lp_Chiralities_Consistent>  (344) 
0

>  <s_lp_Variant>  (344) 
83:0-4

>  <s_i_glide_gridfile>  (344) 
pfpi4k_grid

>  <i_i_glide_lignum>  (344) 
43

>  <i_i_glide_rotatable_bonds>  (344) 
5

>  <r_i_docking_score>  (344) 
-3.81138

>  <r_i_glide_ligand_efficiency>  (344) 
-0.165712

>  <r_i_glide_ligand_efficiency_sa>  (344) 
-0.471263

>  <r_i_glide_ligand_efficiency_ln>  (344) 
-0.921626

>  <r_i_glide_gscore>  (344) 
-3.81138

>  <r_i_glide_lipo>  (344) 
-0.461207

>  <r_i_glide_hbond>  (344) 
-0.30365

>  <r_i_glide_metal>  (344) 
-0

>  <r_i_glide_rewards>  (344) 
-1.30563

>  <r_i_glide_evdw>  (344) 
-19.0275

>  <r_i_glide_ecoul>  (344) 
-7.75722

>  <r_i_glide_erotb>  (344) 
0.374073

>  <r_i_glide_esite>  (344) 
0

>  <r_i_glide_emodel>  (344) 
-33.0751

>  <r_i_glide_energy>  (344) 
-26.7848

>  <r_i_glide_einternal>  (344) 
0.782795

>  <r_i_glide_intrahb_reward>  (344) 
-0

>  <i_i_glide_confnum>  (344) 
4

>  <i_i_glide_posenum>  (344) 
1

>  <r_i_glide_eff_state_penalty>  (344) 
0

>  <ligand_id>  (344) 
83

>  <original_smiles>  (344) 
OC1=C2OC3C(O)C4(O)C(C=C1)CC1=C2C13CCN4CC1CC1

>  <smiles>  (344) 
[H]OC1=C2OC3([H])C([H])(O[H])C4(O[H])N(C([H])([H])C5([H])C([H])([H])C5([H])[H])C([H])([H])C([H])([H])C35C2=C5C([H])([H])C4([H])C([H])=C1[H]

$$$$
83:3:2
     RDKit          3D

 44 49  0  0  1  0  0  0  0  0999 V2000
    3.4404   -2.5958   -3.4289 O   0  0  0  0  0  0  0  0  0  0  0  0
    4.5070   -2.1718   -2.7452 C   0  0  0  0  0  0  0  0  0  0  0  0
    5.4001   -3.0564   -2.2391 C   0  0  0  0  0  0  0  0  0  0  0  0
    6.4280   -2.5070   -1.5324 O   0  0  0  0  0  0  0  0  0  0  0  0
    6.7046   -3.2454   -0.3564 C   0  0  1  0  0  0  0  0  0  0  0  0
    6.5652   -2.2935    0.8130 C   0  0  1  0  0  0  0  0  0  0  0  0
    7.1980   -1.0595    0.4850 O   0  0  0  0  0  0  0  0  0  0  0  0
    5.1287   -2.1690    1.3820 C   0  0  1  0  0  0  0  0  0  0  0  0
    5.1834   -1.0457    2.2419 O   0  0  0  0  0  0  0  0  0  0  0  0
    3.9821   -1.8688    0.3573 C   0  0  1  0  0  0  0  0  0  0  0  0
    4.2440   -0.7875   -0.6986 C   0  0  0  0  0  0  0  0  0  0  0  0
    4.4196   -0.9030   -2.0467 C   0  0  0  0  0  0  0  0  0  0  0  0
    3.2838   -3.1426   -0.1754 C   0  0  0  0  0  0  0  0  0  0  0  0
    4.1733   -4.2320   -0.7317 C   0  0  0  0  0  0  0  0  0  0  0  0
    5.0153   -4.1996   -1.7026 C   0  0  0  0  0  0  0  0  0  0  0  0
    5.6771   -4.3568   -0.3588 C   0  0  1  0  0  0  0  0  0  0  0  0
    5.6364   -5.3313    0.8061 C   0  0  0  0  0  0  0  0  0  0  0  0
    5.5146   -4.6189    2.1853 C   0  0  0  0  0  0  0  0  0  0  0  0
    4.7655   -3.3362    2.2482 N   0  0  0  0  0  0  0  0  0  0  0  0
    3.9357   -3.1373    3.4349 C   0  0  0  0  0  0  0  0  0  0  0  0
    4.7045   -2.7833    4.6923 C   0  0  0  0  0  0  0  0  0  0  0  0
    5.1016   -3.8510    5.6803 C   0  0  0  0  0  0  0  0  0  0  0  0
    4.0263   -2.8554    6.0382 C   0  0  0  0  0  0  0  0  0  0  0  0
    2.7676   -1.9406   -3.3218 H   0  0  0  0  0  0  0  0  0  0  0  0
    7.7118   -3.6635   -0.4115 H   0  0  0  0  0  0  0  0  0  0  0  0
    7.1828   -2.6801    1.6112 H   0  0  0  0  0  0  0  0  0  0  0  0
    7.2293   -0.5244    1.2666 H   0  0  0  0  0  0  0  0  0  0  0  0
    4.6234   -0.3740    1.8856 H   0  0  0  0  0  0  0  0  0  0  0  0
    3.1796   -1.4190    0.9409 H   0  0  0  0  0  0  0  0  0  0  0  0
    4.2179    0.2044   -0.2841 H   0  0  0  0  0  0  0  0  0  0  0  0
    4.5533    0.0200   -2.5953 H   0  0  0  0  0  0  0  0  0  0  0  0
    2.7697   -3.6132    0.6637 H   0  0  0  0  0  0  0  0  0  0  0  0
    2.4898   -2.8957   -0.8844 H   0  0  0  0  0  0  0  0  0  0  0  0
    4.7779   -5.9992    0.6861 H   0  0  0  0  0  0  0  0  0  0  0  0
    6.5055   -5.9916    0.7955 H   0  0  0  0  0  0  0  0  0  0  0  0
    5.0340   -5.3338    2.8564 H   0  0  0  0  0  0  0  0  0  0  0  0
    6.5111   -4.4877    2.5982 H   0  0  0  0  0  0  0  0  0  0  0  0
    3.1753   -2.3767    3.2490 H   0  0  0  0  0  0  0  0  0  0  0  0
    3.3932   -4.0594    3.6292 H   0  0  0  0  0  0  0  0  0  0  0  0
    5.4047   -1.9624    4.5779 H   0  0  0  0  0  0  0  0  0  0  0  0
    4.8027   -4.8712    5.4512 H   0  0  0  0  0  0  0  0  0  0  0  0
    6.0724   -3.7423    6.1592 H   0  0  0  0  0  0  0  0  0  0  0  0
    4.2779   -2.0853    6.7652 H   0  0  0  0  0  0  0  0  0  0  0  0
    2.9950   -3.2022    6.0572 H   0  0  0  0  0  0  0  0  0  0  0  0
  1  2  1  0
  1 24  1  0
  2 12  1  0
  2  3  2  3
  3 15  1  0
  3  4  1  0
  4  5  1  0
  5 16  1  0
  5  6  1  0
  5 25  1  6
  6  7  1  0
  6  8  1  0
  6 26  1  1
  7 27  1  0
  8 19  1  0
  8  9  1  1
  8 10  1  0
  9 28  1  0
 10 11  1  0
 10 13  1  0
 10 29  1  1
 11 12  2  3
 11 30  1  0
 12 31  1  0
 13 14  1  0
 13 32  1  0
 13 33  1  0
 14 16  1  0
 14 15  2  0
 15 16  1  0
 16 17  1  6
 17 18  1  0
 17 34  1  0
 17 35  1  0
 18 19  1  0
 18 36  1  0
 18 37  1  0
 19 20  1  0
 20 21  1  0
 20 38  1  0
 20 39  1  0
 21 23  1  0
 21 22  1  0
 21 40  1  0
 22 23  1  0
 22 41  1  0
 22 42  1  0
 23 43  1  0
 23 44  1  0
M  END
>  <i_m_ct_stereo_status>  (345) 
1

>  <s_m_source_file>  (345) 
/var/tmp/pbs.5076255.sched01/tmpegbcst3k/90u3quomt0.sdf

>  <i_m_source_file_index>  (345) 
43

>  <i_lp_mmshare_version>  (345) 
48012

>  <i_f3d_flags>  (345) 
3

>  <s_epik_input>  (345) 
W0NIMl0xW0NIMl1bQ0hdMVtDSDJdTihbQ0gyXVtDSDJdMilbQ0BAXShbT0hdKShbQ0BASF0zW09IXSlbQ0BASF0oL1tDSF09W0NIXVxDPTRcW09IXSlbQ0gyXUM1PUM2QzRcT1tDQEBIXTNDMjU2

>  <s_epik_cmdline>  (345) 
J2VwaWtfcHl0aG9uJywgJy1waHQnLCAnMi4wJywgJy1waCcsICc3LjAnLCAnLXRuJywgJzgnLCAnLW1hJywgJzIwMCcsICctaW1hZScsICc8aW5maWxlLm1hZT4nLCAnLW9tYWUnLCAnPG91dGZpbGUubWFlPic=

>  <r_epik_Ionization_Penalty>  (345) 
0.0394939

>  <r_epik_Ionization_Penalty_Charging>  (345) 
0

>  <r_epik_Ionization_Penalty_Neutral>  (345) 
0.0394939

>  <r_epik_State_Penalty>  (345) 
0.0399976

>  <r_epik_Charging_Adjusted_Penalty>  (345) 
0.0399976

>  <i_epik_Tot_Q>  (345) 
0

>  <i_epik_Tot_abs_Q>  (345) 
0

>  <s_lp_Force_Field>  (345) 
OPLS3e

>  <r_lp_Energy>  (345) 
140.775

>  <b_lp_Chiralities_Consistent>  (345) 
0

>  <s_lp_Variant>  (345) 
83:0-4

>  <s_i_glide_gridfile>  (345) 
pfpi4k_grid

>  <i_i_glide_lignum>  (345) 
43

>  <i_i_glide_rotatable_bonds>  (345) 
5

>  <r_i_docking_score>  (345) 
-3.26632

>  <r_i_glide_ligand_efficiency>  (345) 
-0.142014

>  <r_i_glide_ligand_efficiency_sa>  (345) 
-0.403869

>  <r_i_glide_ligand_efficiency_ln>  (345) 
-0.789826

>  <r_i_glide_gscore>  (345) 
-3.26632

>  <r_i_glide_lipo>  (345) 
-0.625131

>  <r_i_glide_hbond>  (345) 
-0.0455319

>  <r_i_glide_metal>  (345) 
-0

>  <r_i_glide_rewards>  (345) 
-1.32819

>  <r_i_glide_evdw>  (345) 
-19.7359

>  <r_i_glide_ecoul>  (345) 
-4.36494

>  <r_i_glide_erotb>  (345) 
0.374073

>  <r_i_glide_esite>  (345) 
0

>  <r_i_glide_emodel>  (345) 
-29.3703

>  <r_i_glide_energy>  (345) 
-24.1009

>  <r_i_glide_einternal>  (345) 
0.521125

>  <r_i_glide_intrahb_reward>  (345) 
-0

>  <i_i_glide_confnum>  (345) 
1

>  <i_i_glide_posenum>  (345) 
13

>  <r_i_glide_eff_state_penalty>  (345) 
0

>  <ligand_id>  (345) 
83

>  <original_smiles>  (345) 
OC1=C2OC3C(O)C4(O)C(C=C1)CC1=C2C13CCN4CC1CC1

>  <smiles>  (345) 
[H]OC1=C2OC3([H])C([H])(O[H])C4(O[H])N(C([H])([H])C5([H])C([H])([H])C5([H])[H])C([H])([H])C([H])([H])C35C2=C5C([H])([H])C4([H])C([H])=C1[H]

$$$$
83:4:0
     RDKit          3D

 45 50  0  0  1  0  0  0  0  0999 V2000
    4.2403   -5.6877    4.0242 O   0  0  0  0  0  0  0  0  0  0  0  0
    5.0344   -5.3149    2.9984 C   0  0  0  0  0  0  0  0  0  0  0  0
    5.3524   -4.0092    2.9104 C   0  0  0  0  0  0  0  0  0  0  0  0
    4.3644   -3.1605    3.3296 O   0  0  0  0  0  0  0  0  0  0  0  0
    4.0889   -2.2618    2.2225 C   0  0  2  0  0  0  0  0  0  0  0  0
    2.9333   -2.9029    1.3563 C   0  0  1  0  0  0  0  0  0  0  0  0
    1.8547   -1.9645    1.3079 O   0  0  0  0  0  0  0  0  0  0  0  0
    3.3229   -3.5149   -0.0912 C   0  0  2  0  0  0  0  0  0  0  0  0
    2.1499   -4.1292   -0.6198 O   0  0  0  0  0  0  0  0  0  0  0  0
    4.4808   -4.6266   -0.0818 C   0  0  1  0  0  0  0  0  0  0  0  0
    4.6100   -6.0187    0.5957 C   0  0  0  0  0  0  0  0  0  0  0  0
    5.0254   -6.2802    1.8804 C   0  0  0  0  0  0  0  0  0  0  0  0
    5.8841   -4.1064   -0.2945 C   0  0  0  0  0  0  0  0  0  0  0  0
    6.3490   -3.2508    0.8319 C   0  0  0  0  0  0  0  0  0  0  0  0
    6.0843   -3.2885    2.0530 C   0  0  0  0  0  0  0  0  0  0  0  0
    5.4403   -2.0881    1.4960 C   0  0  2  0  0  0  0  0  0  0  0  0
    5.4561   -1.1478    0.3088 C   0  0  0  0  0  0  0  0  0  0  0  0
    4.1553   -1.1178   -0.5086 C   0  0  0  0  0  0  0  0  0  0  0  0
    3.5062   -2.3655   -1.0611 N   0  0  1  0  0  0  0  0  0  0  0  0
    3.8336   -2.6487   -2.5002 C   0  0  0  0  0  0  0  0  0  0  0  0
    3.0979   -1.7286   -3.4927 C   0  0  0  0  0  0  0  0  0  0  0  0
    3.8522   -1.1087   -4.6589 C   0  0  0  0  0  0  0  0  0  0  0  0
    3.3445   -0.2287   -3.5689 C   0  0  0  0  0  0  0  0  0  0  0  0
    4.1294   -4.9359    4.5877 H   0  0  0  0  0  0  0  0  0  0  0  0
    3.7802   -1.3037    2.6355 H   0  0  0  0  0  0  0  0  0  0  0  0
    2.5108   -3.7020    1.9637 H   0  0  0  0  0  0  0  0  0  0  0  0
    1.7151   -1.5980    0.4396 H   0  0  0  0  0  0  0  0  0  0  0  0
    2.3930   -4.8018   -1.2490 H   0  0  0  0  0  0  0  0  0  0  0  0
    4.2656   -4.4879    0.9111 H   0  0  0  0  0  0  0  0  0  0  0  0
    4.5944   -6.8630   -0.0712 H   0  0  0  0  0  0  0  0  0  0  0  0
    5.2215   -7.3063    2.1498 H   0  0  0  0  0  0  0  0  0  0  0  0
    6.5945   -4.9278   -0.3277 H   0  0  0  0  0  0  0  0  0  0  0  0
    5.9748   -3.5912   -1.2503 H   0  0  0  0  0  0  0  0  0  0  0  0
    5.5859   -0.1447    0.7061 H   0  0  0  0  0  0  0  0  0  0  0  0
    6.3474   -1.2514   -0.3057 H   0  0  0  0  0  0  0  0  0  0  0  0
    3.4001   -0.5327    0.0066 H   0  0  0  0  0  0  0  0  0  0  0  0
    4.4935   -0.4814   -1.3054 H   0  0  0  0  0  0  0  0  0  0  0  0
    4.8942   -2.4976   -2.6738 H   0  0  0  0  0  0  0  0  0  0  0  0
    3.6305   -3.6937   -2.7865 H   0  0  0  0  0  0  0  0  0  0  0  0
    2.0920   -2.0553   -3.7507 H   0  0  0  0  0  0  0  0  0  0  0  0
    4.9276   -1.2529   -4.6901 H   0  0  0  0  0  0  0  0  0  0  0  0
    3.4092   -0.9220   -5.6305 H   0  0  0  0  0  0  0  0  0  0  0  0
    2.4846    0.4009   -3.7695 H   0  0  0  0  0  0  0  0  0  0  0  0
    4.1676    0.2893   -3.0721 H   0  0  0  0  0  0  0  0  0  0  0  0
    2.5412   -2.0642   -1.1587 H   0  0  0  0  0  0  0  0  0  0  0  0
  1  2  1  0
  1 24  1  0
  2 12  1  0
  2  3  2  3
  3 15  1  0
  3  4  1  0
  4  5  1  0
  5 16  1  0
  5  6  1  0
  5 25  1  1
  6  7  1  0
  6  8  1  0
  6 26  1  1
  7 27  1  0
  8 19  1  0
  8  9  1  6
  8 10  1  0
  9 28  1  0
 10 11  1  0
 10 13  1  0
 10 29  1  6
 11 12  2  3
 11 30  1  0
 12 31  1  0
 13 14  1  0
 13 32  1  0
 13 33  1  0
 14 16  1  0
 14 15  2  0
 15 16  1  0
 16 17  1  1
 17 18  1  0
 17 34  1  0
 17 35  1  0
 18 19  1  0
 18 36  1  0
 18 37  1  0
 19 20  1  0
 19 45  1  6
 20 21  1  0
 20 38  1  0
 20 39  1  0
 21 23  1  0
 21 22  1  0
 21 40  1  0
 22 23  1  0
 22 41  1  0
 22 42  1  0
 23 43  1  0
 23 44  1  0
M  CHG  1  19   1
M  END
>  <i_m_ct_stereo_status>  (346) 
1

>  <s_m_source_file>  (346) 
/var/tmp/pbs.5076255.sched01/tmpegbcst3k/90u3quomt0.sdf

>  <i_m_source_file_index>  (346) 
44

>  <i_lp_mmshare_version>  (346) 
48012

>  <i_f3d_flags>  (346) 
0

>  <s_epik_input>  (346) 
W0NIMl0xW0NIMl1bQ0hdMVtDSDJdTihbQ0gyXVtDSDJdMilbQ0BAXShbT0hdKShbQ0BASF0zW09IXSlbQ0BASF0oL1tDSF09W0NIXVxDPTRcW09IXSlbQ0gyXUM1PUM2QzRcT1tDQEBIXTNDMjU2

>  <s_epik_cmdline>  (346) 
J2VwaWtfcHl0aG9uJywgJy1waHQnLCAnMi4wJywgJy1waCcsICc3LjAnLCAnLXRuJywgJzgnLCAnLW1hJywgJzIwMCcsICctaW1hZScsICc8aW5maWxlLm1hZT4nLCAnLW9tYWUnLCAnPG91dGZpbGUubWFlPic=

>  <r_epik_Ionization_Penalty>  (346) 
1.75538

>  <r_epik_Ionization_Penalty_Charging>  (346) 
1.62539

>  <r_epik_Ionization_Penalty_Neutral>  (346) 
0.129993

>  <r_epik_State_Penalty>  (346) 
1.73236

>  <r_epik_Charging_Adjusted_Penalty>  (346) 
3.35775

>  <i_epik_Tot_Q>  (346) 
1

>  <i_epik_Tot_abs_Q>  (346) 
1

>  <s_lp_Force_Field>  (346) 
OPLS3e

>  <r_lp_Energy>  (346) 
211.923

>  <b_lp_Chiralities_Consistent>  (346) 
1

>  <s_lp_Variant>  (346) 
83:0-5

>  <s_i_glide_gridfile>  (346) 
pfpi4k_grid

>  <i_i_glide_lignum>  (346) 
44

>  <i_i_glide_rotatable_bonds>  (346) 
5

>  <r_i_docking_score>  (346) 
-4.39182

>  <r_i_glide_ligand_efficiency>  (346) 
-0.190949

>  <r_i_glide_ligand_efficiency_sa>  (346) 
-0.543032

>  <r_i_glide_ligand_efficiency_ln>  (346) 
-1.06198

>  <r_i_glide_gscore>  (346) 
-4.39182

>  <r_i_glide_lipo>  (346) 
-0.866781

>  <r_i_glide_hbond>  (346) 
-0.152117

>  <r_i_glide_metal>  (346) 
-0

>  <r_i_glide_rewards>  (346) 
-1.25952

>  <r_i_glide_evdw>  (346) 
-18.9896

>  <r_i_glide_ecoul>  (346) 
-9.13208

>  <r_i_glide_erotb>  (346) 
0.260385

>  <r_i_glide_esite>  (346) 
-0.054487

>  <r_i_glide_emodel>  (346) 
-33.0057

>  <r_i_glide_energy>  (346) 
-28.1217

>  <r_i_glide_einternal>  (346) 
3.60787

>  <r_i_glide_intrahb_reward>  (346) 
-0

>  <i_i_glide_confnum>  (346) 
3

>  <i_i_glide_posenum>  (346) 
16

>  <r_i_glide_eff_state_penalty>  (346) 
0

>  <ligand_id>  (346) 
83

>  <original_smiles>  (346) 
OC1=C2OC3C(O)C4(O)C(C=C1)CC1=C2C13CCN4CC1CC1

>  <smiles>  (346) 
[H]OC1=C2OC3([H])C([H])(O[H])C4(O[H])C([H])(C([H])=C1[H])C([H])([H])C1=C2C13C([H])([H])C([H])([H])[N+]4([H])C([H])([H])C1([H])C([H])([H])C1([H])[H]

$$$$
83:4:1
     RDKit          3D

 45 50  0  0  1  0  0  0  0  0999 V2000
    4.6117   -4.0305   -4.2563 O   0  0  0  0  0  0  0  0  0  0  0  0
    4.3314   -3.0231   -3.4262 C   0  0  0  0  0  0  0  0  0  0  0  0
    5.3675   -2.5396   -2.6886 C   0  0  0  0  0  0  0  0  0  0  0  0
    6.2949   -3.4671   -2.3317 O   0  0  0  0  0  0  0  0  0  0  0  0
    6.4012   -3.4428   -0.8838 C   0  0  2  0  0  0  0  0  0  0  0  0
    5.3971   -4.5009   -0.3038 C   0  0  1  0  0  0  0  0  0  0  0  0
    6.0551   -5.4630    0.5075 O   0  0  0  0  0  0  0  0  0  0  0  0
    4.0822   -3.9301    0.4040 C   0  0  2  0  0  0  0  0  0  0  0  0
    3.3215   -5.0854    0.6672 O   0  0  0  0  0  0  0  0  0  0  0  0
    3.1740   -2.9275   -0.4449 C   0  0  1  0  0  0  0  0  0  0  0  0
    2.4177   -3.0900   -1.7972 C   0  0  0  0  0  0  0  0  0  0  0  0
    2.9140   -2.9362   -3.0638 C   0  0  0  0  0  0  0  0  0  0  0  0
    3.4710   -1.4447   -0.2901 C   0  0  0  0  0  0  0  0  0  0  0  0
    4.8229   -1.0970   -0.8167 C   0  0  0  0  0  0  0  0  0  0  0  0
    5.4817   -1.5817   -1.7415 C   0  0  0  0  0  0  0  0  0  0  0  0
    6.1297   -1.9794   -0.4911 C   0  0  2  0  0  0  0  0  0  0  0  0
    6.2197   -1.6402    0.9959 C   0  0  0  0  0  0  0  0  0  0  0  0
    5.7599   -2.7440    1.9931 C   0  0  0  0  0  0  0  0  0  0  0  0
    4.4302   -3.4511    1.8102 N   0  0  1  0  0  0  0  0  0  0  0  0
    3.3761   -2.9361    2.7596 C   0  0  0  0  0  0  0  0  0  0  0  0
    2.2263   -3.8718    3.0856 C   0  0  0  0  0  0  0  0  0  0  0  0
    1.2729   -3.5221    4.2084 C   0  0  0  0  0  0  0  0  0  0  0  0
    2.2288   -4.6736    4.3673 C   0  0  0  0  0  0  0  0  0  0  0  0
    5.5182   -4.2752   -4.1054 H   0  0  0  0  0  0  0  0  0  0  0  0
    7.4289   -3.7013   -0.6191 H   0  0  0  0  0  0  0  0  0  0  0  0
    5.0678   -5.1034   -1.1575 H   0  0  0  0  0  0  0  0  0  0  0  0
    6.4318   -5.0461    1.2638 H   0  0  0  0  0  0  0  0  0  0  0  0
    3.2852   -5.5932   -0.1304 H   0  0  0  0  0  0  0  0  0  0  0  0
    3.8451   -3.3066   -1.1231 H   0  0  0  0  0  0  0  0  0  0  0  0
    1.3368   -3.0821   -1.7246 H   0  0  0  0  0  0  0  0  0  0  0  0
    2.2109   -2.9158   -3.8852 H   0  0  0  0  0  0  0  0  0  0  0  0
    2.7740   -0.8359   -0.8521 H   0  0  0  0  0  0  0  0  0  0  0  0
    3.3816   -1.1127    0.7309 H   0  0  0  0  0  0  0  0  0  0  0  0
    7.2826   -1.4768    1.1941 H   0  0  0  0  0  0  0  0  0  0  0  0
    5.7969   -0.6609    1.2311 H   0  0  0  0  0  0  0  0  0  0  0  0
    6.5395   -3.4959    2.0302 H   0  0  0  0  0  0  0  0  0  0  0  0
    5.8105   -2.2970    2.9800 H   0  0  0  0  0  0  0  0  0  0  0  0
    3.8712   -2.7688    3.7124 H   0  0  0  0  0  0  0  0  0  0  0  0
    2.9814   -1.9587    2.5217 H   0  0  0  0  0  0  0  0  0  0  0  0
    1.6965   -4.2841    2.2334 H   0  0  0  0  0  0  0  0  0  0  0  0
    1.4563   -2.6201    4.7914 H   0  0  0  0  0  0  0  0  0  0  0  0
    0.2231   -3.7777    4.0737 H   0  0  0  0  0  0  0  0  0  0  0  0
    1.8225   -5.6820    4.3165 H   0  0  0  0  0  0  0  0  0  0  0  0
    3.0687   -4.5435    5.0471 H   0  0  0  0  0  0  0  0  0  0  0  0
    4.6227   -4.3465    2.2397 H   0  0  0  0  0  0  0  0  0  0  0  0
  1  2  1  0
  1 24  1  0
  2 12  1  0
  2  3  2  3
  3 15  1  0
  3  4  1  0
  4  5  1  0
  5 16  1  0
  5  6  1  0
  5 25  1  6
  6  7  1  0
  6  8  1  0
  6 26  1  6
  7 27  1  0
  8 19  1  0
  8  9  1  1
  8 10  1  0
  9 28  1  0
 10 11  1  0
 10 13  1  0
 10 29  1  1
 11 12  2  3
 11 30  1  0
 12 31  1  0
 13 14  1  0
 13 32  1  0
 13 33  1  0
 14 16  1  0
 14 15  2  0
 15 16  1  0
 16 17  1  6
 17 18  1  0
 17 34  1  0
 17 35  1  0
 18 19  1  0
 18 36  1  0
 18 37  1  0
 19 20  1  0
 19 45  1  1
 20 21  1  0
 20 38  1  0
 20 39  1  0
 21 23  1  0
 21 22  1  0
 21 40  1  0
 22 23  1  0
 22 41  1  0
 22 42  1  0
 23 43  1  0
 23 44  1  0
M  CHG  1  19   1
M  END
>  <i_m_ct_stereo_status>  (347) 
1

>  <s_m_source_file>  (347) 
/var/tmp/pbs.5076255.sched01/tmpegbcst3k/90u3quomt0.sdf

>  <i_m_source_file_index>  (347) 
44

>  <i_lp_mmshare_version>  (347) 
48012

>  <i_f3d_flags>  (347) 
0

>  <s_epik_input>  (347) 
W0NIMl0xW0NIMl1bQ0hdMVtDSDJdTihbQ0gyXVtDSDJdMilbQ0BAXShbT0hdKShbQ0BASF0zW09IXSlbQ0BASF0oL1tDSF09W0NIXVxDPTRcW09IXSlbQ0gyXUM1PUM2QzRcT1tDQEBIXTNDMjU2

>  <s_epik_cmdline>  (347) 
J2VwaWtfcHl0aG9uJywgJy1waHQnLCAnMi4wJywgJy1waCcsICc3LjAnLCAnLXRuJywgJzgnLCAnLW1hJywgJzIwMCcsICctaW1hZScsICc8aW5maWxlLm1hZT4nLCAnLW9tYWUnLCAnPG91dGZpbGUubWFlPic=

>  <r_epik_Ionization_Penalty>  (347) 
1.75538

>  <r_epik_Ionization_Penalty_Charging>  (347) 
1.62539

>  <r_epik_Ionization_Penalty_Neutral>  (347) 
0.129993

>  <r_epik_State_Penalty>  (347) 
1.73236

>  <r_epik_Charging_Adjusted_Penalty>  (347) 
3.35775

>  <i_epik_Tot_Q>  (347) 
1

>  <i_epik_Tot_abs_Q>  (347) 
1

>  <s_lp_Force_Field>  (347) 
OPLS3e

>  <r_lp_Energy>  (347) 
211.923

>  <b_lp_Chiralities_Consistent>  (347) 
1

>  <s_lp_Variant>  (347) 
83:0-5

>  <s_i_glide_gridfile>  (347) 
pfpi4k_grid

>  <i_i_glide_lignum>  (347) 
44

>  <i_i_glide_rotatable_bonds>  (347) 
5

>  <r_i_docking_score>  (347) 
-3.53634

>  <r_i_glide_ligand_efficiency>  (347) 
-0.153754

>  <r_i_glide_ligand_efficiency_sa>  (347) 
-0.437256

>  <r_i_glide_ligand_efficiency_ln>  (347) 
-0.85512

>  <r_i_glide_gscore>  (347) 
-3.53634

>  <r_i_glide_lipo>  (347) 
-0.756866

>  <r_i_glide_hbond>  (347) 
0

>  <r_i_glide_metal>  (347) 
-0

>  <r_i_glide_rewards>  (347) 
-1.28352

>  <r_i_glide_evdw>  (347) 
-25.2693

>  <r_i_glide_ecoul>  (347) 
-4.0298

>  <r_i_glide_erotb>  (347) 
0.371978

>  <r_i_glide_esite>  (347) 
0

>  <r_i_glide_emodel>  (347) 
-35.9526

>  <r_i_glide_energy>  (347) 
-29.2991

>  <r_i_glide_einternal>  (347) 
0.67455

>  <r_i_glide_intrahb_reward>  (347) 
-0

>  <i_i_glide_confnum>  (347) 
4

>  <i_i_glide_posenum>  (347) 
11

>  <r_i_glide_eff_state_penalty>  (347) 
0

>  <ligand_id>  (347) 
83

>  <original_smiles>  (347) 
OC1=C2OC3C(O)C4(O)C(C=C1)CC1=C2C13CCN4CC1CC1

>  <smiles>  (347) 
[H]OC1=C2OC3([H])C([H])(O[H])C4(O[H])C([H])(C([H])=C1[H])C([H])([H])C1=C2C13C([H])([H])C([H])([H])[N+]4([H])C([H])([H])C1([H])C([H])([H])C1([H])[H]

$$$$
83:4:2
     RDKit          3D

 45 50  0  0  1  0  0  0  0  0999 V2000
   -2.2038    4.9084    2.8767 O   0  0  0  0  0  0  0  0  0  0  0  0
   -1.9832    3.8152    3.6046 C   0  0  0  0  0  0  0  0  0  0  0  0
   -1.1843    3.9968    4.6982 C   0  0  0  0  0  0  0  0  0  0  0  0
   -0.2375    4.9623    4.5242 O   0  0  0  0  0  0  0  0  0  0  0  0
    1.0540    4.3500    4.7611 C   0  0  2  0  0  0  0  0  0  0  0  0
    1.6246    3.8539    3.3953 C   0  0  1  0  0  0  0  0  0  0  0  0
    2.9190    4.3772    3.1478 O   0  0  0  0  0  0  0  0  0  0  0  0
    1.5915    2.2793    3.1476 C   0  0  2  0  0  0  0  0  0  0  0  0
    1.9600    2.1503    1.8112 O   0  0  0  0  0  0  0  0  0  0  0  0
    0.2004    1.5143    3.3104 C   0  0  1  0  0  0  0  0  0  0  0  0
   -1.1591    1.6676    2.5729 C   0  0  0  0  0  0  0  0  0  0  0  0
   -2.1574    2.5590    2.8699 C   0  0  0  0  0  0  0  0  0  0  0  0
   -0.1153    0.9314    4.6787 C   0  0  0  0  0  0  0  0  0  0  0  0
   -0.2594    2.0004    5.7135 C   0  0  0  0  0  0  0  0  0  0  0  0
   -0.6602    3.1708    5.6300 C   0  0  0  0  0  0  0  0  0  0  0  0
    0.7898    3.2350    5.7930 C   0  0  2  0  0  0  0  0  0  0  0  0
    2.0064    2.4504    6.2784 C   0  0  0  0  0  0  0  0  0  0  0  0
    3.1230    2.1836    5.2316 C   0  0  0  0  0  0  0  0  0  0  0  0
    2.7775    1.6433    3.8598 N   0  0  1  0  0  0  0  0  0  0  0  0
    3.0837    0.1723    3.7366 C   0  0  0  0  0  0  0  0  0  0  0  0
    3.1967   -0.3932    2.3368 C   0  0  0  0  0  0  0  0  0  0  0  0
    3.9051   -1.7125    2.1073 C   0  0  0  0  0  0  0  0  0  0  0  0
    4.5315   -0.4276    1.6348 C   0  0  0  0  0  0  0  0  0  0  0  0
   -2.3728    4.6281    1.9939 H   0  0  0  0  0  0  0  0  0  0  0  0
    1.7149    5.1088    5.1992 H   0  0  0  0  0  0  0  0  0  0  0  0
    1.0182    4.3386    2.6297 H   0  0  0  0  0  0  0  0  0  0  0  0
    3.1149    4.2463    2.2280 H   0  0  0  0  0  0  0  0  0  0  0  0
    1.4118    2.7438    1.3093 H   0  0  0  0  0  0  0  0  0  0  0  0
   -0.0295    2.5151    3.3379 H   0  0  0  0  0  0  0  0  0  0  0  0
   -1.4448    0.8418    1.9334 H   0  0  0  0  0  0  0  0  0  0  0  0
   -3.1111    2.4266    2.3840 H   0  0  0  0  0  0  0  0  0  0  0  0
   -1.0253    0.3515    4.6463 H   0  0  0  0  0  0  0  0  0  0  0  0
    0.6519    0.2412    4.9760 H   0  0  0  0  0  0  0  0  0  0  0  0
    2.4645    3.0571    7.0665 H   0  0  0  0  0  0  0  0  0  0  0  0
    1.7232    1.5545    6.8290 H   0  0  0  0  0  0  0  0  0  0  0  0
    3.6784    3.1036    5.0989 H   0  0  0  0  0  0  0  0  0  0  0  0
    3.8420    1.5321    5.7115 H   0  0  0  0  0  0  0  0  0  0  0  0
    4.0603    0.0220    4.1809 H   0  0  0  0  0  0  0  0  0  0  0  0
    2.4584   -0.4762    4.3312 H   0  0  0  0  0  0  0  0  0  0  0  0
    2.3024   -0.2992    1.7291 H   0  0  0  0  0  0  0  0  0  0  0  0
    4.3651   -2.2186    2.9547 H   0  0  0  0  0  0  0  0  0  0  0  0
    3.5180   -2.3753    1.3343 H   0  0  0  0  0  0  0  0  0  0  0  0
    4.5306   -0.2208    0.5661 H   0  0  0  0  0  0  0  0  0  0  0  0
    5.3956   -0.0566    2.1819 H   0  0  0  0  0  0  0  0  0  0  0  0
    3.5331    2.0373    3.3091 H   0  0  0  0  0  0  0  0  0  0  0  0
  1  2  1  0
  1 24  1  0
  2 12  1  0
  2  3  2  3
  3 15  1  0
  3  4  1  0
  4  5  1  0
  5 16  1  0
  5  6  1  0
  5 25  1  1
  6  7  1  0
  6  8  1  0
  6 26  1  6
  7 27  1  0
  8 19  1  0
  8  9  1  6
  8 10  1  0
  9 28  1  0
 10 11  1  0
 10 13  1  0
 10 29  1  6
 11 12  2  3
 11 30  1  0
 12 31  1  0
 13 14  1  0
 13 32  1  0
 13 33  1  0
 14 16  1  0
 14 15  2  0
 15 16  1  0
 16 17  1  1
 17 18  1  0
 17 34  1  0
 17 35  1  0
 18 19  1  0
 18 36  1  0
 18 37  1  0
 19 20  1  0
 19 45  1  6
 20 21  1  0
 20 38  1  0
 20 39  1  0
 21 23  1  0
 21 22  1  0
 21 40  1  0
 22 23  1  0
 22 41  1  0
 22 42  1  0
 23 43  1  0
 23 44  1  0
M  CHG  1  19   1
M  END
>  <i_m_ct_stereo_status>  (348) 
1

>  <s_m_source_file>  (348) 
/var/tmp/pbs.5076255.sched01/tmpegbcst3k/90u3quomt0.sdf

>  <i_m_source_file_index>  (348) 
44

>  <i_lp_mmshare_version>  (348) 
48012

>  <i_f3d_flags>  (348) 
0

>  <s_epik_input>  (348) 
W0NIMl0xW0NIMl1bQ0hdMVtDSDJdTihbQ0gyXVtDSDJdMilbQ0BAXShbT0hdKShbQ0BASF0zW09IXSlbQ0BASF0oL1tDSF09W0NIXVxDPTRcW09IXSlbQ0gyXUM1PUM2QzRcT1tDQEBIXTNDMjU2

>  <s_epik_cmdline>  (348) 
J2VwaWtfcHl0aG9uJywgJy1waHQnLCAnMi4wJywgJy1waCcsICc3LjAnLCAnLXRuJywgJzgnLCAnLW1hJywgJzIwMCcsICctaW1hZScsICc8aW5maWxlLm1hZT4nLCAnLW9tYWUnLCAnPG91dGZpbGUubWFlPic=

>  <r_epik_Ionization_Penalty>  (348) 
1.75538

>  <r_epik_Ionization_Penalty_Charging>  (348) 
1.62539

>  <r_epik_Ionization_Penalty_Neutral>  (348) 
0.129993

>  <r_epik_State_Penalty>  (348) 
1.73236

>  <r_epik_Charging_Adjusted_Penalty>  (348) 
3.35775

>  <i_epik_Tot_Q>  (348) 
1

>  <i_epik_Tot_abs_Q>  (348) 
1

>  <s_lp_Force_Field>  (348) 
OPLS3e

>  <r_lp_Energy>  (348) 
211.923

>  <b_lp_Chiralities_Consistent>  (348) 
1

>  <s_lp_Variant>  (348) 
83:0-5

>  <s_i_glide_gridfile>  (348) 
pfpi4k_grid

>  <i_i_glide_lignum>  (348) 
44

>  <i_i_glide_rotatable_bonds>  (348) 
5

>  <r_i_docking_score>  (348) 
-3.31691

>  <r_i_glide_ligand_efficiency>  (348) 
-0.144214

>  <r_i_glide_ligand_efficiency_sa>  (348) 
-0.410124

>  <r_i_glide_ligand_efficiency_ln>  (348) 
-0.802059

>  <r_i_glide_gscore>  (348) 
-3.31691

>  <r_i_glide_lipo>  (348) 
-0.122527

>  <r_i_glide_hbond>  (348) 
0

>  <r_i_glide_metal>  (348) 
-0

>  <r_i_glide_rewards>  (348) 
-1.25201

>  <r_i_glide_evdw>  (348) 
-19.6013

>  <r_i_glide_ecoul>  (348) 
-8.58943

>  <r_i_glide_erotb>  (348) 
0.371978

>  <r_i_glide_esite>  (348) 
-0.0458703

>  <r_i_glide_emodel>  (348) 
-34.1746

>  <r_i_glide_energy>  (348) 
-28.1907

>  <r_i_glide_einternal>  (348) 
1.20904

>  <r_i_glide_intrahb_reward>  (348) 
-0

>  <i_i_glide_confnum>  (348) 
5

>  <i_i_glide_posenum>  (348) 
26

>  <r_i_glide_eff_state_penalty>  (348) 
0

>  <ligand_id>  (348) 
83

>  <original_smiles>  (348) 
OC1=C2OC3C(O)C4(O)C(C=C1)CC1=C2C13CCN4CC1CC1

>  <smiles>  (348) 
[H]OC1=C2OC3([H])C([H])(O[H])C4(O[H])C([H])(C([H])=C1[H])C([H])([H])C1=C2C13C([H])([H])C([H])([H])[N+]4([H])C([H])([H])C1([H])C([H])([H])C1([H])[H]

$$$$
83:5:0
     RDKit          3D

 45 50  0  0  1  0  0  0  0  0999 V2000
    3.9069   -3.8421   -4.0486 O   0  0  0  0  0  0  0  0  0  0  0  0
    3.6161   -3.0553   -3.0075 C   0  0  0  0  0  0  0  0  0  0  0  0
    3.7293   -3.5339   -1.7549 C   0  0  0  0  0  0  0  0  0  0  0  0
    3.5726   -2.7492   -0.6856 O   0  0  0  0  0  0  0  0  0  0  0  0
    4.7266   -2.9448    0.4078 C   0  0  2  0  0  0  0  0  0  0  0  0
    5.3949   -1.7885    1.1966 C   0  0  1  0  0  0  0  0  0  0  0  0
    6.7980   -1.6021    1.0869 O   0  0  0  0  0  0  0  0  0  0  0  0
    4.5353   -0.8378    0.4484 C   0  0  1  0  0  0  0  0  0  0  0  0
    4.7933    0.4544    0.8889 O   0  0  0  0  0  0  0  0  0  0  0  0
    5.0717   -0.9303   -1.1554 C   0  0  1  0  0  0  0  0  0  0  0  0
    4.2557   -0.6696   -2.4572 C   0  0  0  0  0  0  0  0  0  0  0  0
    3.6065   -1.5948   -3.2339 C   0  0  0  0  0  0  0  0  0  0  0  0
    6.0490   -2.2600   -1.5387 C   0  0  0  0  0  0  0  0  0  0  0  0
    5.6957   -3.7916   -1.0350 C   0  0  0  0  0  0  0  0  0  0  0  0
    4.6184   -4.4130   -1.3123 C   0  0  0  0  0  0  0  0  0  0  0  0
    4.7837   -4.2694    0.2087 C   0  0  1  0  0  0  0  0  0  0  0  0
    3.2238   -4.1425    0.9875 C   0  0  0  0  0  0  0  0  0  0  0  0
    2.6759   -2.6100    1.6358 C   0  0  0  0  0  0  0  0  0  0  0  0
    3.0401   -1.1580    1.0025 N   0  0  1  0  0  0  0  0  0  0  0  0
    2.4166   -0.0503    1.8067 C   0  0  0  0  0  0  0  0  0  0  0  0
    0.9654   -0.2851    2.1726 C   0  0  0  0  0  0  0  0  0  0  0  0
    0.2315    0.6737    3.0811 C   0  0  0  0  0  0  0  0  0  0  0  0
    0.5787   -0.7098    3.5722 C   0  0  0  0  0  0  0  0  0  0  0  0
    3.9332   -4.7249   -3.7014 H   0  0  0  0  0  0  0  0  0  0  0  0
    4.9739   -3.3026    1.4369 H   0  0  0  0  0  0  0  0  0  0  0  0
    5.1495   -1.6864    2.2671 H   0  0  0  0  0  0  0  0  0  0  0  0
    7.0221   -0.7651    1.4677 H   0  0  0  0  0  0  0  0  0  0  0  0
    5.0507    1.0072    0.1590 H   0  0  0  0  0  0  0  0  0  0  0  0
    3.9976   -0.7788   -1.1430 H   0  0  0  0  0  0  0  0  0  0  0  0
    4.1947    0.3679   -2.7658 H   0  0  0  0  0  0  0  0  0  0  0  0
    3.0654   -1.2301   -4.0924 H   0  0  0  0  0  0  0  0  0  0  0  0
    6.1886   -2.3244   -2.6179 H   0  0  0  0  0  0  0  0  0  0  0  0
    7.0683   -2.0633   -1.2214 H   0  0  0  0  0  0  0  0  0  0  0  0
    2.4491   -4.5861    0.3575 H   0  0  0  0  0  0  0  0  0  0  0  0
    3.2409   -4.8333    1.8223 H   0  0  0  0  0  0  0  0  0  0  0  0
    1.5957   -2.6852    1.6659 H   0  0  0  0  0  0  0  0  0  0  0  0
    2.9616   -2.5864    2.6907 H   0  0  0  0  0  0  0  0  0  0  0  0
    2.9899    0.1207    2.7187 H   0  0  0  0  0  0  0  0  0  0  0  0
    2.4430    0.8728    1.2270 H   0  0  0  0  0  0  0  0  0  0  0  0
    0.3603   -0.6670    1.3570 H   0  0  0  0  0  0  0  0  0  0  0  0
    0.7895    1.5119    3.4897 H   0  0  0  0  0  0  0  0  0  0  0  0
   -0.8189    0.8726    2.8755 H   0  0  0  0  0  0  0  0  0  0  0  0
   -0.2369   -1.4225    3.6768 H   0  0  0  0  0  0  0  0  0  0  0  0
    1.3774   -0.8092    4.3031 H   0  0  0  0  0  0  0  0  0  0  0  0
    2.4878   -1.1433    0.1482 H   0  0  0  0  0  0  0  0  0  0  0  0
  1  2  1  0
  1 24  1  0
  2 12  1  0
  2  3  2  3
  3 15  1  0
  3  4  1  0
  4  5  1  0
  5 16  1  0
  5  6  1  0
  5 25  1  1
  6  7  1  0
  6  8  1  0
  6 26  1  1
  7 27  1  0
  8 19  1  0
  8  9  1  1
  8 10  1  0
  9 28  1  0
 10 11  1  0
 10 13  1  0
 10 29  1  1
 11 12  2  3
 11 30  1  0
 12 31  1  0
 13 14  1  0
 13 32  1  0
 13 33  1  0
 14 16  1  0
 14 15  2  0
 15 16  1  0
 16 17  1  1
 17 18  1  0
 17 34  1  0
 17 35  1  0
 18 19  1  0
 18 36  1  0
 18 37  1  0
 19 20  1  0
 19 45  1  6
 20 21  1  0
 20 38  1  0
 20 39  1  0
 21 23  1  0
 21 22  1  0
 21 40  1  0
 22 23  1  0
 22 41  1  0
 22 42  1  0
 23 43  1  0
 23 44  1  0
M  CHG  1  19   1
M  END
>  <i_m_ct_stereo_status>  (349) 
1

>  <s_m_source_file>  (349) 
/var/tmp/pbs.5076255.sched01/tmpegbcst3k/90u3quomt0.sdf

>  <i_m_source_file_index>  (349) 
45

>  <i_lp_mmshare_version>  (349) 
48012

>  <i_f3d_flags>  (349) 
0

>  <s_epik_input>  (349) 
W0NIMl0xW0NIMl1bQ0hdMVtDSDJdTihbQ0gyXVtDSDJdMilbQ0BAXShbT0hdKShbQ0BASF0zW09IXSlbQ0BASF0oL1tDSF09W0NIXVxDPTRcW09IXSlbQ0gyXUM1PUM2QzRcT1tDQEBIXTNDMjU2

>  <s_epik_cmdline>  (349) 
J2VwaWtfcHl0aG9uJywgJy1waHQnLCAnMi4wJywgJy1waCcsICc3LjAnLCAnLXRuJywgJzgnLCAnLW1hJywgJzIwMCcsICctaW1hZScsICc8aW5maWxlLm1hZT4nLCAnLW9tYWUnLCAnPG91dGZpbGUubWFlPic=

>  <r_epik_Ionization_Penalty>  (349) 
1.75538

>  <r_epik_Ionization_Penalty_Charging>  (349) 
1.62539

>  <r_epik_Ionization_Penalty_Neutral>  (349) 
0.129993

>  <r_epik_State_Penalty>  (349) 
1.73236

>  <r_epik_Charging_Adjusted_Penalty>  (349) 
3.35775

>  <i_epik_Tot_Q>  (349) 
1

>  <i_epik_Tot_abs_Q>  (349) 
1

>  <s_lp_Force_Field>  (349) 
OPLS3e

>  <r_lp_Energy>  (349) 
549.826

>  <b_lp_Chiralities_Consistent>  (349) 
1

>  <s_lp_Variant>  (349) 
83:0-6

>  <s_i_glide_gridfile>  (349) 
pfpi4k_grid

>  <i_i_glide_lignum>  (349) 
45

>  <i_i_glide_rotatable_bonds>  (349) 
5

>  <r_i_docking_score>  (349) 
-4.75717

>  <r_i_glide_ligand_efficiency>  (349) 
-0.206833

>  <r_i_glide_ligand_efficiency_sa>  (349) 
-0.588206

>  <r_i_glide_ligand_efficiency_ln>  (349) 
-1.15033

>  <r_i_glide_gscore>  (349) 
-4.75717

>  <r_i_glide_lipo>  (349) 
-0.361711

>  <r_i_glide_hbond>  (349) 
-0.471938

>  <r_i_glide_metal>  (349) 
-0

>  <r_i_glide_rewards>  (349) 
-1.3531

>  <r_i_glide_evdw>  (349) 
-17.6089

>  <r_i_glide_ecoul>  (349) 
-13.3508

>  <r_i_glide_erotb>  (349) 
0.371978

>  <r_i_glide_esite>  (349) 
-0.0593339

>  <r_i_glide_emodel>  (349) 
-41.6877

>  <r_i_glide_energy>  (349) 
-30.9597

>  <r_i_glide_einternal>  (349) 
0.948555

>  <r_i_glide_intrahb_reward>  (349) 
-0

>  <i_i_glide_confnum>  (349) 
4

>  <i_i_glide_posenum>  (349) 
10

>  <r_i_glide_eff_state_penalty>  (349) 
0

>  <ligand_id>  (349) 
83

>  <original_smiles>  (349) 
OC1=C2OC3C(O)C4(O)C(C=C1)CC1=C2C13CCN4CC1CC1

>  <smiles>  (349) 
[H]OC1=C2OC3([H])C([H])(O[H])C4(O[H])C([H])(C([H])=C1[H])C([H])([H])C1=C2C13C([H])([H])C([H])([H])[N+]4([H])C([H])([H])C1([H])C([H])([H])C1([H])[H]

$$$$
83:5:1
     RDKit          3D

 45 50  0  0  1  0  0  0  0  0999 V2000
    3.7248   -3.8542   -3.9150 O   0  0  0  0  0  0  0  0  0  0  0  0
    3.4934   -3.0022   -2.9070 C   0  0  0  0  0  0  0  0  0  0  0  0
    3.5007   -3.4572   -1.6295 C   0  0  0  0  0  0  0  0  0  0  0  0
    3.4066   -2.6256   -0.5990 O   0  0  0  0  0  0  0  0  0  0  0  0
    4.5169   -2.9113    0.5275 C   0  0  0  0  0  0  0  0  0  0  0  0
    5.2784   -1.8139    1.3046 C   0  0  1  0  0  0  0  0  0  0  0  0
    6.6928   -1.8278    1.2387 O   0  0  0  0  0  0  0  0  0  0  0  0
    4.5538   -0.8016    0.4950 C   0  0  1  0  0  0  0  0  0  0  0  0
    4.9265    0.4701    0.8798 O   0  0  0  0  0  0  0  0  0  0  0  0
    5.1180   -1.0040   -1.0866 C   0  0  1  0  0  0  0  0  0  0  0  0
    4.3696   -0.6891   -2.4139 C   0  0  0  0  0  0  0  0  0  0  0  0
    3.6471   -1.5671   -3.1786 C   0  0  0  0  0  0  0  0  0  0  0  0
    5.9532   -2.4439   -1.4048 C   0  0  0  0  0  0  0  0  0  0  0  0
    5.4191   -3.9072   -0.8583 C   0  0  0  0  0  0  0  0  0  0  0  0
    4.2728   -4.4030   -1.1268 C   0  0  0  0  0  0  0  0  0  0  0  0
    4.4413   -4.2340    0.3895 C   0  0  1  0  0  0  0  0  0  0  0  0
    2.8848   -3.9249    1.1086 C   0  0  0  0  0  0  0  0  0  0  0  0
    2.4918   -2.3314    1.6965 C   0  0  0  0  0  0  0  0  0  0  0  0
    3.0145   -0.9428    1.0249 N   0  0  1  0  0  0  0  0  0  0  0  0
    2.4887    0.2423    1.7775 C   0  0  0  0  0  0  0  0  0  0  0  0
    0.9923    0.2093    2.0521 C   0  0  0  0  0  0  0  0  0  0  0  0
    0.2557    1.4895    2.3726 C   0  0  0  0  0  0  0  0  0  0  0  0
    0.4461    0.4467    3.4396 C   0  0  0  0  0  0  0  0  0  0  0  0
    3.6082   -4.7256   -3.5557 H   0  0  0  0  0  0  0  0  0  0  0  0
    4.7046   -3.2583    1.5756 H   0  0  0  0  0  0  0  0  0  0  0  0
    5.0157   -1.6506    2.3636 H   0  0  0  0  0  0  0  0  0  0  0  0
    7.0120   -2.5518    1.7585 H   0  0  0  0  0  0  0  0  0  0  0  0
    5.1268    1.0140    0.1240 H   0  0  0  0  0  0  0  0  0  0  0  0
    4.0669   -0.7337   -1.1077 H   0  0  0  0  0  0  0  0  0  0  0  0
    4.4228    0.3424   -2.7463 H   0  0  0  0  0  0  0  0  0  0  0  0
    3.1682   -1.1706   -4.0616 H   0  0  0  0  0  0  0  0  0  0  0  0
    6.1199   -2.5434   -2.4738 H   0  0  0  0  0  0  0  0  0  0  0  0
    6.9727   -2.3290   -1.0617 H   0  0  0  0  0  0  0  0  0  0  0  0
    2.0972   -4.3059    0.4592 H   0  0  0  0  0  0  0  0  0  0  0  0
    2.8068   -4.5928    1.9533 H   0  0  0  0  0  0  0  0  0  0  0  0
    1.4144   -2.3104    1.6898 H   0  0  0  0  0  0  0  0  0  0  0  0
    2.7482   -2.3016    2.7579 H   0  0  0  0  0  0  0  0  0  0  0  0
    3.0268    0.3530    2.7213 H   0  0  0  0  0  0  0  0  0  0  0  0
    2.6743    1.1489    1.2030 H   0  0  0  0  0  0  0  0  0  0  0  0
    0.4164   -0.4351    1.3981 H   0  0  0  0  0  0  0  0  0  0  0  0
    0.8325    2.4090    2.4394 H   0  0  0  0  0  0  0  0  0  0  0  0
   -0.7481    1.6093    1.9672 H   0  0  0  0  0  0  0  0  0  0  0  0
   -0.4306   -0.1245    3.7378 H   0  0  0  0  0  0  0  0  0  0  0  0
    1.1595    0.6604    4.2320 H   0  0  0  0  0  0  0  0  0  0  0  0
    2.4862   -0.9177    0.1548 H   0  0  0  0  0  0  0  0  0  0  0  0
  1  2  1  0
  1 24  1  0
  2 12  1  0
  2  3  2  3
  3 15  1  0
  3  4  1  0
  4  5  1  0
  5 16  1  0
  5  6  1  0
  5 25  1  0
  6  7  1  0
  6  8  1  0
  6 26  1  1
  7 27  1  0
  8 19  1  0
  8  9  1  1
  8 10  1  0
  9 28  1  0
 10 11  1  0
 10 13  1  0
 10 29  1  1
 11 12  2  3
 11 30  1  0
 12 31  1  0
 13 14  1  0
 13 32  1  0
 13 33  1  0
 14 16  1  0
 14 15  2  0
 15 16  1  0
 16 17  1  1
 17 18  1  0
 17 34  1  0
 17 35  1  0
 18 19  1  0
 18 36  1  0
 18 37  1  0
 19 20  1  0
 19 45  1  6
 20 21  1  0
 20 38  1  0
 20 39  1  0
 21 23  1  0
 21 22  1  0
 21 40  1  0
 22 23  1  0
 22 41  1  0
 22 42  1  0
 23 43  1  0
 23 44  1  0
M  CHG  1  19   1
M  END
>  <i_m_ct_stereo_status>  (350) 
1

>  <s_m_source_file>  (350) 
/var/tmp/pbs.5076255.sched01/tmpegbcst3k/90u3quomt0.sdf

>  <i_m_source_file_index>  (350) 
45

>  <i_lp_mmshare_version>  (350) 
48012

>  <i_f3d_flags>  (350) 
0

>  <s_epik_input>  (350) 
W0NIMl0xW0NIMl1bQ0hdMVtDSDJdTihbQ0gyXVtDSDJdMilbQ0BAXShbT0hdKShbQ0BASF0zW09IXSlbQ0BASF0oL1tDSF09W0NIXVxDPTRcW09IXSlbQ0gyXUM1PUM2QzRcT1tDQEBIXTNDMjU2

>  <s_epik_cmdline>  (350) 
J2VwaWtfcHl0aG9uJywgJy1waHQnLCAnMi4wJywgJy1waCcsICc3LjAnLCAnLXRuJywgJzgnLCAnLW1hJywgJzIwMCcsICctaW1hZScsICc8aW5maWxlLm1hZT4nLCAnLW9tYWUnLCAnPG91dGZpbGUubWFlPic=

>  <r_epik_Ionization_Penalty>  (350) 
1.75538

>  <r_epik_Ionization_Penalty_Charging>  (350) 
1.62539

>  <r_epik_Ionization_Penalty_Neutral>  (350) 
0.129993

>  <r_epik_State_Penalty>  (350) 
1.73236

>  <r_epik_Charging_Adjusted_Penalty>  (350) 
3.35775

>  <i_epik_Tot_Q>  (350) 
1

>  <i_epik_Tot_abs_Q>  (350) 
1

>  <s_lp_Force_Field>  (350) 
OPLS3e

>  <r_lp_Energy>  (350) 
549.826

>  <b_lp_Chiralities_Consistent>  (350) 
1

>  <s_lp_Variant>  (350) 
83:0-6

>  <s_i_glide_gridfile>  (350) 
pfpi4k_grid

>  <i_i_glide_lignum>  (350) 
45

>  <i_i_glide_rotatable_bonds>  (350) 
5

>  <r_i_docking_score>  (350) 
-4.65493

>  <r_i_glide_ligand_efficiency>  (350) 
-0.202388

>  <r_i_glide_ligand_efficiency_sa>  (350) 
-0.575566

>  <r_i_glide_ligand_efficiency_ln>  (350) 
-1.12561

>  <r_i_glide_gscore>  (350) 
-4.65493

>  <r_i_glide_lipo>  (350) 
-0.275984

>  <r_i_glide_hbond>  (350) 
-0.495821

>  <r_i_glide_metal>  (350) 
-0

>  <r_i_glide_rewards>  (350) 
-1.36476

>  <r_i_glide_evdw>  (350) 
-16.5764

>  <r_i_glide_ecoul>  (350) 
-13.3529

>  <r_i_glide_erotb>  (350) 
0.371978

>  <r_i_glide_esite>  (350) 
-0.0585879

>  <r_i_glide_emodel>  (350) 
-39.9418

>  <r_i_glide_energy>  (350) 
-29.9293

>  <r_i_glide_einternal>  (350) 
1.54974

>  <r_i_glide_intrahb_reward>  (350) 
-0

>  <i_i_glide_confnum>  (350) 
1

>  <i_i_glide_posenum>  (350) 
2

>  <r_i_glide_eff_state_penalty>  (350) 
0

>  <ligand_id>  (350) 
83

>  <original_smiles>  (350) 
OC1=C2OC3C(O)C4(O)C(C=C1)CC1=C2C13CCN4CC1CC1

>  <smiles>  (350) 
[H]OC1=C2OC3([H])C([H])(O[H])C4(O[H])C([H])(C([H])=C1[H])C([H])([H])C1=C2C13C([H])([H])C([H])([H])[N+]4([H])C([H])([H])C1([H])C([H])([H])C1([H])[H]

$$$$
83:5:2
     RDKit          3D

 45 50  0  0  1  0  0  0  0  0999 V2000
    3.6947   -3.8371   -3.9142 O   0  0  0  0  0  0  0  0  0  0  0  0
    3.4702   -3.0179   -2.8853 C   0  0  0  0  0  0  0  0  0  0  0  0
    3.5374   -3.4901   -1.6090 C   0  0  0  0  0  0  0  0  0  0  0  0
    3.4448   -2.6693   -0.5691 O   0  0  0  0  0  0  0  0  0  0  0  0
    4.5966   -2.9228    0.5272 C   0  0  2  0  0  0  0  0  0  0  0  0
    5.3485   -1.8048    1.2801 C   0  0  1  0  0  0  0  0  0  0  0  0
    6.7629   -1.7633    1.1896 O   0  0  0  0  0  0  0  0  0  0  0  0
    4.5579   -0.8212    0.5015 C   0  0  1  0  0  0  0  0  0  0  0  0
    4.9007    0.4570    0.8900 O   0  0  0  0  0  0  0  0  0  0  0  0
    5.0800   -0.9905   -1.0958 C   0  0  1  0  0  0  0  0  0  0  0  0
    4.2806   -0.6858   -2.3945 C   0  0  0  0  0  0  0  0  0  0  0  0
    3.5571   -1.5795   -3.1430 C   0  0  0  0  0  0  0  0  0  0  0  0
    5.9529   -2.3958   -1.4486 C   0  0  0  0  0  0  0  0  0  0  0  0
    5.4938   -3.8782   -0.9013 C   0  0  0  0  0  0  0  0  0  0  0  0
    4.3559   -4.4130   -1.1313 C   0  0  0  0  0  0  0  0  0  0  0  0
    4.5641   -4.2460    0.3738 C   0  0  1  0  0  0  0  0  0  0  0  0
    3.0222   -3.9949    1.1431 C   0  0  0  0  0  0  0  0  0  0  0  0
    2.5854   -2.4175    1.7545 C   0  0  0  0  0  0  0  0  0  0  0  0
    3.0433   -1.0125    1.0756 N   0  0  1  0  0  0  0  0  0  0  0  0
    2.5013    0.1517    1.8568 C   0  0  0  0  0  0  0  0  0  0  0  0
    1.0019    0.1101    2.0794 C   0  0  0  0  0  0  0  0  0  0  0  0
    0.2577    1.3953    2.3712 C   0  0  0  0  0  0  0  0  0  0  0  0
    0.3985    0.3484    3.4421 C   0  0  0  0  0  0  0  0  0  0  0  0
    3.5937   -4.7122   -3.5643 H   0  0  0  0  0  0  0  0  0  0  0  0
    4.8251   -3.2690    1.5668 H   0  0  0  0  0  0  0  0  0  0  0  0
    5.1126   -1.6535    2.3448 H   0  0  0  0  0  0  0  0  0  0  0  0
    7.0370   -2.1218    0.3604 H   0  0  0  0  0  0  0  0  0  0  0  0
    5.1205    0.9925    0.1303 H   0  0  0  0  0  0  0  0  0  0  0  0
    4.0177   -0.7551   -1.0847 H   0  0  0  0  0  0  0  0  0  0  0  0
    4.2851    0.3456   -2.7263 H   0  0  0  0  0  0  0  0  0  0  0  0
    3.0383   -1.2046   -4.0099 H   0  0  0  0  0  0  0  0  0  0  0  0
    6.0793   -2.4863   -2.5242 H   0  0  0  0  0  0  0  0  0  0  0  0
    6.9828   -2.2560   -1.1541 H   0  0  0  0  0  0  0  0  0  0  0  0
    2.2281   -4.4011    0.5167 H   0  0  0  0  0  0  0  0  0  0  0  0
    2.9986   -4.6699    1.9856 H   0  0  0  0  0  0  0  0  0  0  0  0
    1.5067   -2.4293    1.7859 H   0  0  0  0  0  0  0  0  0  0  0  0
    2.8786   -2.3916    2.8056 H   0  0  0  0  0  0  0  0  0  0  0  0
    3.0106    0.2190    2.8171 H   0  0  0  0  0  0  0  0  0  0  0  0
    2.6915    1.0806    1.3246 H   0  0  0  0  0  0  0  0  0  0  0  0
    0.4542   -0.5373    1.4043 H   0  0  0  0  0  0  0  0  0  0  0  0
    0.8335    2.3128    2.4708 H   0  0  0  0  0  0  0  0  0  0  0  0
   -0.7289    1.5245    1.9292 H   0  0  0  0  0  0  0  0  0  0  0  0
   -0.4933   -0.2187    3.6994 H   0  0  0  0  0  0  0  0  0  0  0  0
    1.0795    0.5538    4.2639 H   0  0  0  0  0  0  0  0  0  0  0  0
    2.4899   -0.9967    0.2207 H   0  0  0  0  0  0  0  0  0  0  0  0
  1  2  1  0
  1 24  1  0
  2 12  1  0
  2  3  2  3
  3 15  1  0
  3  4  1  0
  4  5  1  0
  5 16  1  0
  5  6  1  0
  5 25  1  1
  6  7  1  0
  6  8  1  0
  6 26  1  1
  7 27  1  0
  8 19  1  0
  8  9  1  1
  8 10  1  0
  9 28  1  0
 10 11  1  0
 10 13  1  0
 10 29  1  1
 11 12  2  3
 11 30  1  0
 12 31  1  0
 13 14  1  0
 13 32  1  0
 13 33  1  0
 14 16  1  0
 14 15  2  0
 15 16  1  0
 16 17  1  1
 17 18  1  0
 17 34  1  0
 17 35  1  0
 18 19  1  0
 18 36  1  0
 18 37  1  0
 19 20  1  0
 19 45  1  6
 20 21  1  0
 20 38  1  0
 20 39  1  0
 21 23  1  0
 21 22  1  0
 21 40  1  0
 22 23  1  0
 22 41  1  0
 22 42  1  0
 23 43  1  0
 23 44  1  0
M  CHG  1  19   1
M  END
>  <i_m_ct_stereo_status>  (351) 
1

>  <s_m_source_file>  (351) 
/var/tmp/pbs.5076255.sched01/tmpegbcst3k/90u3quomt0.sdf

>  <i_m_source_file_index>  (351) 
45

>  <i_lp_mmshare_version>  (351) 
48012

>  <i_f3d_flags>  (351) 
0

>  <s_epik_input>  (351) 
W0NIMl0xW0NIMl1bQ0hdMVtDSDJdTihbQ0gyXVtDSDJdMilbQ0BAXShbT0hdKShbQ0BASF0zW09IXSlbQ0BASF0oL1tDSF09W0NIXVxDPTRcW09IXSlbQ0gyXUM1PUM2QzRcT1tDQEBIXTNDMjU2

>  <s_epik_cmdline>  (351) 
J2VwaWtfcHl0aG9uJywgJy1waHQnLCAnMi4wJywgJy1waCcsICc3LjAnLCAnLXRuJywgJzgnLCAnLW1hJywgJzIwMCcsICctaW1hZScsICc8aW5maWxlLm1hZT4nLCAnLW9tYWUnLCAnPG91dGZpbGUubWFlPic=

>  <r_epik_Ionization_Penalty>  (351) 
1.75538

>  <r_epik_Ionization_Penalty_Charging>  (351) 
1.62539

>  <r_epik_Ionization_Penalty_Neutral>  (351) 
0.129993

>  <r_epik_State_Penalty>  (351) 
1.73236

>  <r_epik_Charging_Adjusted_Penalty>  (351) 
3.35775

>  <i_epik_Tot_Q>  (351) 
1

>  <i_epik_Tot_abs_Q>  (351) 
1

>  <s_lp_Force_Field>  (351) 
OPLS3e

>  <r_lp_Energy>  (351) 
549.826

>  <b_lp_Chiralities_Consistent>  (351) 
1

>  <s_lp_Variant>  (351) 
83:0-6

>  <s_i_glide_gridfile>  (351) 
pfpi4k_grid

>  <i_i_glide_lignum>  (351) 
45

>  <i_i_glide_rotatable_bonds>  (351) 
5

>  <r_i_docking_score>  (351) 
-4.58028

>  <r_i_glide_ligand_efficiency>  (351) 
-0.199143

>  <r_i_glide_ligand_efficiency_sa>  (351) 
-0.566335

>  <r_i_glide_ligand_efficiency_ln>  (351) 
-1.10755

>  <r_i_glide_gscore>  (351) 
-4.58028

>  <r_i_glide_lipo>  (351) 
-0.276853

>  <r_i_glide_hbond>  (351) 
-0.49575

>  <r_i_glide_metal>  (351) 
-0

>  <r_i_glide_rewards>  (351) 
-1.36074

>  <r_i_glide_evdw>  (351) 
-17.2869

>  <r_i_glide_ecoul>  (351) 
-12.6587

>  <r_i_glide_erotb>  (351) 
0.371978

>  <r_i_glide_esite>  (351) 
-0.0557653

>  <r_i_glide_emodel>  (351) 
-39.6325

>  <r_i_glide_energy>  (351) 
-29.9456

>  <r_i_glide_einternal>  (351) 
1.67169

>  <r_i_glide_intrahb_reward>  (351) 
-0

>  <i_i_glide_confnum>  (351) 
4

>  <i_i_glide_posenum>  (351) 
31

>  <r_i_glide_eff_state_penalty>  (351) 
0

>  <ligand_id>  (351) 
83

>  <original_smiles>  (351) 
OC1=C2OC3C(O)C4(O)C(C=C1)CC1=C2C13CCN4CC1CC1

>  <smiles>  (351) 
[H]OC1=C2OC3([H])C([H])(O[H])C4(O[H])C([H])(C([H])=C1[H])C([H])([H])C1=C2C13C([H])([H])C([H])([H])[N+]4([H])C([H])([H])C1([H])C([H])([H])C1([H])[H]

$$$$
83:6:0
     RDKit          3D

 45 50  0  0  1  0  0  0  0  0999 V2000
    4.0698   -1.3605   -3.2306 O   0  0  0  0  0  0  0  0  0  0  0  0
    5.0327   -1.6318   -2.3403 C   0  0  0  0  0  0  0  0  0  0  0  0
    4.9764   -1.1089   -1.0764 C   0  0  0  0  0  0  0  0  0  0  0  0
    3.7151   -0.9508   -0.6080 O   0  0  0  0  0  0  0  0  0  0  0  0
    3.6442   -1.6607    0.6477 C   0  0  1  0  0  0  0  0  0  0  0  0
    3.0578   -3.0812    0.4329 C   0  0  1  0  0  0  0  0  0  0  0  0
    2.2070   -3.0413   -0.7114 O   0  0  0  0  0  0  0  0  0  0  0  0
    4.0310   -4.3293    0.5060 C   0  0  1  0  0  0  0  0  0  0  0  0
    3.1989   -5.4327    0.1299 O   0  0  0  0  0  0  0  0  0  0  0  0
    5.2703   -4.4342   -0.4827 C   0  0  1  0  0  0  0  0  0  0  0  0
    5.0037   -3.9091   -1.8966 C   0  0  0  0  0  0  0  0  0  0  0  0
    5.7113   -2.9005   -2.4540 C   0  0  0  0  0  0  0  0  0  0  0  0
    6.5139   -3.7951    0.1274 C   0  0  0  0  0  0  0  0  0  0  0  0
    6.3275   -2.3252    0.4890 C   0  0  0  0  0  0  0  0  0  0  0  0
    5.7948   -1.2992   -0.0198 C   0  0  0  0  0  0  0  0  0  0  0  0
    5.0612   -1.6937    1.1969 C   0  0  1  0  0  0  0  0  0  0  0  0
    5.2748   -2.1935    2.6088 C   0  0  0  0  0  0  0  0  0  0  0  0
    4.4566   -3.4787    2.9387 C   0  0  0  0  0  0  0  0  0  0  0  0
    4.4732   -4.6367    1.9492 N   0  0  1  0  0  0  0  0  0  0  0  0
    3.9392   -5.8888    2.5952 C   0  0  0  0  0  0  0  0  0  0  0  0
    4.5674   -7.1826    2.0720 C   0  0  0  0  0  0  0  0  0  0  0  0
    4.2461   -8.4922    2.7532 C   0  0  0  0  0  0  0  0  0  0  0  0
    5.6342   -7.9076    2.8586 C   0  0  0  0  0  0  0  0  0  0  0  0
    3.4461   -0.7731   -2.8252 H   0  0  0  0  0  0  0  0  0  0  0  0
    2.9993   -1.0917    1.3075 H   0  0  0  0  0  0  0  0  0  0  0  0
    2.3356   -3.2328    1.2358 H   0  0  0  0  0  0  0  0  0  0  0  0
    1.7491   -2.1899   -0.7212 H   0  0  0  0  0  0  0  0  0  0  0  0
    3.2074   -5.5093   -0.8217 H   0  0  0  0  0  0  0  0  0  0  0  0
    5.5012   -5.4919   -0.6169 H   0  0  0  0  0  0  0  0  0  0  0  0
    3.9450   -3.9334   -2.1282 H   0  0  0  0  0  0  0  0  0  0  0  0
    6.7600   -2.7973   -2.2204 H   0  0  0  0  0  0  0  0  0  0  0  0
    6.8006   -4.3329    1.0371 H   0  0  0  0  0  0  0  0  0  0  0  0
    7.3892   -3.9039   -0.5165 H   0  0  0  0  0  0  0  0  0  0  0  0
    6.3237   -2.3376    2.8208 H   0  0  0  0  0  0  0  0  0  0  0  0
    4.9811   -1.4065    3.2959 H   0  0  0  0  0  0  0  0  0  0  0  0
    4.8697   -3.8368    3.8844 H   0  0  0  0  0  0  0  0  0  0  0  0
    3.4243   -3.2089    3.1697 H   0  0  0  0  0  0  0  0  0  0  0  0
    4.1155   -5.8551    3.6720 H   0  0  0  0  0  0  0  0  0  0  0  0
    2.8508   -5.9361    2.4964 H   0  0  0  0  0  0  0  0  0  0  0  0
    4.6453   -7.2497    0.9890 H   0  0  0  0  0  0  0  0  0  0  0  0
    3.6239   -8.4726    3.6454 H   0  0  0  0  0  0  0  0  0  0  0  0
    4.1302   -9.3751    2.1309 H   0  0  0  0  0  0  0  0  0  0  0  0
    6.4247   -8.3932    2.2896 H   0  0  0  0  0  0  0  0  0  0  0  0
    5.9373   -7.4809    3.8145 H   0  0  0  0  0  0  0  0  0  0  0  0
    5.4585   -4.8408    1.8436 H   0  0  0  0  0  0  0  0  0  0  0  0
  1  2  1  0
  1 24  1  0
  2 12  1  0
  2  3  2  3
  3 15  1  0
  3  4  1  0
  4  5  1  0
  5 16  1  0
  5  6  1  0
  5 25  1  1
  6  7  1  0
  6  8  1  0
  6 26  1  1
  7 27  1  0
  8 19  1  0
  8  9  1  6
  8 10  1  0
  9 28  1  0
 10 11  1  0
 10 13  1  0
 10 29  1  6
 11 12  2  3
 11 30  1  0
 12 31  1  0
 13 14  1  0
 13 32  1  0
 13 33  1  0
 14 16  1  0
 14 15  2  0
 15 16  1  0
 16 17  1  1
 17 18  1  0
 17 34  1  0
 17 35  1  0
 18 19  1  0
 18 36  1  0
 18 37  1  0
 19 20  1  0
 19 45  1  6
 20 21  1  0
 20 38  1  0
 20 39  1  0
 21 23  1  0
 21 22  1  0
 21 40  1  0
 22 23  1  0
 22 41  1  0
 22 42  1  0
 23 43  1  0
 23 44  1  0
M  CHG  1  19   1
M  END
>  <i_m_ct_stereo_status>  (352) 
1

>  <s_m_source_file>  (352) 
/var/tmp/pbs.5076255.sched01/tmp9yj1qf5s/135tauqa2n_.sdf

>  <i_m_source_file_index>  (352) 
1

>  <i_lp_mmshare_version>  (352) 
48012

>  <i_f3d_flags>  (352) 
2

>  <s_epik_input>  (352) 
W0NIMl0xW0NIMl1bQ0hdMVtDSDJdTihbQ0gyXVtDSDJdMilbQ0BAXShbT0hdKShbQ0BASF0zW09IXSlbQ0BASF0oL1tDSF09W0NIXVxDPTRcW09IXSlbQ0gyXUM1PUM2QzRcT1tDQEBIXTNDMjU2

>  <s_epik_cmdline>  (352) 
J2VwaWtfcHl0aG9uJywgJy1waHQnLCAnMi4wJywgJy1waCcsICc3LjAnLCAnLXRuJywgJzgnLCAnLW1hJywgJzIwMCcsICctaW1hZScsICc8aW5maWxlLm1hZT4nLCAnLW9tYWUnLCAnPG91dGZpbGUubWFlPic=

>  <r_epik_Ionization_Penalty>  (352) 
1.75538

>  <r_epik_Ionization_Penalty_Charging>  (352) 
1.62539

>  <r_epik_Ionization_Penalty_Neutral>  (352) 
0.129993

>  <r_epik_State_Penalty>  (352) 
1.73236

>  <r_epik_Charging_Adjusted_Penalty>  (352) 
3.35775

>  <i_epik_Tot_Q>  (352) 
1

>  <i_epik_Tot_abs_Q>  (352) 
1

>  <s_lp_Force_Field>  (352) 
OPLS3e

>  <r_lp_Energy>  (352) 
172.101

>  <b_lp_Chiralities_Consistent>  (352) 
0

>  <s_lp_Variant>  (352) 
83:0-7

>  <s_i_glide_gridfile>  (352) 
pfpi4k_grid

>  <i_i_glide_lignum>  (352) 
1

>  <i_i_glide_rotatable_bonds>  (352) 
5

>  <r_i_docking_score>  (352) 
-4.17693

>  <r_i_glide_ligand_efficiency>  (352) 
-0.181606

>  <r_i_glide_ligand_efficiency_sa>  (352) 
-0.516462

>  <r_i_glide_ligand_efficiency_ln>  (352) 
-1.01002

>  <r_i_glide_gscore>  (352) 
-4.17693

>  <r_i_glide_lipo>  (352) 
-0.550332

>  <r_i_glide_hbond>  (352) 
0

>  <r_i_glide_metal>  (352) 
-0

>  <r_i_glide_rewards>  (352) 
-1.28198

>  <r_i_glide_evdw>  (352) 
-20.4096

>  <r_i_glide_ecoul>  (352) 
-10.5634

>  <r_i_glide_erotb>  (352) 
0.260385

>  <r_i_glide_esite>  (352) 
0

>  <r_i_glide_emodel>  (352) 
-38.7605

>  <r_i_glide_energy>  (352) 
-30.9731

>  <r_i_glide_einternal>  (352) 
1.47604

>  <r_i_glide_intrahb_reward>  (352) 
-0

>  <i_i_glide_confnum>  (352) 
3

>  <i_i_glide_posenum>  (352) 
4

>  <r_i_glide_eff_state_penalty>  (352) 
0

>  <ligand_id>  (352) 
83

>  <original_smiles>  (352) 
OC1=C2OC3C(O)C4(O)C(C=C1)CC1=C2C13CCN4CC1CC1

>  <smiles>  (352) 
[H]OC1=C2OC3([H])C([H])(O[H])C4(O[H])C([H])(C([H])=C1[H])C([H])([H])C1=C2C13C([H])([H])C([H])([H])[N+]4([H])C([H])([H])C1([H])C([H])([H])C1([H])[H]

$$$$
83:6:1
     RDKit          3D

 45 50  0  0  1  0  0  0  0  0999 V2000
    4.3692   -1.2459   -2.8730 O   0  0  0  0  0  0  0  0  0  0  0  0
    5.2398   -1.5641   -1.8998 C   0  0  0  0  0  0  0  0  0  0  0  0
    5.0289   -1.1177   -0.6389 C   0  0  0  0  0  0  0  0  0  0  0  0
    3.7221   -0.9810   -0.3064 O   0  0  0  0  0  0  0  0  0  0  0  0
    3.4942   -1.7477    0.8945 C   0  0  1  0  0  0  0  0  0  0  0  0
    2.9328   -3.1455    0.5303 C   0  0  1  0  0  0  0  0  0  0  0  0
    2.1994   -3.0750   -0.6754 O   0  0  0  0  0  0  0  0  0  0  0  0
    3.8966   -4.3939    0.6616 C   0  0  1  0  0  0  0  0  0  0  0  0
    3.1593   -5.4901    0.1518 O   0  0  0  0  0  0  0  0  0  0  0  0
    5.2337   -4.4597   -0.1821 C   0  0  1  0  0  0  0  0  0  0  0  0
    5.1232   -3.8545   -1.5855 C   0  0  0  0  0  0  0  0  0  0  0  0
    5.9060   -2.8312   -2.0044 C   0  0  0  0  0  0  0  0  0  0  0  0
    6.4028   -3.8518    0.6001 C   0  0  0  0  0  0  0  0  0  0  0  0
    6.2110   -2.4155    1.0114 C   0  0  0  0  0  0  0  0  0  0  0  0
    5.7068   -1.3632    0.4977 C   0  0  0  0  0  0  0  0  0  0  0  0
    4.8436   -1.8435    1.5945 C   0  0  1  0  0  0  0  0  0  0  0  0
    4.8972   -2.3996    3.0019 C   0  0  0  0  0  0  0  0  0  0  0  0
    4.0413   -3.6809    3.1708 C   0  0  0  0  0  0  0  0  0  0  0  0
    4.1467   -4.7696    2.1270 N   0  0  1  0  0  0  0  0  0  0  0  0
    3.5802   -6.0571    2.6581 C   0  0  0  0  0  0  0  0  0  0  0  0
    2.0772   -6.0291    2.9286 C   0  0  0  0  0  0  0  0  0  0  0  0
    1.3677   -7.2820    3.3942 C   0  0  0  0  0  0  0  0  0  0  0  0
    1.1137   -6.7458    2.0115 C   0  0  0  0  0  0  0  0  0  0  0  0
    3.7175   -0.6696   -2.5046 H   0  0  0  0  0  0  0  0  0  0  0  0
    2.7794   -1.2027    1.5178 H   0  0  0  0  0  0  0  0  0  0  0  0
    2.1411   -3.3337    1.2520 H   0  0  0  0  0  0  0  0  0  0  0  0
    1.7722   -2.2116   -0.7211 H   0  0  0  0  0  0  0  0  0  0  0  0
    3.1924   -5.4769   -0.8005 H   0  0  0  0  0  0  0  0  0  0  0  0
    5.4811   -5.5158   -0.3441 H   0  0  0  0  0  0  0  0  0  0  0  0
    4.1016   -3.8646   -1.9409 H   0  0  0  0  0  0  0  0  0  0  0  0
    6.9226   -2.7575   -1.6487 H   0  0  0  0  0  0  0  0  0  0  0  0
    6.5731   -4.4517    1.4948 H   0  0  0  0  0  0  0  0  0  0  0  0
    7.3367   -3.9606    0.0535 H   0  0  0  0  0  0  0  0  0  0  0  0
    5.9185   -2.5621    3.3258 H   0  0  0  0  0  0  0  0  0  0  0  0
    4.5252   -1.6401    3.6902 H   0  0  0  0  0  0  0  0  0  0  0  0
    4.3256   -4.1077    4.1322 H   0  0  0  0  0  0  0  0  0  0  0  0
    3.0072   -3.3739    3.3004 H   0  0  0  0  0  0  0  0  0  0  0  0
    3.8288   -6.9054    2.0211 H   0  0  0  0  0  0  0  0  0  0  0  0
    4.0823   -6.3005    3.5937 H   0  0  0  0  0  0  0  0  0  0  0  0
    1.7119   -5.1301    3.4139 H   0  0  0  0  0  0  0  0  0  0  0  0
    1.9427   -8.2020    3.4754 H   0  0  0  0  0  0  0  0  0  0  0  0
    0.5561   -7.1788    4.1107 H   0  0  0  0  0  0  0  0  0  0  0  0
    0.1637   -6.2568    1.8172 H   0  0  0  0  0  0  0  0  0  0  0  0
    1.5392   -7.2931    1.1724 H   0  0  0  0  0  0  0  0  0  0  0  0
    5.1305   -4.9871    2.1104 H   0  0  0  0  0  0  0  0  0  0  0  0
  1  2  1  0
  1 24  1  0
  2 12  1  0
  2  3  2  3
  3 15  1  0
  3  4  1  0
  4  5  1  0
  5 16  1  0
  5  6  1  0
  5 25  1  1
  6  7  1  0
  6  8  1  0
  6 26  1  1
  7 27  1  0
  8 19  1  0
  8  9  1  6
  8 10  1  0
  9 28  1  0
 10 11  1  0
 10 13  1  0
 10 29  1  6
 11 12  2  3
 11 30  1  0
 12 31  1  0
 13 14  1  0
 13 32  1  0
 13 33  1  0
 14 16  1  0
 14 15  2  0
 15 16  1  0
 16 17  1  1
 17 18  1  0
 17 34  1  0
 17 35  1  0
 18 19  1  0
 18 36  1  0
 18 37  1  0
 19 20  1  0
 19 45  1  6
 20 21  1  0
 20 38  1  0
 20 39  1  0
 21 23  1  0
 21 22  1  0
 21 40  1  0
 22 23  1  0
 22 41  1  0
 22 42  1  0
 23 43  1  0
 23 44  1  0
M  CHG  1  19   1
M  END
>  <i_m_ct_stereo_status>  (353) 
1

>  <s_m_source_file>  (353) 
/var/tmp/pbs.5076255.sched01/tmp9yj1qf5s/135tauqa2n_.sdf

>  <i_m_source_file_index>  (353) 
1

>  <i_lp_mmshare_version>  (353) 
48012

>  <i_f3d_flags>  (353) 
2

>  <s_epik_input>  (353) 
W0NIMl0xW0NIMl1bQ0hdMVtDSDJdTihbQ0gyXVtDSDJdMilbQ0BAXShbT0hdKShbQ0BASF0zW09IXSlbQ0BASF0oL1tDSF09W0NIXVxDPTRcW09IXSlbQ0gyXUM1PUM2QzRcT1tDQEBIXTNDMjU2

>  <s_epik_cmdline>  (353) 
J2VwaWtfcHl0aG9uJywgJy1waHQnLCAnMi4wJywgJy1waCcsICc3LjAnLCAnLXRuJywgJzgnLCAnLW1hJywgJzIwMCcsICctaW1hZScsICc8aW5maWxlLm1hZT4nLCAnLW9tYWUnLCAnPG91dGZpbGUubWFlPic=

>  <r_epik_Ionization_Penalty>  (353) 
1.75538

>  <r_epik_Ionization_Penalty_Charging>  (353) 
1.62539

>  <r_epik_Ionization_Penalty_Neutral>  (353) 
0.129993

>  <r_epik_State_Penalty>  (353) 
1.73236

>  <r_epik_Charging_Adjusted_Penalty>  (353) 
3.35775

>  <i_epik_Tot_Q>  (353) 
1

>  <i_epik_Tot_abs_Q>  (353) 
1

>  <s_lp_Force_Field>  (353) 
OPLS3e

>  <r_lp_Energy>  (353) 
172.101

>  <b_lp_Chiralities_Consistent>  (353) 
0

>  <s_lp_Variant>  (353) 
83:0-7

>  <s_i_glide_gridfile>  (353) 
pfpi4k_grid

>  <i_i_glide_lignum>  (353) 
1

>  <i_i_glide_rotatable_bonds>  (353) 
5

>  <r_i_docking_score>  (353) 
-4.07647

>  <r_i_glide_ligand_efficiency>  (353) 
-0.177238

>  <r_i_glide_ligand_efficiency_sa>  (353) 
-0.504041

>  <r_i_glide_ligand_efficiency_ln>  (353) 
-0.985728

>  <r_i_glide_gscore>  (353) 
-4.07647

>  <r_i_glide_lipo>  (353) 
-0.499726

>  <r_i_glide_hbond>  (353) 
0

>  <r_i_glide_metal>  (353) 
-0

>  <r_i_glide_rewards>  (353) 
-1.27053

>  <r_i_glide_evdw>  (353) 
-22.4237

>  <r_i_glide_ecoul>  (353) 
-9.6361

>  <r_i_glide_erotb>  (353) 
0.260385

>  <r_i_glide_esite>  (353) 
0

>  <r_i_glide_emodel>  (353) 
-39.6479

>  <r_i_glide_energy>  (353) 
-32.0598

>  <r_i_glide_einternal>  (353) 
1.56698

>  <r_i_glide_intrahb_reward>  (353) 
-0

>  <i_i_glide_confnum>  (353) 
5

>  <i_i_glide_posenum>  (353) 
35

>  <r_i_glide_eff_state_penalty>  (353) 
0

>  <ligand_id>  (353) 
83

>  <original_smiles>  (353) 
OC1=C2OC3C(O)C4(O)C(C=C1)CC1=C2C13CCN4CC1CC1

>  <smiles>  (353) 
[H]OC1=C2OC3([H])C([H])(O[H])C4(O[H])C([H])(C([H])=C1[H])C([H])([H])C1=C2C13C([H])([H])C([H])([H])[N+]4([H])C([H])([H])C1([H])C([H])([H])C1([H])[H]

$$$$
83:6:2
     RDKit          3D

 45 50  0  0  1  0  0  0  0  0999 V2000
    2.7615   -6.3967    3.5272 O   0  0  0  0  0  0  0  0  0  0  0  0
    3.3676   -5.2093    3.6443 C   0  0  0  0  0  0  0  0  0  0  0  0
    4.6163   -5.0288    3.1173 C   0  0  0  0  0  0  0  0  0  0  0  0
    4.8718   -5.7615    2.0035 O   0  0  0  0  0  0  0  0  0  0  0  0
    5.2721   -4.8245    0.9694 C   0  0  1  0  0  0  0  0  0  0  0  0
    4.0616   -4.4427    0.0795 C   0  0  1  0  0  0  0  0  0  0  0  0
    3.1288   -5.5221    0.0793 O   0  0  0  0  0  0  0  0  0  0  0  0
    3.4235   -2.9994    0.2279 C   0  0  1  0  0  0  0  0  0  0  0  0
    2.3020   -3.0783   -0.6482 O   0  0  0  0  0  0  0  0  0  0  0  0
    2.8366   -2.5350    1.6347 C   0  0  1  0  0  0  0  0  0  0  0  0
    2.1513   -3.6475    2.4327 C   0  0  0  0  0  0  0  0  0  0  0  0
    2.5358   -4.0326    3.6729 C   0  0  0  0  0  0  0  0  0  0  0  0
    3.8968   -1.8383    2.4792 C   0  0  0  0  0  0  0  0  0  0  0  0
    5.1226   -2.7028    2.7516 C   0  0  0  0  0  0  0  0  0  0  0  0
    5.3677   -3.9093    3.0490 C   0  0  0  0  0  0  0  0  0  0  0  0
    5.8571   -3.6174    1.6908 C   0  0  1  0  0  0  0  0  0  0  0  0
    6.5826   -2.5491    0.8920 C   0  0  0  0  0  0  0  0  0  0  0  0
    5.8326   -2.1804   -0.4158 C   0  0  0  0  0  0  0  0  0  0  0  0
    4.3385   -1.9102   -0.3623 N   0  0  1  0  0  0  0  0  0  0  0  0
    3.8924   -1.1830   -1.5993 C   0  0  0  0  0  0  0  0  0  0  0  0
    4.1388   -1.9296   -2.9063 C   0  0  0  0  0  0  0  0  0  0  0  0
    3.6041   -1.3602   -4.1972 C   0  0  0  0  0  0  0  0  0  0  0  0
    3.0017   -2.6178   -3.6195 C   0  0  0  0  0  0  0  0  0  0  0  0
    3.3881   -7.0107    3.1728 H   0  0  0  0  0  0  0  0  0  0  0  0
    6.0366   -5.3074    0.3680 H   0  0  0  0  0  0  0  0  0  0  0  0
    4.4285   -4.4744   -0.9489 H   0  0  0  0  0  0  0  0  0  0  0  0
    3.0114   -5.7782   -0.8355 H   0  0  0  0  0  0  0  0  0  0  0  0
    1.8631   -2.2279   -0.7104 H   0  0  0  0  0  0  0  0  0  0  0  0
    2.0566   -1.7948    1.4485 H   0  0  0  0  0  0  0  0  0  0  0  0
    1.8164   -4.4351    1.7704 H   0  0  0  0  0  0  0  0  0  0  0  0
    2.9341   -3.2986    4.3565 H   0  0  0  0  0  0  0  0  0  0  0  0
    4.2348   -0.9280    1.9740 H   0  0  0  0  0  0  0  0  0  0  0  0
    3.4934   -1.4692    3.4270 H   0  0  0  0  0  0  0  0  0  0  0  0
    6.7989   -1.6640    1.4890 H   0  0  0  0  0  0  0  0  0  0  0  0
    7.5604   -2.9372    0.6220 H   0  0  0  0  0  0  0  0  0  0  0  0
    6.3117   -1.2734   -0.7899 H   0  0  0  0  0  0  0  0  0  0  0  0
    6.0446   -2.9523   -1.1570 H   0  0  0  0  0  0  0  0  0  0  0  0
    2.8470   -0.8714   -1.5356 H   0  0  0  0  0  0  0  0  0  0  0  0
    4.4345   -0.2377   -1.6517 H   0  0  0  0  0  0  0  0  0  0  0  0
    5.1248   -2.3789   -3.0041 H   0  0  0  0  0  0  0  0  0  0  0  0
    3.0040   -0.4534   -4.1569 H   0  0  0  0  0  0  0  0  0  0  0  0
    4.2123   -1.4671   -5.0886 H   0  0  0  0  0  0  0  0  0  0  0  0
    3.2288   -3.5710   -4.0908 H   0  0  0  0  0  0  0  0  0  0  0  0
    2.0089   -2.5410   -3.1757 H   0  0  0  0  0  0  0  0  0  0  0  0
    4.2594   -1.1831    0.3404 H   0  0  0  0  0  0  0  0  0  0  0  0
  1  2  1  0
  1 24  1  0
  2 12  1  0
  2  3  2  3
  3 15  1  0
  3  4  1  0
  4  5  1  0
  5 16  1  0
  5  6  1  0
  5 25  1  6
  6  7  1  0
  6  8  1  0
  6 26  1  6
  7 27  1  0
  8 19  1  0
  8  9  1  6
  8 10  1  0
  9 28  1  0
 10 11  1  0
 10 13  1  0
 10 29  1  6
 11 12  2  3
 11 30  1  0
 12 31  1  0
 13 14  1  0
 13 32  1  0
 13 33  1  0
 14 16  1  0
 14 15  2  0
 15 16  1  0
 16 17  1  1
 17 18  1  0
 17 34  1  0
 17 35  1  0
 18 19  1  0
 18 36  1  0
 18 37  1  0
 19 20  1  0
 19 45  1  1
 20 21  1  0
 20 38  1  0
 20 39  1  0
 21 23  1  0
 21 22  1  0
 21 40  1  0
 22 23  1  0
 22 41  1  0
 22 42  1  0
 23 43  1  0
 23 44  1  0
M  CHG  1  19   1
M  END
>  <i_m_ct_stereo_status>  (354) 
1

>  <s_m_source_file>  (354) 
/var/tmp/pbs.5076255.sched01/tmp9yj1qf5s/135tauqa2n_.sdf

>  <i_m_source_file_index>  (354) 
1

>  <i_lp_mmshare_version>  (354) 
48012

>  <i_f3d_flags>  (354) 
2

>  <s_epik_input>  (354) 
W0NIMl0xW0NIMl1bQ0hdMVtDSDJdTihbQ0gyXVtDSDJdMilbQ0BAXShbT0hdKShbQ0BASF0zW09IXSlbQ0BASF0oL1tDSF09W0NIXVxDPTRcW09IXSlbQ0gyXUM1PUM2QzRcT1tDQEBIXTNDMjU2

>  <s_epik_cmdline>  (354) 
J2VwaWtfcHl0aG9uJywgJy1waHQnLCAnMi4wJywgJy1waCcsICc3LjAnLCAnLXRuJywgJzgnLCAnLW1hJywgJzIwMCcsICctaW1hZScsICc8aW5maWxlLm1hZT4nLCAnLW9tYWUnLCAnPG91dGZpbGUubWFlPic=

>  <r_epik_Ionization_Penalty>  (354) 
1.75538

>  <r_epik_Ionization_Penalty_Charging>  (354) 
1.62539

>  <r_epik_Ionization_Penalty_Neutral>  (354) 
0.129993

>  <r_epik_State_Penalty>  (354) 
1.73236

>  <r_epik_Charging_Adjusted_Penalty>  (354) 
3.35775

>  <i_epik_Tot_Q>  (354) 
1

>  <i_epik_Tot_abs_Q>  (354) 
1

>  <s_lp_Force_Field>  (354) 
OPLS3e

>  <r_lp_Energy>  (354) 
172.101

>  <b_lp_Chiralities_Consistent>  (354) 
0

>  <s_lp_Variant>  (354) 
83:0-7

>  <s_i_glide_gridfile>  (354) 
pfpi4k_grid

>  <i_i_glide_lignum>  (354) 
1

>  <i_i_glide_rotatable_bonds>  (354) 
5

>  <r_i_docking_score>  (354) 
-3.92389

>  <r_i_glide_ligand_efficiency>  (354) 
-0.170604

>  <r_i_glide_ligand_efficiency_sa>  (354) 
-0.485175

>  <r_i_glide_ligand_efficiency_ln>  (354) 
-0.948832

>  <r_i_glide_gscore>  (354) 
-3.92389

>  <r_i_glide_lipo>  (354) 
-0.604802

>  <r_i_glide_hbond>  (354) 
0

>  <r_i_glide_metal>  (354) 
-0

>  <r_i_glide_rewards>  (354) 
-1.25201

>  <r_i_glide_evdw>  (354) 
-21.1383

>  <r_i_glide_ecoul>  (354) 
-8.94542

>  <r_i_glide_erotb>  (354) 
0.371978

>  <r_i_glide_esite>  (354) 
-0.0403236

>  <r_i_glide_emodel>  (354) 
-36.4851

>  <r_i_glide_energy>  (354) 
-30.0837

>  <r_i_glide_einternal>  (354) 
3.15989

>  <r_i_glide_intrahb_reward>  (354) 
-0

>  <i_i_glide_confnum>  (354) 
2

>  <i_i_glide_posenum>  (354) 
34

>  <r_i_glide_eff_state_penalty>  (354) 
0

>  <ligand_id>  (354) 
83

>  <original_smiles>  (354) 
OC1=C2OC3C(O)C4(O)C(C=C1)CC1=C2C13CCN4CC1CC1

>  <smiles>  (354) 
[H]OC1=C2OC3([H])C([H])(O[H])C4(O[H])C([H])(C([H])=C1[H])C([H])([H])C1=C2C13C([H])([H])C([H])([H])[N+]4([H])C([H])([H])C1([H])C([H])([H])C1([H])[H]

$$$$
83:7:0
     RDKit          3D

 45 50  0  0  1  0  0  0  0  0999 V2000
    3.7282   -3.5311   -3.3495 O   0  0  0  0  0  0  0  0  0  0  0  0
    4.7355   -3.0103   -2.6379 C   0  0  0  0  0  0  0  0  0  0  0  0
    5.4255   -3.7269   -1.7279 C   0  0  0  0  0  0  0  0  0  0  0  0
    6.4137   -3.0600   -1.0686 O   0  0  0  0  0  0  0  0  0  0  0  0
    6.4222   -3.3769    0.3142 C   0  0  1  0  0  0  0  0  0  0  0  0
    6.2324   -2.0634    1.0648 C   0  0  1  0  0  0  0  0  0  0  0  0
    7.0302   -1.0574    0.4558 O   0  0  0  0  0  0  0  0  0  0  0  0
    4.7519   -1.6831    1.3116 C   0  0  1  0  0  0  0  0  0  0  0  0
    4.7970   -0.3502    1.7794 O   0  0  0  0  0  0  0  0  0  0  0  0
    3.8042   -1.6692    0.0595 C   0  0  1  0  0  0  0  0  0  0  0  0
    4.3541   -1.0174   -1.2304 C   0  0  0  0  0  0  0  0  0  0  0  0
    4.7067   -1.5818   -2.4152 C   0  0  0  0  0  0  0  0  0  0  0  0
    3.0362   -2.9885   -0.1487 C   0  0  0  0  0  0  0  0  0  0  0  0
    3.8834   -4.2467   -0.1705 C   0  0  0  0  0  0  0  0  0  0  0  0
    4.8371   -4.6252   -0.9259 C   0  0  0  0  0  0  0  0  0  0  0  0
    5.2846   -4.3697    0.4787 C   0  0  1  0  0  0  0  0  0  0  0  0
    4.9687   -4.8967    1.8608 C   0  0  0  0  0  0  0  0  0  0  0  0
    4.8096   -3.7586    2.9114 C   0  0  0  0  0  0  0  0  0  0  0  0
    4.1299   -2.4790    2.4698 N   0  0  1  0  0  0  0  0  0  0  0  0
    3.5694   -1.7270    3.6442 C   0  0  0  0  0  0  0  0  0  0  0  0
    4.6161   -1.2749    4.6600 C   0  0  0  0  0  0  0  0  0  0  0  0
    4.2455   -0.2908    5.7485 C   0  0  0  0  0  0  0  0  0  0  0  0
    5.1717    0.1352    4.6450 C   0  0  0  0  0  0  0  0  0  0  0  0
    3.6509   -4.4455   -3.1125 H   0  0  0  0  0  0  0  0  0  0  0  0
    7.3746   -3.8382    0.5768 H   0  0  0  0  0  0  0  0  0  0  0  0
    6.6970   -2.1553    2.0386 H   0  0  0  0  0  0  0  0  0  0  0  0
    7.1404   -0.3445    1.0715 H   0  0  0  0  0  0  0  0  0  0  0  0
    4.2489    0.1864    1.2263 H   0  0  0  0  0  0  0  0  0  0  0  0
    2.9983   -0.9802    0.3128 H   0  0  0  0  0  0  0  0  0  0  0  0
    4.4149    0.0565   -1.1906 H   0  0  0  0  0  0  0  0  0  0  0  0
    5.0167   -0.9232   -3.2070 H   0  0  0  0  0  0  0  0  0  0  0  0
    2.3421   -3.1057    0.6847 H   0  0  0  0  0  0  0  0  0  0  0  0
    2.4029   -2.9362   -1.0385 H   0  0  0  0  0  0  0  0  0  0  0  0
    4.0671   -5.5086    1.8271 H   0  0  0  0  0  0  0  0  0  0  0  0
    5.7552   -5.5792    2.1825 H   0  0  0  0  0  0  0  0  0  0  0  0
    4.2226   -4.1795    3.7277 H   0  0  0  0  0  0  0  0  0  0  0  0
    5.7795   -3.5454    3.3559 H   0  0  0  0  0  0  0  0  0  0  0  0
    2.9564   -0.8827    3.3311 H   0  0  0  0  0  0  0  0  0  0  0  0
    2.8652   -2.3782    4.1588 H   0  0  0  0  0  0  0  0  0  0  0  0
    5.2847   -2.0627    5.0034 H   0  0  0  0  0  0  0  0  0  0  0  0
    3.2420    0.1318    5.7388 H   0  0  0  0  0  0  0  0  0  0  0  0
    4.6993   -0.4004    6.7299 H   0  0  0  0  0  0  0  0  0  0  0  0
    6.2362    0.2335    4.8487 H   0  0  0  0  0  0  0  0  0  0  0  0
    4.7649    0.8477    3.9290 H   0  0  0  0  0  0  0  0  0  0  0  0
    3.2831   -2.8132    2.0300 H   0  0  0  0  0  0  0  0  0  0  0  0
  1  2  1  0
  1 24  1  0
  2 12  1  0
  2  3  2  3
  3 15  1  0
  3  4  1  0
  4  5  1  0
  5 16  1  0
  5  6  1  0
  5 25  1  1
  6  7  1  0
  6  8  1  0
  6 26  1  1
  7 27  1  0
  8 19  1  0
  8  9  1  1
  8 10  1  0
  9 28  1  0
 10 11  1  0
 10 13  1  0
 10 29  1  1
 11 12  2  3
 11 30  1  0
 12 31  1  0
 13 14  1  0
 13 32  1  0
 13 33  1  0
 14 16  1  0
 14 15  2  0
 15 16  1  0
 16 17  1  1
 17 18  1  0
 17 34  1  0
 17 35  1  0
 18 19  1  0
 18 36  1  0
 18 37  1  0
 19 20  1  0
 19 45  1  6
 20 21  1  0
 20 38  1  0
 20 39  1  0
 21 23  1  0
 21 22  1  0
 21 40  1  0
 22 23  1  0
 22 41  1  0
 22 42  1  0
 23 43  1  0
 23 44  1  0
M  CHG  1  19   1
M  END
>  <i_m_ct_stereo_status>  (355) 
1

>  <s_m_source_file>  (355) 
/var/tmp/pbs.5076255.sched01/tmp9yj1qf5s/135tauqa2n_.sdf

>  <i_m_source_file_index>  (355) 
2

>  <i_lp_mmshare_version>  (355) 
48012

>  <i_f3d_flags>  (355) 
3

>  <s_epik_input>  (355) 
W0NIMl0xW0NIMl1bQ0hdMVtDSDJdTihbQ0gyXVtDSDJdMilbQ0BAXShbT0hdKShbQ0BASF0zW09IXSlbQ0BASF0oL1tDSF09W0NIXVxDPTRcW09IXSlbQ0gyXUM1PUM2QzRcT1tDQEBIXTNDMjU2

>  <s_epik_cmdline>  (355) 
J2VwaWtfcHl0aG9uJywgJy1waHQnLCAnMi4wJywgJy1waCcsICc3LjAnLCAnLXRuJywgJzgnLCAnLW1hJywgJzIwMCcsICctaW1hZScsICc8aW5maWxlLm1hZT4nLCAnLW9tYWUnLCAnPG91dGZpbGUubWFlPic=

>  <r_epik_Ionization_Penalty>  (355) 
1.75538

>  <r_epik_Ionization_Penalty_Charging>  (355) 
1.62539

>  <r_epik_Ionization_Penalty_Neutral>  (355) 
0.129993

>  <r_epik_State_Penalty>  (355) 
1.73236

>  <r_epik_Charging_Adjusted_Penalty>  (355) 
3.35775

>  <i_epik_Tot_Q>  (355) 
1

>  <i_epik_Tot_abs_Q>  (355) 
1

>  <s_lp_Force_Field>  (355) 
OPLS3e

>  <r_lp_Energy>  (355) 
135.397

>  <b_lp_Chiralities_Consistent>  (355) 
0

>  <s_lp_Variant>  (355) 
83:0-8

>  <s_i_glide_gridfile>  (355) 
pfpi4k_grid

>  <i_i_glide_lignum>  (355) 
2

>  <i_i_glide_rotatable_bonds>  (355) 
5

>  <r_i_docking_score>  (355) 
-4.47975

>  <r_i_glide_ligand_efficiency>  (355) 
-0.194772

>  <r_i_glide_ligand_efficiency_sa>  (355) 
-0.553905

>  <r_i_glide_ligand_efficiency_ln>  (355) 
-1.08324

>  <r_i_glide_gscore>  (355) 
-4.47975

>  <r_i_glide_lipo>  (355) 
-0.584284

>  <r_i_glide_hbond>  (355) 
-0.30339

>  <r_i_glide_metal>  (355) 
-0

>  <r_i_glide_rewards>  (355) 
-1.30443

>  <r_i_glide_evdw>  (355) 
-22.6763

>  <r_i_glide_ecoul>  (355) 
-10.1721

>  <r_i_glide_erotb>  (355) 
0.371978

>  <r_i_glide_esite>  (355) 
0

>  <r_i_glide_emodel>  (355) 
-41.1254

>  <r_i_glide_energy>  (355) 
-32.8483

>  <r_i_glide_einternal>  (355) 
1.78129

>  <r_i_glide_intrahb_reward>  (355) 
-0

>  <i_i_glide_confnum>  (355) 
1

>  <i_i_glide_posenum>  (355) 
20

>  <r_i_glide_eff_state_penalty>  (355) 
0

>  <ligand_id>  (355) 
83

>  <original_smiles>  (355) 
OC1=C2OC3C(O)C4(O)C(C=C1)CC1=C2C13CCN4CC1CC1

>  <smiles>  (355) 
[H]OC1=C2OC3([H])C([H])(O[H])C4(O[H])C([H])(C([H])=C1[H])C([H])([H])C1=C2C13C([H])([H])C([H])([H])[N+]4([H])C([H])([H])C1([H])C([H])([H])C1([H])[H]

$$$$
83:7:1
     RDKit          3D

 45 50  0  0  1  0  0  0  0  0999 V2000
    4.1529   -3.8488   -3.3225 O   0  0  0  0  0  0  0  0  0  0  0  0
    5.0002   -3.1496   -2.5531 C   0  0  0  0  0  0  0  0  0  0  0  0
    5.6148   -3.6955   -1.4829 C   0  0  0  0  0  0  0  0  0  0  0  0
    6.4626   -2.8766   -0.7978 O   0  0  0  0  0  0  0  0  0  0  0  0
    6.3052   -3.0251    0.6055 C   0  0  1  0  0  0  0  0  0  0  0  0
    5.9384   -1.6538    1.1658 C   0  0  1  0  0  0  0  0  0  0  0  0
    6.7166   -0.6882    0.4740 O   0  0  0  0  0  0  0  0  0  0  0  0
    4.4150   -1.3465    1.1859 C   0  0  1  0  0  0  0  0  0  0  0  0
    4.3406    0.0385    1.4985 O   0  0  0  0  0  0  0  0  0  0  0  0
    3.6482   -1.5457   -0.1692 C   0  0  1  0  0  0  0  0  0  0  0  0
    4.3088   -1.0221   -1.4634 C   0  0  0  0  0  0  0  0  0  0  0  0
    4.8306   -1.7087   -2.5132 C   0  0  0  0  0  0  0  0  0  0  0  0
    3.0028   -2.9372   -0.3059 C   0  0  0  0  0  0  0  0  0  0  0  0
    3.9194   -4.1190   -0.0629 C   0  0  0  0  0  0  0  0  0  0  0  0
    4.9763   -4.5291   -0.6568 C   0  0  0  0  0  0  0  0  0  0  0  0
    5.2281   -4.0826    0.7578 C   0  0  1  0  0  0  0  0  0  0  0  0
    4.7553   -4.4456    2.1470 C   0  0  0  0  0  0  0  0  0  0  0  0
    4.3878   -3.1981    3.0155 C   0  0  0  0  0  0  0  0  0  0  0  0
    3.6677   -2.0516    2.3314 N   0  0  1  0  0  0  0  0  0  0  0  0
    2.9215   -1.1858    3.3130 C   0  0  0  0  0  0  0  0  0  0  0  0
    1.8163   -1.9152    4.0673 C   0  0  0  0  0  0  0  0  0  0  0  0
    1.1150   -1.2180    5.2168 C   0  0  0  0  0  0  0  0  0  0  0  0
    2.0243   -2.3879    5.4904 C   0  0  0  0  0  0  0  0  0  0  0  0
    4.0399   -4.7110   -2.9449 H   0  0  0  0  0  0  0  0  0  0  0  0
    7.2424   -3.3678    1.0359 H   0  0  0  0  0  0  0  0  0  0  0  0
    6.3133   -1.5775    2.1848 H   0  0  0  0  0  0  0  0  0  0  0  0
    7.0504   -0.0575    1.1035 H   0  0  0  0  0  0  0  0  0  0  0  0
    4.6051    0.5241    0.7271 H   0  0  0  0  0  0  0  0  0  0  0  0
    2.7844   -0.8909   -0.0930 H   0  0  0  0  0  0  0  0  0  0  0  0
    4.2857    0.0501   -1.5745 H   0  0  0  0  0  0  0  0  0  0  0  0
    5.1697   -1.1203   -3.3453 H   0  0  0  0  0  0  0  0  0  0  0  0
    2.2111   -3.0163    0.4430 H   0  0  0  0  0  0  0  0  0  0  0  0
    2.4795   -3.0464   -1.2628 H   0  0  0  0  0  0  0  0  0  0  0  0
    3.9037   -5.1250    2.0876 H   0  0  0  0  0  0  0  0  0  0  0  0
    5.5282   -5.0234    2.6520 H   0  0  0  0  0  0  0  0  0  0  0  0
    3.7462   -3.5911    3.7997 H   0  0  0  0  0  0  0  0  0  0  0  0
    5.2643   -2.8346    3.5512 H   0  0  0  0  0  0  0  0  0  0  0  0
    3.6265   -0.7425    4.0205 H   0  0  0  0  0  0  0  0  0  0  0  0
    2.4125   -0.3639    2.8028 H   0  0  0  0  0  0  0  0  0  0  0  0
    1.1614   -2.5129    3.4351 H   0  0  0  0  0  0  0  0  0  0  0  0
    1.4660   -0.2326    5.5172 H   0  0  0  0  0  0  0  0  0  0  0  0
    0.0502   -1.3883    5.3580 H   0  0  0  0  0  0  0  0  0  0  0  0
    1.5603   -3.3296    5.7782 H   0  0  0  0  0  0  0  0  0  0  0  0
    2.9928   -2.1870    5.9462 H   0  0  0  0  0  0  0  0  0  0  0  0
    2.9168   -2.4968    1.8264 H   0  0  0  0  0  0  0  0  0  0  0  0
  1  2  1  0
  1 24  1  0
  2 12  1  0
  2  3  2  3
  3 15  1  0
  3  4  1  0
  4  5  1  0
  5 16  1  0
  5  6  1  0
  5 25  1  1
  6  7  1  0
  6  8  1  0
  6 26  1  1
  7 27  1  0
  8 19  1  0
  8  9  1  1
  8 10  1  0
  9 28  1  0
 10 11  1  0
 10 13  1  0
 10 29  1  1
 11 12  2  3
 11 30  1  0
 12 31  1  0
 13 14  1  0
 13 32  1  0
 13 33  1  0
 14 16  1  0
 14 15  2  0
 15 16  1  0
 16 17  1  1
 17 18  1  0
 17 34  1  0
 17 35  1  0
 18 19  1  0
 18 36  1  0
 18 37  1  0
 19 20  1  0
 19 45  1  6
 20 21  1  0
 20 38  1  0
 20 39  1  0
 21 23  1  0
 21 22  1  0
 21 40  1  0
 22 23  1  0
 22 41  1  0
 22 42  1  0
 23 43  1  0
 23 44  1  0
M  CHG  1  19   1
M  END
>  <i_m_ct_stereo_status>  (356) 
1

>  <s_m_source_file>  (356) 
/var/tmp/pbs.5076255.sched01/tmp9yj1qf5s/135tauqa2n_.sdf

>  <i_m_source_file_index>  (356) 
2

>  <i_lp_mmshare_version>  (356) 
48012

>  <i_f3d_flags>  (356) 
3

>  <s_epik_input>  (356) 
W0NIMl0xW0NIMl1bQ0hdMVtDSDJdTihbQ0gyXVtDSDJdMilbQ0BAXShbT0hdKShbQ0BASF0zW09IXSlbQ0BASF0oL1tDSF09W0NIXVxDPTRcW09IXSlbQ0gyXUM1PUM2QzRcT1tDQEBIXTNDMjU2

>  <s_epik_cmdline>  (356) 
J2VwaWtfcHl0aG9uJywgJy1waHQnLCAnMi4wJywgJy1waCcsICc3LjAnLCAnLXRuJywgJzgnLCAnLW1hJywgJzIwMCcsICctaW1hZScsICc8aW5maWxlLm1hZT4nLCAnLW9tYWUnLCAnPG91dGZpbGUubWFlPic=

>  <r_epik_Ionization_Penalty>  (356) 
1.75538

>  <r_epik_Ionization_Penalty_Charging>  (356) 
1.62539

>  <r_epik_Ionization_Penalty_Neutral>  (356) 
0.129993

>  <r_epik_State_Penalty>  (356) 
1.73236

>  <r_epik_Charging_Adjusted_Penalty>  (356) 
3.35775

>  <i_epik_Tot_Q>  (356) 
1

>  <i_epik_Tot_abs_Q>  (356) 
1

>  <s_lp_Force_Field>  (356) 
OPLS3e

>  <r_lp_Energy>  (356) 
135.397

>  <b_lp_Chiralities_Consistent>  (356) 
0

>  <s_lp_Variant>  (356) 
83:0-8

>  <s_i_glide_gridfile>  (356) 
pfpi4k_grid

>  <i_i_glide_lignum>  (356) 
2

>  <i_i_glide_rotatable_bonds>  (356) 
5

>  <r_i_docking_score>  (356) 
-4.40131

>  <r_i_glide_ligand_efficiency>  (356) 
-0.191361

>  <r_i_glide_ligand_efficiency_sa>  (356) 
-0.544206

>  <r_i_glide_ligand_efficiency_ln>  (356) 
-1.06428

>  <r_i_glide_gscore>  (356) 
-4.40131

>  <r_i_glide_lipo>  (356) 
-0.563823

>  <r_i_glide_hbond>  (356) 
-0.294446

>  <r_i_glide_metal>  (356) 
-0

>  <r_i_glide_rewards>  (356) 
-1.25516

>  <r_i_glide_evdw>  (356) 
-19.141

>  <r_i_glide_ecoul>  (356) 
-11.3461

>  <r_i_glide_erotb>  (356) 
0.371978

>  <r_i_glide_esite>  (356) 
-0.000896244

>  <r_i_glide_emodel>  (356) 
-38.548

>  <r_i_glide_energy>  (356) 
-30.4871

>  <r_i_glide_einternal>  (356) 
1.44106

>  <r_i_glide_intrahb_reward>  (356) 
-0

>  <i_i_glide_confnum>  (356) 
1

>  <i_i_glide_posenum>  (356) 
12

>  <r_i_glide_eff_state_penalty>  (356) 
0

>  <ligand_id>  (356) 
83

>  <original_smiles>  (356) 
OC1=C2OC3C(O)C4(O)C(C=C1)CC1=C2C13CCN4CC1CC1

>  <smiles>  (356) 
[H]OC1=C2OC3([H])C([H])(O[H])C4(O[H])C([H])(C([H])=C1[H])C([H])([H])C1=C2C13C([H])([H])C([H])([H])[N+]4([H])C([H])([H])C1([H])C([H])([H])C1([H])[H]

$$$$
83:7:2
     RDKit          3D

 45 50  0  0  1  0  0  0  0  0999 V2000
    3.7250   -3.4980   -3.3366 O   0  0  0  0  0  0  0  0  0  0  0  0
    4.7271   -2.9842   -2.6146 C   0  0  0  0  0  0  0  0  0  0  0  0
    5.4094   -3.7149   -1.7017 C   0  0  0  0  0  0  0  0  0  0  0  0
    6.3940   -3.0511   -1.0296 O   0  0  0  0  0  0  0  0  0  0  0  0
    6.3847   -3.3732    0.3522 C   0  0  1  0  0  0  0  0  0  0  0  0
    6.1861   -2.0634    1.1126 C   0  0  1  0  0  0  0  0  0  0  0  0
    6.9833   -1.0572    0.4968 O   0  0  0  0  0  0  0  0  0  0  0  0
    4.6991   -1.6817    1.3601 C   0  0  1  0  0  0  0  0  0  0  0  0
    4.7567   -0.3596    1.8767 O   0  0  0  0  0  0  0  0  0  0  0  0
    3.7735   -1.6545    0.0911 C   0  0  1  0  0  0  0  0  0  0  0  0
    4.3410   -1.0004   -1.1906 C   0  0  0  0  0  0  0  0  0  0  0  0
    4.6997   -1.5589   -2.3767 C   0  0  0  0  0  0  0  0  0  0  0  0
    3.0113   -2.9762   -0.1393 C   0  0  0  0  0  0  0  0  0  0  0  0
    3.8494   -4.2394   -0.1641 C   0  0  0  0  0  0  0  0  0  0  0  0
    4.8114   -4.6105   -0.9125 C   0  0  0  0  0  0  0  0  0  0  0  0
    5.2430   -4.3646    0.4993 C   0  0  1  0  0  0  0  0  0  0  0  0
    4.9158   -4.8990    1.8744 C   0  0  0  0  0  0  0  0  0  0  0  0
    4.7437   -3.7665    2.9293 C   0  0  0  0  0  0  0  0  0  0  0  0
    4.0399   -2.4973    2.4887 N   0  0  1  0  0  0  0  0  0  0  0  0
    3.4743   -1.7354    3.6581 C   0  0  0  0  0  0  0  0  0  0  0  0
    2.4594   -2.5124    4.4822 C   0  0  0  0  0  0  0  0  0  0  0  0
    1.9594   -1.9351    5.7925 C   0  0  0  0  0  0  0  0  0  0  0  0
    2.8446   -3.1530    5.7979 C   0  0  0  0  0  0  0  0  0  0  0  0
    3.6480   -4.4162   -3.1113 H   0  0  0  0  0  0  0  0  0  0  0  0
    7.3349   -3.8404    0.6216 H   0  0  0  0  0  0  0  0  0  0  0  0
    6.6464   -2.1658    2.0862 H   0  0  0  0  0  0  0  0  0  0  0  0
    7.1129   -0.3509    1.1192 H   0  0  0  0  0  0  0  0  0  0  0  0
    4.2747    0.2086    1.2925 H   0  0  0  0  0  0  0  0  0  0  0  0
    2.9642   -0.9670    0.3388 H   0  0  0  0  0  0  0  0  0  0  0  0
    4.3976    0.0741   -1.1489 H   0  0  0  0  0  0  0  0  0  0  0  0
    5.0153   -0.8947   -3.1633 H   0  0  0  0  0  0  0  0  0  0  0  0
    2.3032   -3.1009    0.6800 H   0  0  0  0  0  0  0  0  0  0  0  0
    2.3876   -2.9173   -1.0326 H   0  0  0  0  0  0  0  0  0  0  0  0
    4.0144   -5.5117    1.8263 H   0  0  0  0  0  0  0  0  0  0  0  0
    5.6918   -5.5922    2.2006 H   0  0  0  0  0  0  0  0  0  0  0  0
    4.1692   -4.2291    3.7246 H   0  0  0  0  0  0  0  0  0  0  0  0
    5.6966   -3.5381    3.4014 H   0  0  0  0  0  0  0  0  0  0  0  0
    4.2842   -1.3934    4.3039 H   0  0  0  0  0  0  0  0  0  0  0  0
    2.9344   -0.8488    3.3226 H   0  0  0  0  0  0  0  0  0  0  0  0
    1.6930   -3.0112    3.8929 H   0  0  0  0  0  0  0  0  0  0  0  0
    2.3922   -1.0024    6.1497 H   0  0  0  0  0  0  0  0  0  0  0  0
    0.9193   -2.0931    6.0710 H   0  0  0  0  0  0  0  0  0  0  0  0
    2.3852   -4.1098    6.0411 H   0  0  0  0  0  0  0  0  0  0  0  0
    3.8762   -3.0360    6.1249 H   0  0  0  0  0  0  0  0  0  0  0  0
    3.2041   -2.8321    2.0300 H   0  0  0  0  0  0  0  0  0  0  0  0
  1  2  1  0
  1 24  1  0
  2 12  1  0
  2  3  2  3
  3 15  1  0
  3  4  1  0
  4  5  1  0
  5 16  1  0
  5  6  1  0
  5 25  1  1
  6  7  1  0
  6  8  1  0
  6 26  1  1
  7 27  1  0
  8 19  1  0
  8  9  1  1
  8 10  1  0
  9 28  1  0
 10 11  1  0
 10 13  1  0
 10 29  1  1
 11 12  2  3
 11 30  1  0
 12 31  1  0
 13 14  1  0
 13 32  1  0
 13 33  1  0
 14 16  1  0
 14 15  2  0
 15 16  1  0
 16 17  1  1
 17 18  1  0
 17 34  1  0
 17 35  1  0
 18 19  1  0
 18 36  1  0
 18 37  1  0
 19 20  1  0
 19 45  1  6
 20 21  1  0
 20 38  1  0
 20 39  1  0
 21 23  1  0
 21 22  1  0
 21 40  1  0
 22 23  1  0
 22 41  1  0
 22 42  1  0
 23 43  1  0
 23 44  1  0
M  CHG  1  19   1
M  END
>  <i_m_ct_stereo_status>  (357) 
1

>  <s_m_source_file>  (357) 
/var/tmp/pbs.5076255.sched01/tmp9yj1qf5s/135tauqa2n_.sdf

>  <i_m_source_file_index>  (357) 
2

>  <i_lp_mmshare_version>  (357) 
48012

>  <i_f3d_flags>  (357) 
3

>  <s_epik_input>  (357) 
W0NIMl0xW0NIMl1bQ0hdMVtDSDJdTihbQ0gyXVtDSDJdMilbQ0BAXShbT0hdKShbQ0BASF0zW09IXSlbQ0BASF0oL1tDSF09W0NIXVxDPTRcW09IXSlbQ0gyXUM1PUM2QzRcT1tDQEBIXTNDMjU2

>  <s_epik_cmdline>  (357) 
J2VwaWtfcHl0aG9uJywgJy1waHQnLCAnMi4wJywgJy1waCcsICc3LjAnLCAnLXRuJywgJzgnLCAnLW1hJywgJzIwMCcsICctaW1hZScsICc8aW5maWxlLm1hZT4nLCAnLW9tYWUnLCAnPG91dGZpbGUubWFlPic=

>  <r_epik_Ionization_Penalty>  (357) 
1.75538

>  <r_epik_Ionization_Penalty_Charging>  (357) 
1.62539

>  <r_epik_Ionization_Penalty_Neutral>  (357) 
0.129993

>  <r_epik_State_Penalty>  (357) 
1.73236

>  <r_epik_Charging_Adjusted_Penalty>  (357) 
3.35775

>  <i_epik_Tot_Q>  (357) 
1

>  <i_epik_Tot_abs_Q>  (357) 
1

>  <s_lp_Force_Field>  (357) 
OPLS3e

>  <r_lp_Energy>  (357) 
135.397

>  <b_lp_Chiralities_Consistent>  (357) 
0

>  <s_lp_Variant>  (357) 
83:0-8

>  <s_i_glide_gridfile>  (357) 
pfpi4k_grid

>  <i_i_glide_lignum>  (357) 
2

>  <i_i_glide_rotatable_bonds>  (357) 
5

>  <r_i_docking_score>  (357) 
-4.27543

>  <r_i_glide_ligand_efficiency>  (357) 
-0.185888

>  <r_i_glide_ligand_efficiency_sa>  (357) 
-0.528641

>  <r_i_glide_ligand_efficiency_ln>  (357) 
-1.03384

>  <r_i_glide_gscore>  (357) 
-4.27543

>  <r_i_glide_lipo>  (357) 
-0.46949

>  <r_i_glide_hbond>  (357) 
-0.303919

>  <r_i_glide_metal>  (357) 
-0

>  <r_i_glide_rewards>  (357) 
-1.30025

>  <r_i_glide_evdw>  (357) 
-21.8353

>  <r_i_glide_ecoul>  (357) 
-9.87986

>  <r_i_glide_erotb>  (357) 
0.371978

>  <r_i_glide_esite>  (357) 
0

>  <r_i_glide_emodel>  (357) 
-40.1427

>  <r_i_glide_energy>  (357) 
-31.7152

>  <r_i_glide_einternal>  (357) 
0.795584

>  <r_i_glide_intrahb_reward>  (357) 
-0

>  <i_i_glide_confnum>  (357) 
1

>  <i_i_glide_posenum>  (357) 
15

>  <r_i_glide_eff_state_penalty>  (357) 
0

>  <ligand_id>  (357) 
83

>  <original_smiles>  (357) 
OC1=C2OC3C(O)C4(O)C(C=C1)CC1=C2C13CCN4CC1CC1

>  <smiles>  (357) 
[H]OC1=C2OC3([H])C([H])(O[H])C4(O[H])C([H])(C([H])=C1[H])C([H])([H])C1=C2C13C([H])([H])C([H])([H])[N+]4([H])C([H])([H])C1([H])C([H])([H])C1([H])[H]

$$$$
83:8:0
     RDKit          3D

 44 49  0  0  1  0  0  0  0  0999 V2000
    3.3911   -1.3893    1.5274 O   0  0  0  0  0  0  0  0  0  0  0  0
    3.9123   -2.5328    1.0650 C   0  0  0  0  0  0  0  0  0  0  0  0
    4.6830   -3.2340    1.9258 C   0  0  0  0  0  0  0  0  0  0  0  0
    4.2239   -3.1616    3.1988 O   0  0  0  0  0  0  0  0  0  0  0  0
    3.8735   -4.5129    3.5442 C   0  0  1  0  0  0  0  0  0  0  0  0
    2.3935   -4.8170    3.1070 C   0  0  1  0  0  0  0  0  0  0  0  0
    1.7069   -3.5745    2.9347 O   0  0  0  0  0  0  0  0  0  0  0  0
    2.1332   -5.8578    1.9261 C   0  0  1  0  0  0  0  0  0  0  0  0
    0.8235   -5.8650    1.7143 O   0  0  0  0  0  0  0  0  0  0  0  0
    2.7742   -5.5744    0.4980 C   0  0  1  0  0  0  0  0  0  0  0  0
    2.6411   -4.2495   -0.2698 C   0  0  0  0  0  0  0  0  0  0  0  0
    3.2430   -3.0505   -0.1066 C   0  0  0  0  0  0  0  0  0  0  0  0
    4.1810   -6.0852    0.3092 C   0  0  0  0  0  0  0  0  0  0  0  0
    5.1599   -5.5022    1.2925 C   0  0  0  0  0  0  0  0  0  0  0  0
    5.3558   -4.3947    1.8281 C   0  0  0  0  0  0  0  0  0  0  0  0
    4.9397   -5.3598    2.8574 C   0  0  1  0  0  0  0  0  0  0  0  0
    4.9614   -6.8395    3.1959 C   0  0  0  0  0  0  0  0  0  0  0  0
    3.5551   -7.4500    3.4253 C   0  0  0  0  0  0  0  0  0  0  0  0
    2.5111   -7.3001    2.3351 N   0  0  1  0  0  0  0  0  0  0  0  0
    1.3950   -8.3067    2.5323 C   0  0  0  0  0  0  0  0  0  0  0  0
    1.8641   -9.7636    2.6481 C   0  0  0  0  0  0  0  0  0  0  0  0
    0.9722  -10.8226    3.2694 C   0  0  0  0  0  0  0  0  0  0  0  0
    2.2001  -10.3595    4.0035 C   0  0  0  0  0  0  0  0  0  0  0  0
    2.7108   -1.1004    0.9305 H   0  0  0  0  0  0  0  0  0  0  0  0
    3.9570   -4.6129    4.6158 H   0  0  0  0  0  0  0  0  0  0  0  0
    1.8900   -5.2379    3.9810 H   0  0  0  0  0  0  0  0  0  0  0  0
    2.1122   -3.1261    2.2049 H   0  0  0  0  0  0  0  0  0  0  0  0
    2.2041   -6.2266   -0.1582 H   0  0  0  0  0  0  0  0  0  0  0  0
    2.1246   -4.3567   -1.2136 H   0  0  0  0  0  0  0  0  0  0  0  0
    3.0787   -2.3310   -0.9037 H   0  0  0  0  0  0  0  0  0  0  0  0
    4.2161   -7.1752    0.4246 H   0  0  0  0  0  0  0  0  0  0  0  0
    4.5515   -5.8777   -0.7073 H   0  0  0  0  0  0  0  0  0  0  0  0
    5.5527   -7.4398    2.4976 H   0  0  0  0  0  0  0  0  0  0  0  0
    5.4949   -6.9373    4.1369 H   0  0  0  0  0  0  0  0  0  0  0  0
    3.7887   -8.5094    3.5439 H   0  0  0  0  0  0  0  0  0  0  0  0
    3.1315   -7.1272    4.3861 H   0  0  0  0  0  0  0  0  0  0  0  0
    0.7990   -8.0548    3.4175 H   0  0  0  0  0  0  0  0  0  0  0  0
    0.7002   -8.3021    1.6842 H   0  0  0  0  0  0  0  0  0  0  0  0
    2.4676  -10.1009    1.8047 H   0  0  0  0  0  0  0  0  0  0  0  0
    0.0073  -10.5160    3.6661 H   0  0  0  0  0  0  0  0  0  0  0  0
    1.0116  -11.8361    2.8733 H   0  0  0  0  0  0  0  0  0  0  0  0
    3.0551  -11.0340    4.0509 H   0  0  0  0  0  0  0  0  0  0  0  0
    2.0679   -9.7146    4.8740 H   0  0  0  0  0  0  0  0  0  0  0  0
    2.9412   -7.6394    1.4861 H   0  0  0  0  0  0  0  0  0  0  0  0
  1  2  1  0
  1 24  1  0
  2 12  1  0
  2  3  2  3
  3 15  1  0
  3  4  1  0
  4  5  1  0
  5 16  1  0
  5  6  1  0
  5 25  1  1
  6  7  1  0
  6  8  1  0
  6 26  1  1
  7 27  1  0
  8 19  1  0
  8  9  1  6
  8 10  1  0
 10 11  1  0
 10 13  1  0
 10 28  1  6
 11 12  2  3
 11 29  1  0
 12 30  1  0
 13 14  1  0
 13 31  1  0
 13 32  1  0
 14 16  1  0
 14 15  2  0
 15 16  1  0
 16 17  1  1
 17 18  1  0
 17 33  1  0
 17 34  1  0
 18 19  1  0
 18 35  1  0
 18 36  1  0
 19 20  1  0
 19 44  1  6
 20 21  1  0
 20 37  1  0
 20 38  1  0
 21 23  1  0
 21 22  1  0
 21 39  1  0
 22 23  1  0
 22 40  1  0
 22 41  1  0
 23 42  1  0
 23 43  1  0
M  CHG  2   9  -1  19   1
M  END
>  <i_m_ct_stereo_status>  (358) 
1

>  <s_m_source_file>  (358) 
/var/tmp/pbs.5076255.sched01/tmp9yj1qf5s/135tauqa2n_.sdf

>  <i_m_source_file_index>  (358) 
3

>  <i_lp_mmshare_version>  (358) 
48012

>  <i_f3d_flags>  (358) 
2

>  <s_epik_input>  (358) 
W0NIMl0xW0NIMl1bQ0hdMVtDSDJdTihbQ0gyXVtDSDJdMilbQ0BAXShbT0hdKShbQ0BASF0zW09IXSlbQ0BASF0oL1tDSF09W0NIXVxDPTRcW09IXSlbQ0gyXUM1PUM2QzRcT1tDQEBIXTNDMjU2

>  <s_epik_cmdline>  (358) 
J2VwaWtfcHl0aG9uJywgJy1waHQnLCAnMi4wJywgJy1waCcsICc3LjAnLCAnLXRuJywgJzgnLCAnLW1hJywgJzIwMCcsICctaW1hZScsICc8aW5maWxlLm1hZT4nLCAnLW9tYWUnLCAnPG91dGZpbGUubWFlPic=

>  <r_epik_Ionization_Penalty>  (358) 
0.979854

>  <r_epik_Ionization_Penalty_Charging>  (358) 
0.979631

>  <r_epik_Ionization_Penalty_Neutral>  (358) 
0.000223455

>  <r_epik_State_Penalty>  (358) 
2.64285

>  <r_epik_Charging_Adjusted_Penalty>  (358) 
3.62248

>  <i_epik_Tot_Q>  (358) 
0

>  <i_epik_Tot_abs_Q>  (358) 
2

>  <s_lp_Force_Field>  (358) 
OPLS3e

>  <r_lp_Energy>  (358) 
167.998

>  <b_lp_Chiralities_Consistent>  (358) 
0

>  <s_lp_Variant>  (358) 
83:0-9

>  <s_i_glide_gridfile>  (358) 
pfpi4k_grid

>  <i_i_glide_lignum>  (358) 
3

>  <i_i_glide_rotatable_bonds>  (358) 
4

>  <r_i_docking_score>  (358) 
-3.33714

>  <r_i_glide_ligand_efficiency>  (358) 
-0.145093

>  <r_i_glide_ligand_efficiency_sa>  (358) 
-0.412625

>  <r_i_glide_ligand_efficiency_ln>  (358) 
-0.80695

>  <r_i_glide_gscore>  (358) 
-3.33714

>  <r_i_glide_lipo>  (358) 
-0.449955

>  <r_i_glide_hbond>  (358) 
-0.168682

>  <r_i_glide_metal>  (358) 
-0

>  <r_i_glide_rewards>  (358) 
-1.25888

>  <r_i_glide_evdw>  (358) 
-19.1848

>  <r_i_glide_ecoul>  (358) 
-5.63931

>  <r_i_glide_erotb>  (358) 
0.374073

>  <r_i_glide_esite>  (358) 
-0.02855

>  <r_i_glide_emodel>  (358) 
-33.2353

>  <r_i_glide_energy>  (358) 
-24.8241

>  <r_i_glide_einternal>  (358) 
0.281012

>  <r_i_glide_intrahb_reward>  (358) 
-0

>  <i_i_glide_confnum>  (358) 
3

>  <i_i_glide_posenum>  (358) 
11

>  <r_i_glide_eff_state_penalty>  (358) 
0

>  <ligand_id>  (358) 
83

>  <original_smiles>  (358) 
OC1=C2OC3C(O)C4(O)C(C=C1)CC1=C2C13CCN4CC1CC1

>  <smiles>  (358) 
[H]OC1=C2OC3([H])C([H])(O[H])C4([O-])C([H])(C([H])=C1[H])C([H])([H])C1=C2C13C([H])([H])C([H])([H])[N+]4([H])C([H])([H])C1([H])C([H])([H])C1([H])[H]

$$$$
83:8:1
     RDKit          3D

 44 49  0  0  1  0  0  0  0  0999 V2000
    3.6421   -1.5374    1.9136 O   0  0  0  0  0  0  0  0  0  0  0  0
    4.1228   -2.6906    1.4148 C   0  0  0  0  0  0  0  0  0  0  0  0
    4.8201   -3.4766    2.2546 C   0  0  0  0  0  0  0  0  0  0  0  0
    4.3189   -3.4393    3.5166 O   0  0  0  0  0  0  0  0  0  0  0  0
    3.8751   -4.7829    3.7834 C   0  0  1  0  0  0  0  0  0  0  0  0
    2.4001   -4.9770    3.2854 C   0  0  1  0  0  0  0  0  0  0  0  0
    1.7940   -3.6896    3.1535 O   0  0  0  0  0  0  0  0  0  0  0  0
    2.1363   -5.9430    2.0487 C   0  0  1  0  0  0  0  0  0  0  0  0
    0.8391   -5.8703    1.8002 O   0  0  0  0  0  0  0  0  0  0  0  0
    2.8266   -5.6306    0.6554 C   0  0  1  0  0  0  0  0  0  0  0  0
    2.7962   -4.2623   -0.0426 C   0  0  0  0  0  0  0  0  0  0  0  0
    3.4619   -3.1096    0.2006 C   0  0  0  0  0  0  0  0  0  0  0  0
    4.2150   -6.2074    0.4894 C   0  0  0  0  0  0  0  0  0  0  0  0
    5.1828   -5.7359    1.5153 C   0  0  0  0  0  0  0  0  0  0  0  0
    5.4283   -4.6628    2.1285 C   0  0  0  0  0  0  0  0  0  0  0  0
    4.8985   -5.6666    3.0775 C   0  0  1  0  0  0  0  0  0  0  0  0
    4.8407   -7.1549    3.3523 C   0  0  0  0  0  0  0  0  0  0  0  0
    3.3979   -7.6918    3.5054 C   0  0  0  0  0  0  0  0  0  0  0  0
    2.4041   -7.4231    2.3928 N   0  0  1  0  0  0  0  0  0  0  0  0
    1.2268   -8.3713    2.5024 C   0  0  0  0  0  0  0  0  0  0  0  0
    1.6113   -9.8527    2.5154 C   0  0  0  0  0  0  0  0  0  0  0  0
    0.6181  -10.9036    2.9706 C   0  0  0  0  0  0  0  0  0  0  0  0
    1.8182  -10.5928    3.8239 C   0  0  0  0  0  0  0  0  0  0  0  0
    3.9651   -1.4464    2.7953 H   0  0  0  0  0  0  0  0  0  0  0  0
    3.9222   -4.9436    4.8550 H   0  0  0  0  0  0  0  0  0  0  0  0
    1.8457   -5.4114    4.1196 H   0  0  0  0  0  0  0  0  0  0  0  0
    2.2180   -3.2405    2.4335 H   0  0  0  0  0  0  0  0  0  0  0  0
    2.2390   -6.2158   -0.0557 H   0  0  0  0  0  0  0  0  0  0  0  0
    2.3129   -4.2899   -1.0079 H   0  0  0  0  0  0  0  0  0  0  0  0
    3.3653   -2.3417   -0.5540 H   0  0  0  0  0  0  0  0  0  0  0  0
    4.1742   -7.2991    0.5431 H   0  0  0  0  0  0  0  0  0  0  0  0
    4.6138   -5.9765   -0.5021 H   0  0  0  0  0  0  0  0  0  0  0  0
    5.4245   -7.7447    2.6454 H   0  0  0  0  0  0  0  0  0  0  0  0
    5.3408   -7.3270    4.3009 H   0  0  0  0  0  0  0  0  0  0  0  0
    3.5561   -8.7642    3.5798 H   0  0  0  0  0  0  0  0  0  0  0  0
    2.9649   -7.3911    4.4645 H   0  0  0  0  0  0  0  0  0  0  0  0
    0.6357   -8.1516    3.3963 H   0  0  0  0  0  0  0  0  0  0  0  0
    0.5432   -8.2662    1.6540 H   0  0  0  0  0  0  0  0  0  0  0  0
    2.2439  -10.1519    1.6801 H   0  0  0  0  0  0  0  0  0  0  0  0
   -0.3500  -10.5746    3.3402 H   0  0  0  0  0  0  0  0  0  0  0  0
    0.6183  -11.8752    2.4801 H   0  0  0  0  0  0  0  0  0  0  0  0
    2.6249  -11.3241    3.8601 H   0  0  0  0  0  0  0  0  0  0  0  0
    1.6648  -10.0255    4.7416 H   0  0  0  0  0  0  0  0  0  0  0  0
    2.8399   -7.7447    1.5400 H   0  0  0  0  0  0  0  0  0  0  0  0
  1  2  1  0
  1 24  1  0
  2 12  1  0
  2  3  2  3
  3 15  1  0
  3  4  1  0
  4  5  1  0
  5 16  1  0
  5  6  1  0
  5 25  1  1
  6  7  1  0
  6  8  1  0
  6 26  1  1
  7 27  1  0
  8 19  1  0
  8  9  1  6
  8 10  1  0
 10 11  1  0
 10 13  1  0
 10 28  1  6
 11 12  2  3
 11 29  1  0
 12 30  1  0
 13 14  1  0
 13 31  1  0
 13 32  1  0
 14 16  1  0
 14 15  2  0
 15 16  1  0
 16 17  1  1
 17 18  1  0
 17 33  1  0
 17 34  1  0
 18 19  1  0
 18 35  1  0
 18 36  1  0
 19 20  1  0
 19 44  1  6
 20 21  1  0
 20 37  1  0
 20 38  1  0
 21 23  1  0
 21 22  1  0
 21 39  1  0
 22 23  1  0
 22 40  1  0
 22 41  1  0
 23 42  1  0
 23 43  1  0
M  CHG  2   9  -1  19   1
M  END
>  <i_m_ct_stereo_status>  (359) 
1

>  <s_m_source_file>  (359) 
/var/tmp/pbs.5076255.sched01/tmp9yj1qf5s/135tauqa2n_.sdf

>  <i_m_source_file_index>  (359) 
3

>  <i_lp_mmshare_version>  (359) 
48012

>  <i_f3d_flags>  (359) 
2

>  <s_epik_input>  (359) 
W0NIMl0xW0NIMl1bQ0hdMVtDSDJdTihbQ0gyXVtDSDJdMilbQ0BAXShbT0hdKShbQ0BASF0zW09IXSlbQ0BASF0oL1tDSF09W0NIXVxDPTRcW09IXSlbQ0gyXUM1PUM2QzRcT1tDQEBIXTNDMjU2

>  <s_epik_cmdline>  (359) 
J2VwaWtfcHl0aG9uJywgJy1waHQnLCAnMi4wJywgJy1waCcsICc3LjAnLCAnLXRuJywgJzgnLCAnLW1hJywgJzIwMCcsICctaW1hZScsICc8aW5maWxlLm1hZT4nLCAnLW9tYWUnLCAnPG91dGZpbGUubWFlPic=

>  <r_epik_Ionization_Penalty>  (359) 
0.979854

>  <r_epik_Ionization_Penalty_Charging>  (359) 
0.979631

>  <r_epik_Ionization_Penalty_Neutral>  (359) 
0.000223455

>  <r_epik_State_Penalty>  (359) 
2.64285

>  <r_epik_Charging_Adjusted_Penalty>  (359) 
3.62248

>  <i_epik_Tot_Q>  (359) 
0

>  <i_epik_Tot_abs_Q>  (359) 
2

>  <s_lp_Force_Field>  (359) 
OPLS3e

>  <r_lp_Energy>  (359) 
167.998

>  <b_lp_Chiralities_Consistent>  (359) 
0

>  <s_lp_Variant>  (359) 
83:0-9

>  <s_i_glide_gridfile>  (359) 
pfpi4k_grid

>  <i_i_glide_lignum>  (359) 
3

>  <i_i_glide_rotatable_bonds>  (359) 
4

>  <r_i_docking_score>  (359) 
-3.09562

>  <r_i_glide_ligand_efficiency>  (359) 
-0.134592

>  <r_i_glide_ligand_efficiency_sa>  (359) 
-0.382762

>  <r_i_glide_ligand_efficiency_ln>  (359) 
-0.748549

>  <r_i_glide_gscore>  (359) 
-3.09562

>  <r_i_glide_lipo>  (359) 
-0.453981

>  <r_i_glide_hbond>  (359) 
-0.161298

>  <r_i_glide_metal>  (359) 
-0

>  <r_i_glide_rewards>  (359) 
-1.25888

>  <r_i_glide_evdw>  (359) 
-19.5165

>  <r_i_glide_ecoul>  (359) 
-3.95162

>  <r_i_glide_erotb>  (359) 
0.374073

>  <r_i_glide_esite>  (359) 
-0.0269608

>  <r_i_glide_emodel>  (359) 
-31.43

>  <r_i_glide_energy>  (359) 
-23.4681

>  <r_i_glide_einternal>  (359) 
0.115237

>  <r_i_glide_intrahb_reward>  (359) 
-0

>  <i_i_glide_confnum>  (359) 
3

>  <i_i_glide_posenum>  (359) 
1

>  <r_i_glide_eff_state_penalty>  (359) 
0

>  <ligand_id>  (359) 
83

>  <original_smiles>  (359) 
OC1=C2OC3C(O)C4(O)C(C=C1)CC1=C2C13CCN4CC1CC1

>  <smiles>  (359) 
[H]OC1=C2OC3([H])C([H])(O[H])C4([O-])C([H])(C([H])=C1[H])C([H])([H])C1=C2C13C([H])([H])C([H])([H])[N+]4([H])C([H])([H])C1([H])C([H])([H])C1([H])[H]

$$$$
83:8:2
     RDKit          3D

 44 49  0  0  1  0  0  0  0  0999 V2000
    5.1241   -1.6121   -1.7037 O   0  0  0  0  0  0  0  0  0  0  0  0
    5.5943   -2.4838   -0.7995 C   0  0  0  0  0  0  0  0  0  0  0  0
    5.6055   -2.0834    0.4889 C   0  0  0  0  0  0  0  0  0  0  0  0
    4.5369   -1.3131    0.8045 O   0  0  0  0  0  0  0  0  0  0  0  0
    3.8174   -2.0594    1.8119 C   0  0  1  0  0  0  0  0  0  0  0  0
    2.8221   -3.0641    1.1419 C   0  0  1  0  0  0  0  0  0  0  0  0
    2.6200   -2.6711   -0.2074 O   0  0  0  0  0  0  0  0  0  0  0  0
    3.0972   -4.6219    1.2656 C   0  0  1  0  0  0  0  0  0  0  0  0
    2.1234   -5.1717    0.5706 O   0  0  0  0  0  0  0  0  0  0  0  0
    4.4409   -5.2326    0.6895 C   0  0  1  0  0  0  0  0  0  0  0  0
    4.9976   -4.9400   -0.7096 C   0  0  0  0  0  0  0  0  0  0  0  0
    5.5998   -3.8546   -1.2514 C   0  0  0  0  0  0  0  0  0  0  0  0
    5.6054   -5.1929    1.6492 C   0  0  0  0  0  0  0  0  0  0  0  0
    5.9587   -3.8217    2.1051 C   0  0  0  0  0  0  0  0  0  0  0  0
    5.9820   -2.6716    1.6252 C   0  0  0  0  0  0  0  0  0  0  0  0
    4.9074   -2.7452    2.6273 C   0  0  1  0  0  0  0  0  0  0  0  0
    4.4941   -3.4286    3.9154 C   0  0  0  0  0  0  0  0  0  0  0  0
    3.1232   -4.1504    3.8122 C   0  0  0  0  0  0  0  0  0  0  0  0
    2.9119   -5.1437    2.6949 N   0  0  1  0  0  0  0  0  0  0  0  0
    1.7107   -6.0121    3.0080 C   0  0  0  0  0  0  0  0  0  0  0  0
    1.8123   -7.4600    2.5167 C   0  0  0  0  0  0  0  0  0  0  0  0
    0.7224   -8.4524    2.8811 C   0  0  0  0  0  0  0  0  0  0  0  0
    2.1022   -8.6025    3.4677 C   0  0  0  0  0  0  0  0  0  0  0  0
    4.7589   -0.8810   -1.2298 H   0  0  0  0  0  0  0  0  0  0  0  0
    3.2723   -1.3520    2.4304 H   0  0  0  0  0  0  0  0  0  0  0  0
    1.8512   -2.8988    1.6115 H   0  0  0  0  0  0  0  0  0  0  0  0
    1.9931   -1.9413   -0.2557 H   0  0  0  0  0  0  0  0  0  0  0  0
    4.2388   -6.3038    0.6004 H   0  0  0  0  0  0  0  0  0  0  0  0
    5.0512   -5.8338   -1.3109 H   0  0  0  0  0  0  0  0  0  0  0  0
    6.0207   -3.9925   -2.2389 H   0  0  0  0  0  0  0  0  0  0  0  0
    5.3871   -5.7983    2.5307 H   0  0  0  0  0  0  0  0  0  0  0  0
    6.4975   -5.6339    1.2069 H   0  0  0  0  0  0  0  0  0  0  0  0
    5.2742   -4.0731    4.3189 H   0  0  0  0  0  0  0  0  0  0  0  0
    4.3957   -2.6551    4.6739 H   0  0  0  0  0  0  0  0  0  0  0  0
    3.0284   -4.6881    4.7562 H   0  0  0  0  0  0  0  0  0  0  0  0
    2.3140   -3.4151    3.8109 H   0  0  0  0  0  0  0  0  0  0  0  0
    1.5576   -6.0754    4.0838 H   0  0  0  0  0  0  0  0  0  0  0  0
    0.7799   -5.5715    2.6416 H   0  0  0  0  0  0  0  0  0  0  0  0
    2.1804   -7.5767    1.5003 H   0  0  0  0  0  0  0  0  0  0  0  0
   -0.0738   -8.1334    3.5504 H   0  0  0  0  0  0  0  0  0  0  0  0
    0.4239   -9.1881    2.1365 H   0  0  0  0  0  0  0  0  0  0  0  0
    2.7209   -9.4162    3.0906 H   0  0  0  0  0  0  0  0  0  0  0  0
    2.2403   -8.3597    4.5205 H   0  0  0  0  0  0  0  0  0  0  0  0
    3.6736   -5.8006    2.7644 H   0  0  0  0  0  0  0  0  0  0  0  0
  1  2  1  0
  1 24  1  0
  2 12  1  0
  2  3  2  3
  3 15  1  0
  3  4  1  0
  4  5  1  0
  5 16  1  0
  5  6  1  0
  5 25  1  1
  6  7  1  0
  6  8  1  0
  6 26  1  1
  7 27  1  0
  8 19  1  0
  8  9  1  6
  8 10  1  0
 10 11  1  0
 10 13  1  0
 10 28  1  6
 11 12  2  3
 11 29  1  0
 12 30  1  0
 13 14  1  0
 13 31  1  0
 13 32  1  0
 14 16  1  0
 14 15  2  0
 15 16  1  0
 16 17  1  1
 17 18  1  0
 17 33  1  0
 17 34  1  0
 18 19  1  0
 18 35  1  0
 18 36  1  0
 19 20  1  0
 19 44  1  1
 20 21  1  0
 20 37  1  0
 20 38  1  0
 21 23  1  0
 21 22  1  0
 21 39  1  0
 22 23  1  0
 22 40  1  0
 22 41  1  0
 23 42  1  0
 23 43  1  0
M  CHG  2   9  -1  19   1
M  END
>  <i_m_ct_stereo_status>  (360) 
1

>  <s_m_source_file>  (360) 
/var/tmp/pbs.5076255.sched01/tmp9yj1qf5s/135tauqa2n_.sdf

>  <i_m_source_file_index>  (360) 
3

>  <i_lp_mmshare_version>  (360) 
48012

>  <i_f3d_flags>  (360) 
2

>  <s_epik_input>  (360) 
W0NIMl0xW0NIMl1bQ0hdMVtDSDJdTihbQ0gyXVtDSDJdMilbQ0BAXShbT0hdKShbQ0BASF0zW09IXSlbQ0BASF0oL1tDSF09W0NIXVxDPTRcW09IXSlbQ0gyXUM1PUM2QzRcT1tDQEBIXTNDMjU2

>  <s_epik_cmdline>  (360) 
J2VwaWtfcHl0aG9uJywgJy1waHQnLCAnMi4wJywgJy1waCcsICc3LjAnLCAnLXRuJywgJzgnLCAnLW1hJywgJzIwMCcsICctaW1hZScsICc8aW5maWxlLm1hZT4nLCAnLW9tYWUnLCAnPG91dGZpbGUubWFlPic=

>  <r_epik_Ionization_Penalty>  (360) 
0.979854

>  <r_epik_Ionization_Penalty_Charging>  (360) 
0.979631

>  <r_epik_Ionization_Penalty_Neutral>  (360) 
0.000223455

>  <r_epik_State_Penalty>  (360) 
2.64285

>  <r_epik_Charging_Adjusted_Penalty>  (360) 
3.62248

>  <i_epik_Tot_Q>  (360) 
0

>  <i_epik_Tot_abs_Q>  (360) 
2

>  <s_lp_Force_Field>  (360) 
OPLS3e

>  <r_lp_Energy>  (360) 
167.998

>  <b_lp_Chiralities_Consistent>  (360) 
0

>  <s_lp_Variant>  (360) 
83:0-9

>  <s_i_glide_gridfile>  (360) 
pfpi4k_grid

>  <i_i_glide_lignum>  (360) 
3

>  <i_i_glide_rotatable_bonds>  (360) 
4

>  <r_i_docking_score>  (360) 
-3.06342

>  <r_i_glide_ligand_efficiency>  (360) 
-0.133192

>  <r_i_glide_ligand_efficiency_sa>  (360) 
-0.378781

>  <r_i_glide_ligand_efficiency_ln>  (360) 
-0.740763

>  <r_i_glide_gscore>  (360) 
-3.06342

>  <r_i_glide_lipo>  (360) 
-0.375357

>  <r_i_glide_hbond>  (360) 
-0.0443832

>  <r_i_glide_metal>  (360) 
-0

>  <r_i_glide_rewards>  (360) 
-1.25888

>  <r_i_glide_evdw>  (360) 
-16.6168

>  <r_i_glide_ecoul>  (360) 
-6.15794

>  <r_i_glide_erotb>  (360) 
0.374073

>  <r_i_glide_esite>  (360) 
-0.00433836

>  <r_i_glide_emodel>  (360) 
-29.7022

>  <r_i_glide_energy>  (360) 
-22.7747

>  <r_i_glide_einternal>  (360) 
1.74984

>  <r_i_glide_intrahb_reward>  (360) 
-0

>  <i_i_glide_confnum>  (360) 
3

>  <i_i_glide_posenum>  (360) 
9

>  <r_i_glide_eff_state_penalty>  (360) 
0

>  <ligand_id>  (360) 
83

>  <original_smiles>  (360) 
OC1=C2OC3C(O)C4(O)C(C=C1)CC1=C2C13CCN4CC1CC1

>  <smiles>  (360) 
[H]OC1=C2OC3([H])C([H])(O[H])C4([O-])C([H])(C([H])=C1[H])C([H])([H])C1=C2C13C([H])([H])C([H])([H])[N+]4([H])C([H])([H])C1([H])C([H])([H])C1([H])[H]

$$$$
83:9:0
     RDKit          3D

 44 49  0  0  1  0  0  0  0  0999 V2000
    3.6500   -3.4494   -3.2502 O   0  0  0  0  0  0  0  0  0  0  0  0
    4.6731   -2.9529   -2.5427 C   0  0  0  0  0  0  0  0  0  0  0  0
    5.3802   -3.6972   -1.6766 C   0  0  0  0  0  0  0  0  0  0  0  0
    6.3872   -3.0612   -1.0189 O   0  0  0  0  0  0  0  0  0  0  0  0
    6.3997   -3.3994    0.3619 C   0  0  1  0  0  0  0  0  0  0  0  0
    6.2612   -2.0944    1.1469 C   0  0  1  0  0  0  0  0  0  0  0  0
    7.0611   -1.0989    0.5024 O   0  0  0  0  0  0  0  0  0  0  0  0
    4.7948   -1.6660    1.4785 C   0  0  1  0  0  0  0  0  0  0  0  0
    4.9492   -0.4590    1.9856 O   0  0  0  0  0  0  0  0  0  0  0  0
    3.8311   -1.6120    0.2248 C   0  0  1  0  0  0  0  0  0  0  0  0
    4.3698   -0.9681   -1.0751 C   0  0  0  0  0  0  0  0  0  0  0  0
    4.6731   -1.5169   -2.2822 C   0  0  0  0  0  0  0  0  0  0  0  0
    3.0332   -2.9193   -0.0036 C   0  0  0  0  0  0  0  0  0  0  0  0
    3.8601   -4.1913   -0.0842 C   0  0  0  0  0  0  0  0  0  0  0  0
    4.7745   -4.5885   -0.8730 C   0  0  0  0  0  0  0  0  0  0  0  0
    5.2586   -4.3833    0.5283 C   0  0  1  0  0  0  0  0  0  0  0  0
    4.9326   -4.9221    1.9072 C   0  0  0  0  0  0  0  0  0  0  0  0
    4.8412   -3.8006    2.9825 C   0  0  0  0  0  0  0  0  0  0  0  0
    4.1343   -2.5246    2.5757 N   0  0  1  0  0  0  0  0  0  0  0  0
    3.5214   -1.8255    3.7680 C   0  0  0  0  0  0  0  0  0  0  0  0
    2.4195   -2.6424    4.4446 C   0  0  0  0  0  0  0  0  0  0  0  0
    1.8364   -2.2021    5.7750 C   0  0  0  0  0  0  0  0  0  0  0  0
    2.6984   -3.4338    5.7100 C   0  0  0  0  0  0  0  0  0  0  0  0
    3.5741   -4.3748   -3.0528 H   0  0  0  0  0  0  0  0  0  0  0  0
    7.3457   -3.8770    0.6013 H   0  0  0  0  0  0  0  0  0  0  0  0
    6.7745   -2.2092    2.0925 H   0  0  0  0  0  0  0  0  0  0  0  0
    7.0980   -0.3647    1.1072 H   0  0  0  0  0  0  0  0  0  0  0  0
    3.0398   -0.9166    0.4967 H   0  0  0  0  0  0  0  0  0  0  0  0
    4.4601    0.1035   -0.9986 H   0  0  0  0  0  0  0  0  0  0  0  0
    4.9804   -0.8511   -3.0692 H   0  0  0  0  0  0  0  0  0  0  0  0
    2.3532   -3.0743    0.8410 H   0  0  0  0  0  0  0  0  0  0  0  0
    2.3906   -2.8452   -0.8890 H   0  0  0  0  0  0  0  0  0  0  0  0
    3.9956   -5.4829    1.8819 H   0  0  0  0  0  0  0  0  0  0  0  0
    5.6851   -5.6492    2.2035 H   0  0  0  0  0  0  0  0  0  0  0  0
    4.2999   -4.2570    3.8094 H   0  0  0  0  0  0  0  0  0  0  0  0
    5.8220   -3.5778    3.3980 H   0  0  0  0  0  0  0  0  0  0  0  0
    4.2886   -1.5676    4.5030 H   0  0  0  0  0  0  0  0  0  0  0  0
    3.0454   -0.8853    3.4809 H   0  0  0  0  0  0  0  0  0  0  0  0
    1.6936   -3.0661    3.7504 H   0  0  0  0  0  0  0  0  0  0  0  0
    2.2578   -1.3219    6.2567 H   0  0  0  0  0  0  0  0  0  0  0  0
    0.7749   -2.3642    5.9534 H   0  0  0  0  0  0  0  0  0  0  0  0
    2.2089   -4.4021    5.8124 H   0  0  0  0  0  0  0  0  0  0  0  0
    3.7060   -3.3771    6.1219 H   0  0  0  0  0  0  0  0  0  0  0  0
    3.3052   -2.8274    2.0795 H   0  0  0  0  0  0  0  0  0  0  0  0
  1  2  1  0
  1 24  1  0
  2 12  1  0
  2  3  2  3
  3 15  1  0
  3  4  1  0
  4  5  1  0
  5 16  1  0
  5  6  1  0
  5 25  1  1
  6  7  1  0
  6  8  1  0
  6 26  1  1
  7 27  1  0
  8 19  1  0
  8  9  1  1
  8 10  1  0
 10 11  1  0
 10 13  1  0
 10 28  1  1
 11 12  2  3
 11 29  1  0
 12 30  1  0
 13 14  1  0
 13 31  1  0
 13 32  1  0
 14 16  1  0
 14 15  2  0
 15 16  1  0
 16 17  1  1
 17 18  1  0
 17 33  1  0
 17 34  1  0
 18 19  1  0
 18 35  1  0
 18 36  1  0
 19 20  1  0
 19 44  1  6
 20 21  1  0
 20 37  1  0
 20 38  1  0
 21 23  1  0
 21 22  1  0
 21 39  1  0
 22 23  1  0
 22 40  1  0
 22 41  1  0
 23 42  1  0
 23 43  1  0
M  CHG  2   9  -1  19   1
M  END
>  <i_m_ct_stereo_status>  (361) 
1

>  <s_m_source_file>  (361) 
/var/tmp/pbs.5076255.sched01/tmp9yj1qf5s/135tauqa2n_.sdf

>  <i_m_source_file_index>  (361) 
4

>  <i_lp_mmshare_version>  (361) 
48012

>  <i_f3d_flags>  (361) 
2

>  <s_epik_input>  (361) 
W0NIMl0xW0NIMl1bQ0hdMVtDSDJdTihbQ0gyXVtDSDJdMilbQ0BAXShbT0hdKShbQ0BASF0zW09IXSlbQ0BASF0oL1tDSF09W0NIXVxDPTRcW09IXSlbQ0gyXUM1PUM2QzRcT1tDQEBIXTNDMjU2

>  <s_epik_cmdline>  (361) 
J2VwaWtfcHl0aG9uJywgJy1waHQnLCAnMi4wJywgJy1waCcsICc3LjAnLCAnLXRuJywgJzgnLCAnLW1hJywgJzIwMCcsICctaW1hZScsICc8aW5maWxlLm1hZT4nLCAnLW9tYWUnLCAnPG91dGZpbGUubWFlPic=

>  <r_epik_Ionization_Penalty>  (361) 
0.979854

>  <r_epik_Ionization_Penalty_Charging>  (361) 
0.979631

>  <r_epik_Ionization_Penalty_Neutral>  (361) 
0.000223455

>  <r_epik_State_Penalty>  (361) 
2.64285

>  <r_epik_Charging_Adjusted_Penalty>  (361) 
3.62248

>  <i_epik_Tot_Q>  (361) 
0

>  <i_epik_Tot_abs_Q>  (361) 
2

>  <s_lp_Force_Field>  (361) 
OPLS3e

>  <r_lp_Energy>  (361) 
147.17

>  <b_lp_Chiralities_Consistent>  (361) 
0

>  <s_lp_Variant>  (361) 
83:0-10

>  <s_i_glide_gridfile>  (361) 
pfpi4k_grid

>  <i_i_glide_lignum>  (361) 
4

>  <i_i_glide_rotatable_bonds>  (361) 
4

>  <r_i_docking_score>  (361) 
-3.92994

>  <r_i_glide_ligand_efficiency>  (361) 
-0.170867

>  <r_i_glide_ligand_efficiency_sa>  (361) 
-0.485923

>  <r_i_glide_ligand_efficiency_ln>  (361) 
-0.950296

>  <r_i_glide_gscore>  (361) 
-3.92994

>  <r_i_glide_lipo>  (361) 
-0.444825

>  <r_i_glide_hbond>  (361) 
-0.304

>  <r_i_glide_metal>  (361) 
-0

>  <r_i_glide_rewards>  (361) 
-1.32227

>  <r_i_glide_evdw>  (361) 
-20.5949

>  <r_i_glide_ecoul>  (361) 
-8.02117

>  <r_i_glide_erotb>  (361) 
0.374073

>  <r_i_glide_esite>  (361) 
0

>  <r_i_glide_emodel>  (361) 
-38.0497

>  <r_i_glide_energy>  (361) 
-28.616

>  <r_i_glide_einternal>  (361) 
0.517629

>  <r_i_glide_intrahb_reward>  (361) 
-0

>  <i_i_glide_confnum>  (361) 
1

>  <i_i_glide_posenum>  (361) 
3

>  <r_i_glide_eff_state_penalty>  (361) 
0

>  <ligand_id>  (361) 
83

>  <original_smiles>  (361) 
OC1=C2OC3C(O)C4(O)C(C=C1)CC1=C2C13CCN4CC1CC1

>  <smiles>  (361) 
[H]OC1=C2OC3([H])C([H])(O[H])C4([O-])C([H])(C([H])=C1[H])C([H])([H])C1=C2C13C([H])([H])C([H])([H])[N+]4([H])C([H])([H])C1([H])C([H])([H])C1([H])[H]

$$$$
83:9:1
     RDKit          3D

 44 49  0  0  1  0  0  0  0  0999 V2000
    3.4972   -2.5316   -3.3416 O   0  0  0  0  0  0  0  0  0  0  0  0
    4.5903   -2.1613   -2.6535 C   0  0  0  0  0  0  0  0  0  0  0  0
    5.4506   -3.0661   -2.1516 C   0  0  0  0  0  0  0  0  0  0  0  0
    6.5074   -2.5491   -1.4589 O   0  0  0  0  0  0  0  0  0  0  0  0
    6.7299   -3.2754   -0.2578 C   0  0  1  0  0  0  0  0  0  0  0  0
    6.6358   -2.2800    0.8896 C   0  0  1  0  0  0  0  0  0  0  0  0
    7.2743   -1.0671    0.4900 O   0  0  0  0  0  0  0  0  0  0  0  0
    5.2124   -2.1148    1.5173 C   0  0  1  0  0  0  0  0  0  0  0  0
    5.3707   -1.0988    2.3354 O   0  0  0  0  0  0  0  0  0  0  0  0
    4.0749   -1.7813    0.4710 C   0  0  1  0  0  0  0  0  0  0  0  0
    4.3909   -0.7381   -0.6205 C   0  0  0  0  0  0  0  0  0  0  0  0
    4.5528   -0.8784   -1.9686 C   0  0  0  0  0  0  0  0  0  0  0  0
    3.3265   -3.0267   -0.0476 C   0  0  0  0  0  0  0  0  0  0  0  0
    4.1967   -4.1381   -0.6127 C   0  0  0  0  0  0  0  0  0  0  0  0
    5.0113   -4.1912   -1.5856 C   0  0  0  0  0  0  0  0  0  0  0  0
    5.6733   -4.3566   -0.2483 C   0  0  1  0  0  0  0  0  0  0  0  0
    5.5847   -5.3137    0.9215 C   0  0  0  0  0  0  0  0  0  0  0  0
    5.5890   -4.5744    2.2880 C   0  0  0  0  0  0  0  0  0  0  0  0
    4.7666   -3.3083    2.3790 N   0  0  1  0  0  0  0  0  0  0  0  0
    4.2946   -3.0479    3.7879 C   0  0  0  0  0  0  0  0  0  0  0  0
    3.3666   -4.1361    4.3267 C   0  0  0  0  0  0  0  0  0  0  0  0
    2.9663   -4.1655    5.7901 C   0  0  0  0  0  0  0  0  0  0  0  0
    3.8858   -5.2258    5.2476 C   0  0  0  0  0  0  0  0  0  0  0  0
    3.4946   -3.4728   -3.3981 H   0  0  0  0  0  0  0  0  0  0  0  0
    7.7232   -3.7149   -0.2873 H   0  0  0  0  0  0  0  0  0  0  0  0
    7.2969   -2.6430    1.6717 H   0  0  0  0  0  0  0  0  0  0  0  0
    7.2409   -0.4894    1.2499 H   0  0  0  0  0  0  0  0  0  0  0  0
    3.2967   -1.2690    1.0367 H   0  0  0  0  0  0  0  0  0  0  0  0
    4.4123    0.2634   -0.2261 H   0  0  0  0  0  0  0  0  0  0  0  0
    4.6985    0.0161   -2.5477 H   0  0  0  0  0  0  0  0  0  0  0  0
    2.7857   -3.4855    0.7861 H   0  0  0  0  0  0  0  0  0  0  0  0
    2.5611   -2.7539   -0.7818 H   0  0  0  0  0  0  0  0  0  0  0  0
    4.6864   -5.9274    0.8394 H   0  0  0  0  0  0  0  0  0  0  0  0
    6.4109   -6.0187    0.8880 H   0  0  0  0  0  0  0  0  0  0  0  0
    5.2009   -5.3023    2.9967 H   0  0  0  0  0  0  0  0  0  0  0  0
    6.6125   -4.3984    2.6169 H   0  0  0  0  0  0  0  0  0  0  0  0
    5.1430   -2.9270    4.4680 H   0  0  0  0  0  0  0  0  0  0  0  0
    3.7201   -2.1206    3.8557 H   0  0  0  0  0  0  0  0  0  0  0  0
    2.5702   -4.4180    3.6369 H   0  0  0  0  0  0  0  0  0  0  0  0
    3.3992   -3.4238    6.4587 H   0  0  0  0  0  0  0  0  0  0  0  0
    1.9586   -4.4877    6.0472 H   0  0  0  0  0  0  0  0  0  0  0  0
    3.4814   -6.2287    5.1140 H   0  0  0  0  0  0  0  0  0  0  0  0
    4.9388   -5.1832    5.5243 H   0  0  0  0  0  0  0  0  0  0  0  0
    3.8894   -3.5296    1.9183 H   0  0  0  0  0  0  0  0  0  0  0  0
  1  2  1  0
  1 24  1  0
  2 12  1  0
  2  3  2  3
  3 15  1  0
  3  4  1  0
  4  5  1  0
  5 16  1  0
  5  6  1  0
  5 25  1  6
  6  7  1  0
  6  8  1  0
  6 26  1  1
  7 27  1  0
  8 19  1  0
  8  9  1  1
  8 10  1  0
 10 11  1  0
 10 13  1  0
 10 28  1  1
 11 12  2  3
 11 29  1  0
 12 30  1  0
 13 14  1  0
 13 31  1  0
 13 32  1  0
 14 16  1  0
 14 15  2  0
 15 16  1  0
 16 17  1  6
 17 18  1  0
 17 33  1  0
 17 34  1  0
 18 19  1  0
 18 35  1  0
 18 36  1  0
 19 20  1  0
 19 44  1  6
 20 21  1  0
 20 37  1  0
 20 38  1  0
 21 23  1  0
 21 22  1  0
 21 39  1  0
 22 23  1  0
 22 40  1  0
 22 41  1  0
 23 42  1  0
 23 43  1  0
M  CHG  2   9  -1  19   1
M  END
>  <i_m_ct_stereo_status>  (362) 
1

>  <s_m_source_file>  (362) 
/var/tmp/pbs.5076255.sched01/tmp9yj1qf5s/135tauqa2n_.sdf

>  <i_m_source_file_index>  (362) 
4

>  <i_lp_mmshare_version>  (362) 
48012

>  <i_f3d_flags>  (362) 
2

>  <s_epik_input>  (362) 
W0NIMl0xW0NIMl1bQ0hdMVtDSDJdTihbQ0gyXVtDSDJdMilbQ0BAXShbT0hdKShbQ0BASF0zW09IXSlbQ0BASF0oL1tDSF09W0NIXVxDPTRcW09IXSlbQ0gyXUM1PUM2QzRcT1tDQEBIXTNDMjU2

>  <s_epik_cmdline>  (362) 
J2VwaWtfcHl0aG9uJywgJy1waHQnLCAnMi4wJywgJy1waCcsICc3LjAnLCAnLXRuJywgJzgnLCAnLW1hJywgJzIwMCcsICctaW1hZScsICc8aW5maWxlLm1hZT4nLCAnLW9tYWUnLCAnPG91dGZpbGUubWFlPic=

>  <r_epik_Ionization_Penalty>  (362) 
0.979854

>  <r_epik_Ionization_Penalty_Charging>  (362) 
0.979631

>  <r_epik_Ionization_Penalty_Neutral>  (362) 
0.000223455

>  <r_epik_State_Penalty>  (362) 
2.64285

>  <r_epik_Charging_Adjusted_Penalty>  (362) 
3.62248

>  <i_epik_Tot_Q>  (362) 
0

>  <i_epik_Tot_abs_Q>  (362) 
2

>  <s_lp_Force_Field>  (362) 
OPLS3e

>  <r_lp_Energy>  (362) 
147.17

>  <b_lp_Chiralities_Consistent>  (362) 
0

>  <s_lp_Variant>  (362) 
83:0-10

>  <s_i_glide_gridfile>  (362) 
pfpi4k_grid

>  <i_i_glide_lignum>  (362) 
4

>  <i_i_glide_rotatable_bonds>  (362) 
4

>  <r_i_docking_score>  (362) 
-3.4507

>  <r_i_glide_ligand_efficiency>  (362) 
-0.15003

>  <r_i_glide_ligand_efficiency_sa>  (362) 
-0.426666

>  <r_i_glide_ligand_efficiency_ln>  (362) 
-0.83441

>  <r_i_glide_gscore>  (362) 
-3.4507

>  <r_i_glide_lipo>  (362) 
-0.592255

>  <r_i_glide_hbond>  (362) 
-0.0466756

>  <r_i_glide_metal>  (362) 
-0

>  <r_i_glide_rewards>  (362) 
-1.34421

>  <r_i_glide_evdw>  (362) 
-20.5944

>  <r_i_glide_ecoul>  (362) 
-5.41271

>  <r_i_glide_erotb>  (362) 
0.374073

>  <r_i_glide_esite>  (362) 
0

>  <r_i_glide_emodel>  (362) 
-34.1886

>  <r_i_glide_energy>  (362) 
-26.0071

>  <r_i_glide_einternal>  (362) 
0.479938

>  <r_i_glide_intrahb_reward>  (362) 
-0

>  <i_i_glide_confnum>  (362) 
1

>  <i_i_glide_posenum>  (362) 
28

>  <r_i_glide_eff_state_penalty>  (362) 
0

>  <ligand_id>  (362) 
83

>  <original_smiles>  (362) 
OC1=C2OC3C(O)C4(O)C(C=C1)CC1=C2C13CCN4CC1CC1

>  <smiles>  (362) 
[H]OC1=C2OC3([H])C([H])(O[H])C4([O-])C([H])(C([H])=C1[H])C([H])([H])C1=C2C13C([H])([H])C([H])([H])[N+]4([H])C([H])([H])C1([H])C([H])([H])C1([H])[H]

$$$$
83:9:2
     RDKit          3D

 44 49  0  0  1  0  0  0  0  0999 V2000
    3.5180   -2.5453   -3.4637 O   0  0  0  0  0  0  0  0  0  0  0  0
    4.5783   -2.1556   -2.7376 C   0  0  0  0  0  0  0  0  0  0  0  0
    5.4374   -3.0502   -2.2138 C   0  0  0  0  0  0  0  0  0  0  0  0
    6.4609   -2.5238   -1.4793 O   0  0  0  0  0  0  0  0  0  0  0  0
    6.6533   -3.2631   -0.2790 C   0  0  1  0  0  0  0  0  0  0  0  0
    6.5081   -2.2880    0.8822 C   0  0  1  0  0  0  0  0  0  0  0  0
    7.1379   -1.0631    0.5089 O   0  0  0  0  0  0  0  0  0  0  0  0
    5.0571   -2.1476    1.4533 C   0  0  1  0  0  0  0  0  0  0  0  0
    5.1713   -1.1413    2.2890 O   0  0  0  0  0  0  0  0  0  0  0  0
    3.9498   -1.8140    0.3735 C   0  0  1  0  0  0  0  0  0  0  0  0
    4.2845   -0.7545   -0.6956 C   0  0  0  0  0  0  0  0  0  0  0  0
    4.4912   -0.8798   -2.0395 C   0  0  0  0  0  0  0  0  0  0  0  0
    3.2379   -3.0619   -0.1835 C   0  0  0  0  0  0  0  0  0  0  0  0
    4.1448   -4.1538   -0.7231 C   0  0  0  0  0  0  0  0  0  0  0  0
    4.9951   -4.1873   -1.6699 C   0  0  0  0  0  0  0  0  0  0  0  0
    5.6112   -4.3591   -0.3201 C   0  0  1  0  0  0  0  0  0  0  0  0
    5.4921   -5.3326    0.8357 C   0  0  0  0  0  0  0  0  0  0  0  0
    5.4382   -4.6116    2.2108 C   0  0  0  0  0  0  0  0  0  0  0  0
    4.5955   -3.3569    2.2851 N   0  0  1  0  0  0  0  0  0  0  0  0
    4.0712   -3.1204    3.6808 C   0  0  0  0  0  0  0  0  0  0  0  0
    3.1371   -4.2260    4.1717 C   0  0  0  0  0  0  0  0  0  0  0  0
    2.6966   -4.2858    5.6227 C   0  0  0  0  0  0  0  0  0  0  0  0
    3.6383   -5.3290    5.0864 C   0  0  0  0  0  0  0  0  0  0  0  0
    2.8532   -1.8807   -3.3856 H   0  0  0  0  0  0  0  0  0  0  0  0
    7.6505   -3.6952   -0.2823 H   0  0  0  0  0  0  0  0  0  0  0  0
    7.1399   -2.6457    1.6802 H   0  0  0  0  0  0  0  0  0  0  0  0
    7.0937   -0.5009    1.2815 H   0  0  0  0  0  0  0  0  0  0  0  0
    3.1438   -1.3213    0.9185 H   0  0  0  0  0  0  0  0  0  0  0  0
    4.2870    0.2426   -0.2885 H   0  0  0  0  0  0  0  0  0  0  0  0
    4.6508    0.0266   -2.5970 H   0  0  0  0  0  0  0  0  0  0  0  0
    2.6754   -3.5419    0.6206 H   0  0  0  0  0  0  0  0  0  0  0  0
    2.4957   -2.7979   -0.9430 H   0  0  0  0  0  0  0  0  0  0  0  0
    4.6037   -5.9574    0.7138 H   0  0  0  0  0  0  0  0  0  0  0  0
    6.3248   -6.0312    0.8222 H   0  0  0  0  0  0  0  0  0  0  0  0
    5.0338   -5.3541    2.8947 H   0  0  0  0  0  0  0  0  0  0  0  0
    6.4451   -4.4228    2.5822 H   0  0  0  0  0  0  0  0  0  0  0  0
    4.8938   -3.0006    4.3906 H   0  0  0  0  0  0  0  0  0  0  0  0
    3.4847   -2.2011    3.7402 H   0  0  0  0  0  0  0  0  0  0  0  0
    2.3625   -4.5000    3.4549 H   0  0  0  0  0  0  0  0  0  0  0  0
    3.1056   -3.5540    6.3168 H   0  0  0  0  0  0  0  0  0  0  0  0
    1.6845   -4.6198    5.8462 H   0  0  0  0  0  0  0  0  0  0  0  0
    3.2461   -6.3325    4.9217 H   0  0  0  0  0  0  0  0  0  0  0  0
    4.6831   -5.2841    5.3919 H   0  0  0  0  0  0  0  0  0  0  0  0
    3.7395   -3.5849    1.7915 H   0  0  0  0  0  0  0  0  0  0  0  0
  1  2  1  0
  1 24  1  0
  2 12  1  0
  2  3  2  3
  3 15  1  0
  3  4  1  0
  4  5  1  0
  5 16  1  0
  5  6  1  0
  5 25  1  6
  6  7  1  0
  6  8  1  0
  6 26  1  1
  7 27  1  0
  8 19  1  0
  8  9  1  1
  8 10  1  0
 10 11  1  0
 10 13  1  0
 10 28  1  1
 11 12  2  3
 11 29  1  0
 12 30  1  0
 13 14  1  0
 13 31  1  0
 13 32  1  0
 14 16  1  0
 14 15  2  0
 15 16  1  0
 16 17  1  6
 17 18  1  0
 17 33  1  0
 17 34  1  0
 18 19  1  0
 18 35  1  0
 18 36  1  0
 19 20  1  0
 19 44  1  6
 20 21  1  0
 20 37  1  0
 20 38  1  0
 21 23  1  0
 21 22  1  0
 21 39  1  0
 22 23  1  0
 22 40  1  0
 22 41  1  0
 23 42  1  0
 23 43  1  0
M  CHG  2   9  -1  19   1
M  END
>  <i_m_ct_stereo_status>  (363) 
1

>  <s_m_source_file>  (363) 
/var/tmp/pbs.5076255.sched01/tmp9yj1qf5s/135tauqa2n_.sdf

>  <i_m_source_file_index>  (363) 
4

>  <i_lp_mmshare_version>  (363) 
48012

>  <i_f3d_flags>  (363) 
2

>  <s_epik_input>  (363) 
W0NIMl0xW0NIMl1bQ0hdMVtDSDJdTihbQ0gyXVtDSDJdMilbQ0BAXShbT0hdKShbQ0BASF0zW09IXSlbQ0BASF0oL1tDSF09W0NIXVxDPTRcW09IXSlbQ0gyXUM1PUM2QzRcT1tDQEBIXTNDMjU2

>  <s_epik_cmdline>  (363) 
J2VwaWtfcHl0aG9uJywgJy1waHQnLCAnMi4wJywgJy1waCcsICc3LjAnLCAnLXRuJywgJzgnLCAnLW1hJywgJzIwMCcsICctaW1hZScsICc8aW5maWxlLm1hZT4nLCAnLW9tYWUnLCAnPG91dGZpbGUubWFlPic=

>  <r_epik_Ionization_Penalty>  (363) 
0.979854

>  <r_epik_Ionization_Penalty_Charging>  (363) 
0.979631

>  <r_epik_Ionization_Penalty_Neutral>  (363) 
0.000223455

>  <r_epik_State_Penalty>  (363) 
2.64285

>  <r_epik_Charging_Adjusted_Penalty>  (363) 
3.62248

>  <i_epik_Tot_Q>  (363) 
0

>  <i_epik_Tot_abs_Q>  (363) 
2

>  <s_lp_Force_Field>  (363) 
OPLS3e

>  <r_lp_Energy>  (363) 
147.17

>  <b_lp_Chiralities_Consistent>  (363) 
0

>  <s_lp_Variant>  (363) 
83:0-10

>  <s_i_glide_gridfile>  (363) 
pfpi4k_grid

>  <i_i_glide_lignum>  (363) 
4

>  <i_i_glide_rotatable_bonds>  (363) 
4

>  <r_i_docking_score>  (363) 
-3.34202

>  <r_i_glide_ligand_efficiency>  (363) 
-0.145305

>  <r_i_glide_ligand_efficiency_sa>  (363) 
-0.413229

>  <r_i_glide_ligand_efficiency_ln>  (363) 
-0.808131

>  <r_i_glide_gscore>  (363) 
-3.34202

>  <r_i_glide_lipo>  (363) 
-0.587426

>  <r_i_glide_hbond>  (363) 
-0.0456697

>  <r_i_glide_metal>  (363) 
-0

>  <r_i_glide_rewards>  (363) 
-1.32554

>  <r_i_glide_evdw>  (363) 
-21.2622

>  <r_i_glide_ecoul>  (363) 
-4.629

>  <r_i_glide_erotb>  (363) 
0.374073

>  <r_i_glide_esite>  (363) 
0

>  <r_i_glide_emodel>  (363) 
-33.5711

>  <r_i_glide_energy>  (363) 
-25.8912

>  <r_i_glide_einternal>  (363) 
0.451018

>  <r_i_glide_intrahb_reward>  (363) 
-0

>  <i_i_glide_confnum>  (363) 
1

>  <i_i_glide_posenum>  (363) 
17

>  <r_i_glide_eff_state_penalty>  (363) 
0

>  <ligand_id>  (363) 
83

>  <original_smiles>  (363) 
OC1=C2OC3C(O)C4(O)C(C=C1)CC1=C2C13CCN4CC1CC1

>  <smiles>  (363) 
[H]OC1=C2OC3([H])C([H])(O[H])C4([O-])C([H])(C([H])=C1[H])C([H])([H])C1=C2C13C([H])([H])C([H])([H])[N+]4([H])C([H])([H])C1([H])C([H])([H])C1([H])[H]

$$$$
83:10:0
     RDKit          3D

 44 49  0  0  1  0  0  0  0  0999 V2000
    3.1173   -2.0510    6.4263 O   0  0  0  0  0  0  0  0  0  0  0  0
    3.0550   -1.1655    5.4240 C   0  0  0  0  0  0  0  0  0  0  0  0
    4.1654   -0.8734    4.6962 C   0  0  0  0  0  0  0  0  0  0  0  0
    4.9972   -1.9430    4.5276 O   0  0  0  0  0  0  0  0  0  0  0  0
    5.1662   -2.1214    3.0995 C   0  0  1  0  0  0  0  0  0  0  0  0
    4.2521   -3.2458    2.5384 C   0  0  1  0  0  0  0  0  0  0  0  0
    3.9611   -4.1186    3.6299 O   0  0  0  0  0  0  0  0  0  0  0  0
    3.0041   -2.8347    1.6385 C   0  0  1  0  0  0  0  0  0  0  0  0
    2.3889   -3.9785    1.4183 O   0  0  0  0  0  0  0  0  0  0  0  0
    1.9337   -1.8393    2.2946 C   0  0  1  0  0  0  0  0  0  0  0  0
    1.6371   -2.0424    3.7909 C   0  0  0  0  0  0  0  0  0  0  0  0
    1.7960   -1.0657    4.7168 C   0  0  0  0  0  0  0  0  0  0  0  0
    2.2659   -0.3720    2.0041 C   0  0  0  0  0  0  0  0  0  0  0  0
    3.6186    0.0635    2.5550 C   0  0  0  0  0  0  0  0  0  0  0  0
    4.2969   -0.0697    3.6143 C   0  0  0  0  0  0  0  0  0  0  0  0
    4.9370   -0.7582    2.4701 C   0  0  1  0  0  0  0  0  0  0  0  0
    5.2727   -0.5638    1.0007 C   0  0  0  0  0  0  0  0  0  0  0  0
    4.8465   -1.7706    0.1164 C   0  0  0  0  0  0  0  0  0  0  0  0
    3.4256   -2.2837    0.2530 N   0  0  1  0  0  0  0  0  0  0  0  0
    3.0158   -3.0636   -0.9812 C   0  0  0  0  0  0  0  0  0  0  0  0
    3.1201   -2.2626   -2.2841 C   0  0  0  0  0  0  0  0  0  0  0  0
    2.6189   -2.8487   -3.5851 C   0  0  0  0  0  0  0  0  0  0  0  0
    4.0989   -2.6746   -3.3670 C   0  0  0  0  0  0  0  0  0  0  0  0
    4.0245   -2.3055    6.5255 H   0  0  0  0  0  0  0  0  0  0  0  0
    6.1901   -2.4157    2.9297 H   0  0  0  0  0  0  0  0  0  0  0  0
    4.8821   -3.8746    1.9032 H   0  0  0  0  0  0  0  0  0  0  0  0
    4.7767   -4.4270    3.9866 H   0  0  0  0  0  0  0  0  0  0  0  0
    0.9884   -2.0102    1.7993 H   0  0  0  0  0  0  0  0  0  0  0  0
    1.8658   -3.0535    4.1035 H   0  0  0  0  0  0  0  0  0  0  0  0
    1.6197   -0.0391    4.4364 H   0  0  0  0  0  0  0  0  0  0  0  0
    2.2853   -0.1946    0.9232 H   0  0  0  0  0  0  0  0  0  0  0  0
    1.4850    0.3079    2.3631 H   0  0  0  0  0  0  0  0  0  0  0  0
    4.8615    0.3689    0.6022 H   0  0  0  0  0  0  0  0  0  0  0  0
    6.3468   -0.4479    0.9049 H   0  0  0  0  0  0  0  0  0  0  0  0
    4.9908   -1.4168   -0.9065 H   0  0  0  0  0  0  0  0  0  0  0  0
    5.5509   -2.6021    0.2292 H   0  0  0  0  0  0  0  0  0  0  0  0
    3.6022   -3.9870   -1.0699 H   0  0  0  0  0  0  0  0  0  0  0  0
    1.9683   -3.3704   -0.9205 H   0  0  0  0  0  0  0  0  0  0  0  0
    2.9343   -1.1950   -2.1635 H   0  0  0  0  0  0  0  0  0  0  0  0
    2.2177   -3.8597   -3.5676 H   0  0  0  0  0  0  0  0  0  0  0  0
    2.1434   -2.1766   -4.2955 H   0  0  0  0  0  0  0  0  0  0  0  0
    4.5973   -1.8821   -3.9217 H   0  0  0  0  0  0  0  0  0  0  0  0
    4.6940   -3.5726   -3.1980 H   0  0  0  0  0  0  0  0  0  0  0  0
    2.8121   -1.4791    0.1761 H   0  0  0  0  0  0  0  0  0  0  0  0
  1  2  1  0
  1 24  1  0
  2 12  1  0
  2  3  2  3
  3 15  1  0
  3  4  1  0
  4  5  1  0
  5 16  1  0
  5  6  1  0
  5 25  1  1
  6  7  1  0
  6  8  1  0
  6 26  1  6
  7 27  1  0
  8 19  1  0
  8  9  1  6
  8 10  1  0
 10 11  1  0
 10 13  1  0
 10 28  1  6
 11 12  2  3
 11 29  1  0
 12 30  1  0
 13 14  1  0
 13 31  1  0
 13 32  1  0
 14 16  1  0
 14 15  2  0
 15 16  1  0
 16 17  1  6
 17 18  1  0
 17 33  1  0
 17 34  1  0
 18 19  1  0
 18 35  1  0
 18 36  1  0
 19 20  1  0
 19 44  1  6
 20 21  1  0
 20 37  1  0
 20 38  1  0
 21 23  1  0
 21 22  1  0
 21 39  1  0
 22 23  1  0
 22 40  1  0
 22 41  1  0
 23 42  1  0
 23 43  1  0
M  CHG  2   9  -1  19   1
M  END
>  <i_m_ct_stereo_status>  (364) 
1

>  <s_m_source_file>  (364) 
/var/tmp/pbs.5076255.sched01/tmp9yj1qf5s/135tauqa2n_.sdf

>  <i_m_source_file_index>  (364) 
5

>  <i_lp_mmshare_version>  (364) 
48012

>  <i_f3d_flags>  (364) 
2

>  <s_epik_input>  (364) 
W0NIMl0xW0NIMl1bQ0hdMVtDSDJdTihbQ0gyXVtDSDJdMilbQ0BAXShbT0hdKShbQ0BASF0zW09IXSlbQ0BASF0oL1tDSF09W0NIXVxDPTRcW09IXSlbQ0gyXUM1PUM2QzRcT1tDQEBIXTNDMjU2

>  <s_epik_cmdline>  (364) 
J2VwaWtfcHl0aG9uJywgJy1waHQnLCAnMi4wJywgJy1waCcsICc3LjAnLCAnLXRuJywgJzgnLCAnLW1hJywgJzIwMCcsICctaW1hZScsICc8aW5maWxlLm1hZT4nLCAnLW9tYWUnLCAnPG91dGZpbGUubWFlPic=

>  <r_epik_Ionization_Penalty>  (364) 
0.979854

>  <r_epik_Ionization_Penalty_Charging>  (364) 
0.979631

>  <r_epik_Ionization_Penalty_Neutral>  (364) 
0.000223455

>  <r_epik_State_Penalty>  (364) 
2.64285

>  <r_epik_Charging_Adjusted_Penalty>  (364) 
3.62248

>  <i_epik_Tot_Q>  (364) 
0

>  <i_epik_Tot_abs_Q>  (364) 
2

>  <s_lp_Force_Field>  (364) 
OPLS3e

>  <r_lp_Energy>  (364) 
186.91

>  <b_lp_Chiralities_Consistent>  (364) 
0

>  <s_lp_Variant>  (364) 
83:0-11

>  <s_i_glide_gridfile>  (364) 
pfpi4k_grid

>  <i_i_glide_lignum>  (364) 
5

>  <i_i_glide_rotatable_bonds>  (364) 
4

>  <r_i_docking_score>  (364) 
-3.56494

>  <r_i_glide_ligand_efficiency>  (364) 
-0.154997

>  <r_i_glide_ligand_efficiency_sa>  (364) 
-0.440792

>  <r_i_glide_ligand_efficiency_ln>  (364) 
-0.862035

>  <r_i_glide_gscore>  (364) 
-3.56494

>  <r_i_glide_lipo>  (364) 
-0.811229

>  <r_i_glide_hbond>  (364) 
-0.0282213

>  <r_i_glide_metal>  (364) 
-0

>  <r_i_glide_rewards>  (364) 
-1.55888

>  <r_i_glide_evdw>  (364) 
-22.4168

>  <r_i_glide_ecoul>  (364) 
-2.45303

>  <r_i_glide_erotb>  (364) 
0.374073

>  <r_i_glide_esite>  (364) 
-0.0518879

>  <r_i_glide_emodel>  (364) 
-31.0398

>  <r_i_glide_energy>  (364) 
-24.8698

>  <r_i_glide_einternal>  (364) 
0.676181

>  <r_i_glide_intrahb_reward>  (364) 
-0

>  <i_i_glide_confnum>  (364) 
1

>  <i_i_glide_posenum>  (364) 
21

>  <r_i_glide_eff_state_penalty>  (364) 
0

>  <ligand_id>  (364) 
83

>  <original_smiles>  (364) 
OC1=C2OC3C(O)C4(O)C(C=C1)CC1=C2C13CCN4CC1CC1

>  <smiles>  (364) 
[H]OC1=C2OC3([H])C([H])(O[H])C4([O-])C([H])(C([H])=C1[H])C([H])([H])C1=C2C13C([H])([H])C([H])([H])[N+]4([H])C([H])([H])C1([H])C([H])([H])C1([H])[H]

$$$$
83:10:1
     RDKit          3D

 44 49  0  0  1  0  0  0  0  0999 V2000
    4.2435   -2.2988   -3.3135 O   0  0  0  0  0  0  0  0  0  0  0  0
    5.1582   -2.2337   -2.3251 C   0  0  0  0  0  0  0  0  0  0  0  0
    5.0290   -1.3202   -1.3302 C   0  0  0  0  0  0  0  0  0  0  0  0
    3.7405   -1.0671   -1.0038 O   0  0  0  0  0  0  0  0  0  0  0  0
    3.5881   -1.2812    0.4189 C   0  0  1  0  0  0  0  0  0  0  0  0
    2.9756   -2.6898    0.6893 C   0  0  1  0  0  0  0  0  0  0  0  0
    2.2064   -3.0673   -0.4619 O   0  0  0  0  0  0  0  0  0  0  0  0
    3.9205   -3.8211    1.2704 C   0  0  1  0  0  0  0  0  0  0  0  0
    3.1641   -4.8956    1.2991 O   0  0  0  0  0  0  0  0  0  0  0  0
    5.2021   -4.2529    0.4202 C   0  0  1  0  0  0  0  0  0  0  0  0
    5.0237   -4.2187   -1.1070 C   0  0  0  0  0  0  0  0  0  0  0  0
    5.7910   -3.4628   -1.9297 C   0  0  0  0  0  0  0  0  0  0  0  0
    6.4174   -3.4079    0.8349 C   0  0  0  0  0  0  0  0  0  0  0  0
    6.2732   -1.9152    0.6299 C   0  0  0  0  0  0  0  0  0  0  0  0
    5.7777   -1.1322   -0.2207 C   0  0  0  0  0  0  0  0  0  0  0  0
    4.9810   -1.1131    1.0206 C   0  0  1  0  0  0  0  0  0  0  0  0
    5.1336   -1.0683    2.5274 C   0  0  0  0  0  0  0  0  0  0  0  0
    4.2605   -2.1382    3.2360 C   0  0  0  0  0  0  0  0  0  0  0  0
    4.3052   -3.5616    2.7332 N   0  0  1  0  0  0  0  0  0  0  0  0
    3.8593   -4.5192    3.8186 C   0  0  0  0  0  0  0  0  0  0  0  0
    2.4195   -4.3428    4.3014 C   0  0  0  0  0  0  0  0  0  0  0  0
    1.8140   -5.3331    5.2777 C   0  0  0  0  0  0  0  0  0  0  0  0
    1.3346   -5.2889    3.8510 C   0  0  0  0  0  0  0  0  0  0  0  0
    3.5893   -1.6357   -3.1474 H   0  0  0  0  0  0  0  0  0  0  0  0
    2.9222   -0.5068    0.7990 H   0  0  0  0  0  0  0  0  0  0  0  0
    2.1996   -2.5352    1.4372 H   0  0  0  0  0  0  0  0  0  0  0  0
    1.7142   -2.2914   -0.7141 H   0  0  0  0  0  0  0  0  0  0  0  0
    5.4462   -5.2949    0.6578 H   0  0  0  0  0  0  0  0  0  0  0  0
    3.9920   -4.3627   -1.3979 H   0  0  0  0  0  0  0  0  0  0  0  0
    6.8226   -3.2774   -1.6785 H   0  0  0  0  0  0  0  0  0  0  0  0
    6.6500   -3.5856    1.8821 H   0  0  0  0  0  0  0  0  0  0  0  0
    7.3127   -3.7382    0.3271 H   0  0  0  0  0  0  0  0  0  0  0  0
    6.1751   -1.1331    2.8371 H   0  0  0  0  0  0  0  0  0  0  0  0
    4.8258   -0.0928    2.8921 H   0  0  0  0  0  0  0  0  0  0  0  0
    4.5945   -2.1489    4.2723 H   0  0  0  0  0  0  0  0  0  0  0  0
    3.2280   -1.7964    3.2692 H   0  0  0  0  0  0  0  0  0  0  0  0
    4.0292   -5.5638    3.5489 H   0  0  0  0  0  0  0  0  0  0  0  0
    4.5011   -4.3799    4.6909 H   0  0  0  0  0  0  0  0  0  0  0  0
    2.1284   -3.3154    4.4915 H   0  0  0  0  0  0  0  0  0  0  0  0
    2.4085   -6.1940    5.5767 H   0  0  0  0  0  0  0  0  0  0  0  0
    1.1218   -4.9656    6.0328 H   0  0  0  0  0  0  0  0  0  0  0  0
    0.3601   -4.8535    3.6483 H   0  0  0  0  0  0  0  0  0  0  0  0
    1.6365   -6.0968    3.1872 H   0  0  0  0  0  0  0  0  0  0  0  0
    5.2847   -3.7938    2.6817 H   0  0  0  0  0  0  0  0  0  0  0  0
  1  2  1  0
  1 24  1  0
  2 12  1  0
  2  3  2  3
  3 15  1  0
  3  4  1  0
  4  5  1  0
  5 16  1  0
  5  6  1  0
  5 25  1  1
  6  7  1  0
  6  8  1  0
  6 26  1  1
  7 27  1  0
  8 19  1  0
  8  9  1  1
  8 10  1  0
 10 11  1  0
 10 13  1  0
 10 28  1  1
 11 12  2  3
 11 29  1  0
 12 30  1  0
 13 14  1  0
 13 31  1  0
 13 32  1  0
 14 16  1  0
 14 15  2  0
 15 16  1  0
 16 17  1  1
 17 18  1  0
 17 33  1  0
 17 34  1  0
 18 19  1  0
 18 35  1  0
 18 36  1  0
 19 20  1  0
 19 44  1  6
 20 21  1  0
 20 37  1  0
 20 38  1  0
 21 23  1  0
 21 22  1  0
 21 39  1  0
 22 23  1  0
 22 40  1  0
 22 41  1  0
 23 42  1  0
 23 43  1  0
M  CHG  2   9  -1  19   1
M  END
>  <i_m_ct_stereo_status>  (365) 
1

>  <s_m_source_file>  (365) 
/var/tmp/pbs.5076255.sched01/tmp9yj1qf5s/135tauqa2n_.sdf

>  <i_m_source_file_index>  (365) 
5

>  <i_lp_mmshare_version>  (365) 
48012

>  <i_f3d_flags>  (365) 
2

>  <s_epik_input>  (365) 
W0NIMl0xW0NIMl1bQ0hdMVtDSDJdTihbQ0gyXVtDSDJdMilbQ0BAXShbT0hdKShbQ0BASF0zW09IXSlbQ0BASF0oL1tDSF09W0NIXVxDPTRcW09IXSlbQ0gyXUM1PUM2QzRcT1tDQEBIXTNDMjU2

>  <s_epik_cmdline>  (365) 
J2VwaWtfcHl0aG9uJywgJy1waHQnLCAnMi4wJywgJy1waCcsICc3LjAnLCAnLXRuJywgJzgnLCAnLW1hJywgJzIwMCcsICctaW1hZScsICc8aW5maWxlLm1hZT4nLCAnLW9tYWUnLCAnPG91dGZpbGUubWFlPic=

>  <r_epik_Ionization_Penalty>  (365) 
0.979854

>  <r_epik_Ionization_Penalty_Charging>  (365) 
0.979631

>  <r_epik_Ionization_Penalty_Neutral>  (365) 
0.000223455

>  <r_epik_State_Penalty>  (365) 
2.64285

>  <r_epik_Charging_Adjusted_Penalty>  (365) 
3.62248

>  <i_epik_Tot_Q>  (365) 
0

>  <i_epik_Tot_abs_Q>  (365) 
2

>  <s_lp_Force_Field>  (365) 
OPLS3e

>  <r_lp_Energy>  (365) 
186.91

>  <b_lp_Chiralities_Consistent>  (365) 
0

>  <s_lp_Variant>  (365) 
83:0-11

>  <s_i_glide_gridfile>  (365) 
pfpi4k_grid

>  <i_i_glide_lignum>  (365) 
5

>  <i_i_glide_rotatable_bonds>  (365) 
4

>  <r_i_docking_score>  (365) 
-3.46588

>  <r_i_glide_ligand_efficiency>  (365) 
-0.15069

>  <r_i_glide_ligand_efficiency_sa>  (365) 
-0.428544

>  <r_i_glide_ligand_efficiency_ln>  (365) 
-0.838081

>  <r_i_glide_gscore>  (365) 
-3.46588

>  <r_i_glide_lipo>  (365) 
-0.67728

>  <r_i_glide_hbond>  (365) 
0

>  <r_i_glide_metal>  (365) 
-0

>  <r_i_glide_rewards>  (365) 
-1.27315

>  <r_i_glide_evdw>  (365) 
-21.294

>  <r_i_glide_ecoul>  (365) 
-4.7507

>  <r_i_glide_erotb>  (365) 
0.261851

>  <r_i_glide_esite>  (365) 
0

>  <r_i_glide_emodel>  (365) 
-32.1065

>  <r_i_glide_energy>  (365) 
-26.0447

>  <r_i_glide_einternal>  (365) 
1.0342

>  <r_i_glide_intrahb_reward>  (365) 
-0

>  <i_i_glide_confnum>  (365) 
2

>  <i_i_glide_posenum>  (365) 
6

>  <r_i_glide_eff_state_penalty>  (365) 
0

>  <ligand_id>  (365) 
83

>  <original_smiles>  (365) 
OC1=C2OC3C(O)C4(O)C(C=C1)CC1=C2C13CCN4CC1CC1

>  <smiles>  (365) 
[H]OC1=C2OC3([H])C([H])(O[H])C4([O-])C([H])(C([H])=C1[H])C([H])([H])C1=C2C13C([H])([H])C([H])([H])[N+]4([H])C([H])([H])C1([H])C([H])([H])C1([H])[H]

$$$$
83:10:2
     RDKit          3D

 44 49  0  0  1  0  0  0  0  0999 V2000
    4.6416   -2.0732   -2.9825 O   0  0  0  0  0  0  0  0  0  0  0  0
    5.4148   -2.1611   -1.8902 C   0  0  0  0  0  0  0  0  0  0  0  0
    5.1730   -1.3653   -0.8215 C   0  0  0  0  0  0  0  0  0  0  0  0
    3.8578   -1.0805   -0.6439 O   0  0  0  0  0  0  0  0  0  0  0  0
    3.5040   -1.4656    0.7048 C   0  0  1  0  0  0  0  0  0  0  0  0
    2.8123   -2.8620    0.7202 C   0  0  1  0  0  0  0  0  0  0  0  0
    2.2128   -3.0543   -0.5524 O   0  0  0  0  0  0  0  0  0  0  0  0
    3.6243   -4.1035    1.2792 C   0  0  1  0  0  0  0  0  0  0  0  0
    2.8222   -5.1281    1.0771 O   0  0  0  0  0  0  0  0  0  0  0  0
    5.0006   -4.4855    0.5650 C   0  0  1  0  0  0  0  0  0  0  0  0
    5.0450   -4.2616   -0.9588 C   0  0  0  0  0  0  0  0  0  0  0  0
    5.9469   -3.4600   -1.5708 C   0  0  0  0  0  0  0  0  0  0  0  0
    6.1807   -3.7689    1.2361 C   0  0  0  0  0  0  0  0  0  0  0  0
    6.1002   -2.2574    1.2052 C   0  0  0  0  0  0  0  0  0  0  0  0
    5.7717   -1.3431    0.3900 C   0  0  0  0  0  0  0  0  0  0  0  0
    4.7972   -1.4398    1.5048 C   0  0  1  0  0  0  0  0  0  0  0  0
    4.7369   -1.5823    3.0140 C   0  0  0  0  0  0  0  0  0  0  0  0
    3.7348   -2.6803    3.4636 C   0  0  0  0  0  0  0  0  0  0  0  0
    3.8158   -4.0340    2.7988 N   0  0  1  0  0  0  0  0  0  0  0  0
    3.1936   -5.0884    3.6850 C   0  0  0  0  0  0  0  0  0  0  0  0
    1.7029   -4.8994    3.9777 C   0  0  0  0  0  0  0  0  0  0  0  0
    1.2647   -4.1594    5.2213 C   0  0  0  0  0  0  0  0  0  0  0  0
    1.0457   -5.6472    5.1252 C   0  0  0  0  0  0  0  0  0  0  0  0
    4.0011   -1.3971   -2.8224 H   0  0  0  0  0  0  0  0  0  0  0  0
    2.8192   -0.7127    1.0889 H   0  0  0  0  0  0  0  0  0  0  0  0
    1.9426   -2.7595    1.3704 H   0  0  0  0  0  0  0  0  0  0  0  0
    1.7040   -2.2736   -0.7388 H   0  0  0  0  0  0  0  0  0  0  0  0
    5.1747   -5.5558    0.6988 H   0  0  0  0  0  0  0  0  0  0  0  0
    4.0558   -4.3184   -1.3966 H   0  0  0  0  0  0  0  0  0  0  0  0
    6.9400   -3.3616   -1.1576 H   0  0  0  0  0  0  0  0  0  0  0  0
    6.2483   -4.0737    2.2831 H   0  0  0  0  0  0  0  0  0  0  0  0
    7.1362   -4.0860    0.8152 H   0  0  0  0  0  0  0  0  0  0  0  0
    5.7223   -1.7435    3.4506 H   0  0  0  0  0  0  0  0  0  0  0  0
    4.4089   -0.6395    3.4423 H   0  0  0  0  0  0  0  0  0  0  0  0
    3.9230   -2.8339    4.5287 H   0  0  0  0  0  0  0  0  0  0  0  0
    2.7110   -2.3048    3.3983 H   0  0  0  0  0  0  0  0  0  0  0  0
    3.3644   -6.1026    3.3139 H   0  0  0  0  0  0  0  0  0  0  0  0
    3.7155   -5.0809    4.6434 H   0  0  0  0  0  0  0  0  0  0  0  0
    1.0804   -4.7911    3.0914 H   0  0  0  0  0  0  0  0  0  0  0  0
    2.0491   -3.8052    5.8887 H   0  0  0  0  0  0  0  0  0  0  0  0
    0.3970   -3.5094    5.1340 H   0  0  0  0  0  0  0  0  0  0  0  0
    0.0172   -5.9824    5.0073 H   0  0  0  0  0  0  0  0  0  0  0  0
    1.6685   -6.2877    5.7483 H   0  0  0  0  0  0  0  0  0  0  0  0
    4.7861   -4.3040    2.8542 H   0  0  0  0  0  0  0  0  0  0  0  0
  1  2  1  0
  1 24  1  0
  2 12  1  0
  2  3  2  3
  3 15  1  0
  3  4  1  0
  4  5  1  0
  5 16  1  0
  5  6  1  0
  5 25  1  1
  6  7  1  0
  6  8  1  0
  6 26  1  1
  7 27  1  0
  8 19  1  0
  8  9  1  1
  8 10  1  0
 10 11  1  0
 10 13  1  0
 10 28  1  6
 11 12  2  3
 11 29  1  0
 12 30  1  0
 13 14  1  0
 13 31  1  0
 13 32  1  0
 14 16  1  0
 14 15  2  0
 15 16  1  0
 16 17  1  1
 17 18  1  0
 17 33  1  0
 17 34  1  0
 18 19  1  0
 18 35  1  0
 18 36  1  0
 19 20  1  0
 19 44  1  6
 20 21  1  0
 20 37  1  0
 20 38  1  0
 21 23  1  0
 21 22  1  0
 21 39  1  0
 22 23  1  0
 22 40  1  0
 22 41  1  0
 23 42  1  0
 23 43  1  0
M  CHG  2   9  -1  19   1
M  END
>  <i_m_ct_stereo_status>  (366) 
1

>  <s_m_source_file>  (366) 
/var/tmp/pbs.5076255.sched01/tmp9yj1qf5s/135tauqa2n_.sdf

>  <i_m_source_file_index>  (366) 
5

>  <i_lp_mmshare_version>  (366) 
48012

>  <i_f3d_flags>  (366) 
2

>  <s_epik_input>  (366) 
W0NIMl0xW0NIMl1bQ0hdMVtDSDJdTihbQ0gyXVtDSDJdMilbQ0BAXShbT0hdKShbQ0BASF0zW09IXSlbQ0BASF0oL1tDSF09W0NIXVxDPTRcW09IXSlbQ0gyXUM1PUM2QzRcT1tDQEBIXTNDMjU2

>  <s_epik_cmdline>  (366) 
J2VwaWtfcHl0aG9uJywgJy1waHQnLCAnMi4wJywgJy1waCcsICc3LjAnLCAnLXRuJywgJzgnLCAnLW1hJywgJzIwMCcsICctaW1hZScsICc8aW5maWxlLm1hZT4nLCAnLW9tYWUnLCAnPG91dGZpbGUubWFlPic=

>  <r_epik_Ionization_Penalty>  (366) 
0.979854

>  <r_epik_Ionization_Penalty_Charging>  (366) 
0.979631

>  <r_epik_Ionization_Penalty_Neutral>  (366) 
0.000223455

>  <r_epik_State_Penalty>  (366) 
2.64285

>  <r_epik_Charging_Adjusted_Penalty>  (366) 
3.62248

>  <i_epik_Tot_Q>  (366) 
0

>  <i_epik_Tot_abs_Q>  (366) 
2

>  <s_lp_Force_Field>  (366) 
OPLS3e

>  <r_lp_Energy>  (366) 
186.91

>  <b_lp_Chiralities_Consistent>  (366) 
0

>  <s_lp_Variant>  (366) 
83:0-11

>  <s_i_glide_gridfile>  (366) 
pfpi4k_grid

>  <i_i_glide_lignum>  (366) 
5

>  <i_i_glide_rotatable_bonds>  (366) 
4

>  <r_i_docking_score>  (366) 
-3.3695

>  <r_i_glide_ligand_efficiency>  (366) 
-0.1465

>  <r_i_glide_ligand_efficiency_sa>  (366) 
-0.416627

>  <r_i_glide_ligand_efficiency_ln>  (366) 
-0.814776

>  <r_i_glide_gscore>  (366) 
-3.3695

>  <r_i_glide_lipo>  (366) 
-0.600309

>  <r_i_glide_hbond>  (366) 
0

>  <r_i_glide_metal>  (366) 
-0

>  <r_i_glide_rewards>  (366) 
-1.2678

>  <r_i_glide_evdw>  (366) 
-20.161

>  <r_i_glide_ecoul>  (366) 
-5.03462

>  <r_i_glide_erotb>  (366) 
0.261851

>  <r_i_glide_esite>  (366) 
0

>  <r_i_glide_emodel>  (366) 
-30.88

>  <r_i_glide_energy>  (366) 
-25.1957

>  <r_i_glide_einternal>  (366) 
1.44625

>  <r_i_glide_intrahb_reward>  (366) 
-0

>  <i_i_glide_confnum>  (366) 
2

>  <i_i_glide_posenum>  (366) 
4

>  <r_i_glide_eff_state_penalty>  (366) 
0

>  <ligand_id>  (366) 
83

>  <original_smiles>  (366) 
OC1=C2OC3C(O)C4(O)C(C=C1)CC1=C2C13CCN4CC1CC1

>  <smiles>  (366) 
[H]OC1=C2OC3([H])C([H])(O[H])C4([O-])C([H])(C([H])=C1[H])C([H])([H])C1=C2C13C([H])([H])C([H])([H])[N+]4([H])C([H])([H])C1([H])C([H])([H])C1([H])[H]

$$$$
83:11:0
     RDKit          3D

 44 49  0  0  1  0  0  0  0  0999 V2000
    3.6765   -3.4570   -3.3128 O   0  0  0  0  0  0  0  0  0  0  0  0
    4.6823   -2.9286   -2.5928 C   0  0  0  0  0  0  0  0  0  0  0  0
    5.4099   -3.6632   -1.7370 C   0  0  0  0  0  0  0  0  0  0  0  0
    6.3898   -3.0049   -1.0594 O   0  0  0  0  0  0  0  0  0  0  0  0
    6.4127   -3.3749    0.3142 C   0  0  1  0  0  0  0  0  0  0  0  0
    6.2247   -2.0963    1.1335 C   0  0  1  0  0  0  0  0  0  0  0  0
    6.9969   -1.0632    0.5098 O   0  0  0  0  0  0  0  0  0  0  0  0
    4.7385   -1.7341    1.4547 C   0  0  1  0  0  0  0  0  0  0  0  0
    4.8452   -0.5343    1.9850 O   0  0  0  0  0  0  0  0  0  0  0  0
    3.7814   -1.6853    0.1984 C   0  0  1  0  0  0  0  0  0  0  0  0
    4.2991   -0.9929   -1.0842 C   0  0  0  0  0  0  0  0  0  0  0  0
    4.6295   -1.5030   -2.3030 C   0  0  0  0  0  0  0  0  0  0  0  0
    3.0321   -3.0156   -0.0637 C   0  0  0  0  0  0  0  0  0  0  0  0
    3.9029   -4.2543   -0.1662 C   0  0  0  0  0  0  0  0  0  0  0  0
    4.8365   -4.5922   -0.9572 C   0  0  0  0  0  0  0  0  0  0  0  0
    5.3053   -4.4007    0.4511 C   0  0  1  0  0  0  0  0  0  0  0  0
    4.9936   -4.9835    1.8164 C   0  0  0  0  0  0  0  0  0  0  0  0
    4.8525   -3.8900    2.9150 C   0  0  0  0  0  0  0  0  0  0  0  0
    4.1022   -2.6337    2.5292 N   0  0  1  0  0  0  0  0  0  0  0  0
    3.4566   -1.9843    3.7299 C   0  0  0  0  0  0  0  0  0  0  0  0
    2.3669   -2.8465    4.3687 C   0  0  0  0  0  0  0  0  0  0  0  0
    1.7434   -2.4499    5.6956 C   0  0  0  0  0  0  0  0  0  0  0  0
    2.6406   -3.6550    5.6249 C   0  0  0  0  0  0  0  0  0  0  0  0
    3.6099   -4.3773   -3.1053 H   0  0  0  0  0  0  0  0  0  0  0  0
    7.3749   -3.8252    0.5472 H   0  0  0  0  0  0  0  0  0  0  0  0
    6.7297   -2.2111    2.0865 H   0  0  0  0  0  0  0  0  0  0  0  0
    7.0136   -0.3400    1.1296 H   0  0  0  0  0  0  0  0  0  0  0  0
    2.9618   -1.0265    0.4796 H   0  0  0  0  0  0  0  0  0  0  0  0
    4.3450    0.0801   -0.9837 H   0  0  0  0  0  0  0  0  0  0  0  0
    4.9147   -0.8053   -3.0737 H   0  0  0  0  0  0  0  0  0  0  0  0
    2.3539   -3.2132    0.7726 H   0  0  0  0  0  0  0  0  0  0  0  0
    2.3905   -2.9464   -0.9508 H   0  0  0  0  0  0  0  0  0  0  0  0
    4.0792   -5.5803    1.7725 H   0  0  0  0  0  0  0  0  0  0  0  0
    5.7714   -5.6895    2.1027 H   0  0  0  0  0  0  0  0  0  0  0  0
    4.3230   -4.3818    3.7292 H   0  0  0  0  0  0  0  0  0  0  0  0
    5.8222   -3.6411    3.3413 H   0  0  0  0  0  0  0  0  0  0  0  0
    4.2052   -1.7290    4.4842 H   0  0  0  0  0  0  0  0  0  0  0  0
    2.9590   -1.0484    3.4678 H   0  0  0  0  0  0  0  0  0  0  0  0
    1.6650   -3.2753    3.6529 H   0  0  0  0  0  0  0  0  0  0  0  0
    2.1296   -1.5682    6.2035 H   0  0  0  0  0  0  0  0  0  0  0  0
    0.6831   -2.6446    5.8492 H   0  0  0  0  0  0  0  0  0  0  0  0
    2.1762   -4.6385    5.6988 H   0  0  0  0  0  0  0  0  0  0  0  0
    3.6373   -3.5786    6.0592 H   0  0  0  0  0  0  0  0  0  0  0  0
    3.2885   -2.9559    2.0212 H   0  0  0  0  0  0  0  0  0  0  0  0
  1  2  1  0
  1 24  1  0
  2 12  1  0
  2  3  2  3
  3 15  1  0
  3  4  1  0
  4  5  1  0
  5 16  1  0
  5  6  1  0
  5 25  1  1
  6  7  1  0
  6  8  1  0
  6 26  1  1
  7 27  1  0
  8 19  1  0
  8  9  1  1
  8 10  1  0
 10 11  1  0
 10 13  1  0
 10 28  1  1
 11 12  2  3
 11 29  1  0
 12 30  1  0
 13 14  1  0
 13 31  1  0
 13 32  1  0
 14 16  1  0
 14 15  2  0
 15 16  1  0
 16 17  1  1
 17 18  1  0
 17 33  1  0
 17 34  1  0
 18 19  1  0
 18 35  1  0
 18 36  1  0
 19 20  1  0
 19 44  1  6
 20 21  1  0
 20 37  1  0
 20 38  1  0
 21 23  1  0
 21 22  1  0
 21 39  1  0
 22 23  1  0
 22 40  1  0
 22 41  1  0
 23 42  1  0
 23 43  1  0
M  CHG  2   9  -1  19   1
M  END
>  <i_m_ct_stereo_status>  (367) 
1

>  <s_m_source_file>  (367) 
/var/tmp/pbs.5076255.sched01/tmp9yj1qf5s/135tauqa2n_.sdf

>  <i_m_source_file_index>  (367) 
6

>  <i_lp_mmshare_version>  (367) 
48012

>  <i_f3d_flags>  (367) 
3

>  <s_epik_input>  (367) 
W0NIMl0xW0NIMl1bQ0hdMVtDSDJdTihbQ0gyXVtDSDJdMilbQ0BAXShbT0hdKShbQ0BASF0zW09IXSlbQ0BASF0oL1tDSF09W0NIXVxDPTRcW09IXSlbQ0gyXUM1PUM2QzRcT1tDQEBIXTNDMjU2

>  <s_epik_cmdline>  (367) 
J2VwaWtfcHl0aG9uJywgJy1waHQnLCAnMi4wJywgJy1waCcsICc3LjAnLCAnLXRuJywgJzgnLCAnLW1hJywgJzIwMCcsICctaW1hZScsICc8aW5maWxlLm1hZT4nLCAnLW9tYWUnLCAnPG91dGZpbGUubWFlPic=

>  <r_epik_Ionization_Penalty>  (367) 
0.979854

>  <r_epik_Ionization_Penalty_Charging>  (367) 
0.979631

>  <r_epik_Ionization_Penalty_Neutral>  (367) 
0.000223455

>  <r_epik_State_Penalty>  (367) 
2.64285

>  <r_epik_Charging_Adjusted_Penalty>  (367) 
3.62248

>  <i_epik_Tot_Q>  (367) 
0

>  <i_epik_Tot_abs_Q>  (367) 
2

>  <s_lp_Force_Field>  (367) 
OPLS3e

>  <r_lp_Energy>  (367) 
147.17

>  <b_lp_Chiralities_Consistent>  (367) 
0

>  <s_lp_Variant>  (367) 
83:0-12

>  <s_i_glide_gridfile>  (367) 
pfpi4k_grid

>  <i_i_glide_lignum>  (367) 
6

>  <i_i_glide_rotatable_bonds>  (367) 
4

>  <r_i_docking_score>  (367) 
-3.92704

>  <r_i_glide_ligand_efficiency>  (367) 
-0.170741

>  <r_i_glide_ligand_efficiency_sa>  (367) 
-0.485564

>  <r_i_glide_ligand_efficiency_ln>  (367) 
-0.949594

>  <r_i_glide_gscore>  (367) 
-3.92704

>  <r_i_glide_lipo>  (367) 
-0.482085

>  <r_i_glide_hbond>  (367) 
-0.304948

>  <r_i_glide_metal>  (367) 
-0

>  <r_i_glide_rewards>  (367) 
-1.31298

>  <r_i_glide_evdw>  (367) 
-21.1157

>  <r_i_glide_ecoul>  (367) 
-7.63545

>  <r_i_glide_erotb>  (367) 
0.374073

>  <r_i_glide_esite>  (367) 
0

>  <r_i_glide_emodel>  (367) 
-38.1743

>  <r_i_glide_energy>  (367) 
-28.7512

>  <r_i_glide_einternal>  (367) 
0.650723

>  <r_i_glide_intrahb_reward>  (367) 
-0

>  <i_i_glide_confnum>  (367) 
1

>  <i_i_glide_posenum>  (367) 
3

>  <r_i_glide_eff_state_penalty>  (367) 
0

>  <ligand_id>  (367) 
83

>  <original_smiles>  (367) 
OC1=C2OC3C(O)C4(O)C(C=C1)CC1=C2C13CCN4CC1CC1

>  <smiles>  (367) 
[H]OC1=C2OC3([H])C([H])(O[H])C4([O-])C([H])(C([H])=C1[H])C([H])([H])C1=C2C13C([H])([H])C([H])([H])[N+]4([H])C([H])([H])C1([H])C([H])([H])C1([H])[H]

$$$$
83:11:1
     RDKit          3D

 44 49  0  0  1  0  0  0  0  0999 V2000
    3.4669   -2.5340   -3.3117 O   0  0  0  0  0  0  0  0  0  0  0  0
    4.5649   -2.1601   -2.6328 C   0  0  0  0  0  0  0  0  0  0  0  0
    5.4305   -3.0640   -2.1383 C   0  0  0  0  0  0  0  0  0  0  0  0
    6.4922   -2.5471   -1.4534 O   0  0  0  0  0  0  0  0  0  0  0  0
    6.7231   -3.2722   -0.2548 C   0  0  1  0  0  0  0  0  0  0  0  0
    6.6364   -2.2782    0.8976 C   0  0  1  0  0  0  0  0  0  0  0  0
    7.2709   -1.0653    0.4875 O   0  0  0  0  0  0  0  0  0  0  0  0
    5.2143   -2.1126    1.5328 C   0  0  1  0  0  0  0  0  0  0  0  0
    5.3770   -1.0968    2.3520 O   0  0  0  0  0  0  0  0  0  0  0  0
    4.0700   -1.7817    0.4967 C   0  0  1  0  0  0  0  0  0  0  0  0
    4.3749   -0.7376   -0.5984 C   0  0  0  0  0  0  0  0  0  0  0  0
    4.5291   -0.8801   -1.9469 C   0  0  0  0  0  0  0  0  0  0  0  0
    3.3212   -3.0304   -0.0183 C   0  0  0  0  0  0  0  0  0  0  0  0
    4.1904   -4.1387   -0.5900 C   0  0  0  0  0  0  0  0  0  0  0  0
    5.0004   -4.1916   -1.5691 C   0  0  0  0  0  0  0  0  0  0  0  0
    5.6687   -4.3565   -0.2394 C   0  0  1  0  0  0  0  0  0  0  0  0
    5.5883   -5.3120    0.9348 C   0  0  0  0  0  0  0  0  0  0  0  0
    5.6007   -4.5738    2.3005 C   0  0  0  0  0  0  0  0  0  0  0  0
    4.7762   -3.3079    2.3966 N   0  0  1  0  0  0  0  0  0  0  0  0
    4.3151   -3.0489    3.8127 C   0  0  0  0  0  0  0  0  0  0  0  0
    3.3848   -4.1349    4.3528 C   0  0  0  0  0  0  0  0  0  0  0  0
    3.0264   -4.1902    5.8267 C   0  0  0  0  0  0  0  0  0  0  0  0
    3.9117   -5.2524    5.2350 C   0  0  0  0  0  0  0  0  0  0  0  0
    3.4612   -3.4757   -3.3651 H   0  0  0  0  0  0  0  0  0  0  0  0
    7.7186   -3.7096   -0.2884 H   0  0  0  0  0  0  0  0  0  0  0  0
    7.3015   -2.6407    1.6700 H   0  0  0  0  0  0  0  0  0  0  0  0
    7.2587   -0.4888    1.2574 H   0  0  0  0  0  0  0  0  0  0  0  0
    3.2930   -1.2721    1.0665 H   0  0  0  0  0  0  0  0  0  0  0  0
    4.3973    0.2649   -0.2050 H   0  0  0  0  0  0  0  0  0  0  0  0
    4.6676    0.0164   -2.5277 H   0  0  0  0  0  0  0  0  0  0  0  0
    2.7874   -3.4911    0.8174 H   0  0  0  0  0  0  0  0  0  0  0  0
    2.5501   -2.7605   -0.7465 H   0  0  0  0  0  0  0  0  0  0  0  0
    4.6907   -5.9285    0.8585 H   0  0  0  0  0  0  0  0  0  0  0  0
    6.4146   -6.0185    0.8977 H   0  0  0  0  0  0  0  0  0  0  0  0
    5.2184   -5.3021    3.0093 H   0  0  0  0  0  0  0  0  0  0  0  0
    6.6205   -4.3961    2.6231 H   0  0  0  0  0  0  0  0  0  0  0  0
    5.1680   -2.9351    4.4861 H   0  0  0  0  0  0  0  0  0  0  0  0
    3.7447   -2.1201    3.8878 H   0  0  0  0  0  0  0  0  0  0  0  0
    2.5650   -4.3884    3.6804 H   0  0  0  0  0  0  0  0  0  0  0  0
    3.4911   -3.4713    6.4986 H   0  0  0  0  0  0  0  0  0  0  0  0
    2.0215   -4.5029    6.1070 H   0  0  0  0  0  0  0  0  0  0  0  0
    3.4880   -6.2460    5.0883 H   0  0  0  0  0  0  0  0  0  0  0  0
    4.9733   -5.2324    5.4797 H   0  0  0  0  0  0  0  0  0  0  0  0
    3.8975   -3.5296    1.9452 H   0  0  0  0  0  0  0  0  0  0  0  0
  1  2  1  0
  1 24  1  0
  2 12  1  0
  2  3  2  3
  3 15  1  0
  3  4  1  0
  4  5  1  0
  5 16  1  0
  5  6  1  0
  5 25  1  6
  6  7  1  0
  6  8  1  0
  6 26  1  1
  7 27  1  0
  8 19  1  0
  8  9  1  1
  8 10  1  0
 10 11  1  0
 10 13  1  0
 10 28  1  1
 11 12  2  3
 11 29  1  0
 12 30  1  0
 13 14  1  0
 13 31  1  0
 13 32  1  0
 14 16  1  0
 14 15  2  0
 15 16  1  0
 16 17  1  6
 17 18  1  0
 17 33  1  0
 17 34  1  0
 18 19  1  0
 18 35  1  0
 18 36  1  0
 19 20  1  0
 19 44  1  6
 20 21  1  0
 20 37  1  0
 20 38  1  0
 21 23  1  0
 21 22  1  0
 21 39  1  0
 22 23  1  0
 22 40  1  0
 22 41  1  0
 23 42  1  0
 23 43  1  0
M  CHG  2   9  -1  19   1
M  END
>  <i_m_ct_stereo_status>  (368) 
1

>  <s_m_source_file>  (368) 
/var/tmp/pbs.5076255.sched01/tmp9yj1qf5s/135tauqa2n_.sdf

>  <i_m_source_file_index>  (368) 
6

>  <i_lp_mmshare_version>  (368) 
48012

>  <i_f3d_flags>  (368) 
3

>  <s_epik_input>  (368) 
W0NIMl0xW0NIMl1bQ0hdMVtDSDJdTihbQ0gyXVtDSDJdMilbQ0BAXShbT0hdKShbQ0BASF0zW09IXSlbQ0BASF0oL1tDSF09W0NIXVxDPTRcW09IXSlbQ0gyXUM1PUM2QzRcT1tDQEBIXTNDMjU2

>  <s_epik_cmdline>  (368) 
J2VwaWtfcHl0aG9uJywgJy1waHQnLCAnMi4wJywgJy1waCcsICc3LjAnLCAnLXRuJywgJzgnLCAnLW1hJywgJzIwMCcsICctaW1hZScsICc8aW5maWxlLm1hZT4nLCAnLW9tYWUnLCAnPG91dGZpbGUubWFlPic=

>  <r_epik_Ionization_Penalty>  (368) 
0.979854

>  <r_epik_Ionization_Penalty_Charging>  (368) 
0.979631

>  <r_epik_Ionization_Penalty_Neutral>  (368) 
0.000223455

>  <r_epik_State_Penalty>  (368) 
2.64285

>  <r_epik_Charging_Adjusted_Penalty>  (368) 
3.62248

>  <i_epik_Tot_Q>  (368) 
0

>  <i_epik_Tot_abs_Q>  (368) 
2

>  <s_lp_Force_Field>  (368) 
OPLS3e

>  <r_lp_Energy>  (368) 
147.17

>  <b_lp_Chiralities_Consistent>  (368) 
0

>  <s_lp_Variant>  (368) 
83:0-12

>  <s_i_glide_gridfile>  (368) 
pfpi4k_grid

>  <i_i_glide_lignum>  (368) 
6

>  <i_i_glide_rotatable_bonds>  (368) 
4

>  <r_i_docking_score>  (368) 
-3.44897

>  <r_i_glide_ligand_efficiency>  (368) 
-0.149955

>  <r_i_glide_ligand_efficiency_sa>  (368) 
-0.426453

>  <r_i_glide_ligand_efficiency_ln>  (368) 
-0.833992

>  <r_i_glide_gscore>  (368) 
-3.44897

>  <r_i_glide_lipo>  (368) 
-0.587058

>  <r_i_glide_hbond>  (368) 
-0.0438172

>  <r_i_glide_metal>  (368) 
-0

>  <r_i_glide_rewards>  (368) 
-1.34474

>  <r_i_glide_evdw>  (368) 
-20.508

>  <r_i_glide_ecoul>  (368) 
-5.48016

>  <r_i_glide_erotb>  (368) 
0.374073

>  <r_i_glide_esite>  (368) 
0

>  <r_i_glide_emodel>  (368) 
-34.168

>  <r_i_glide_energy>  (368) 
-25.9881

>  <r_i_glide_einternal>  (368) 
0.505853

>  <r_i_glide_intrahb_reward>  (368) 
-0

>  <i_i_glide_confnum>  (368) 
1

>  <i_i_glide_posenum>  (368) 
25

>  <r_i_glide_eff_state_penalty>  (368) 
0

>  <ligand_id>  (368) 
83

>  <original_smiles>  (368) 
OC1=C2OC3C(O)C4(O)C(C=C1)CC1=C2C13CCN4CC1CC1

>  <smiles>  (368) 
[H]OC1=C2OC3([H])C([H])(O[H])C4([O-])C([H])(C([H])=C1[H])C([H])([H])C1=C2C13C([H])([H])C([H])([H])[N+]4([H])C([H])([H])C1([H])C([H])([H])C1([H])[H]

$$$$
83:11:2
     RDKit          3D

 44 49  0  0  1  0  0  0  0  0999 V2000
    3.3449   -2.4665   -3.2257 O   0  0  0  0  0  0  0  0  0  0  0  0
    4.4607   -2.0943   -2.5741 C   0  0  0  0  0  0  0  0  0  0  0  0
    5.3724   -2.9941   -2.1592 C   0  0  0  0  0  0  0  0  0  0  0  0
    6.4454   -2.4758   -1.4916 O   0  0  0  0  0  0  0  0  0  0  0  0
    6.7480   -3.2476   -0.3337 C   0  0  1  0  0  0  0  0  0  0  0  0
    6.6863   -2.3152    0.8714 C   0  0  1  0  0  0  0  0  0  0  0  0
    7.2615   -1.0671    0.4906 O   0  0  0  0  0  0  0  0  0  0  0  0
    5.2831   -2.2158    1.5551 C   0  0  1  0  0  0  0  0  0  0  0  0
    5.4385   -1.2243    2.4016 O   0  0  0  0  0  0  0  0  0  0  0  0
    4.0829   -1.8785    0.5803 C   0  0  1  0  0  0  0  0  0  0  0  0
    4.3086   -0.7712   -0.4698 C   0  0  0  0  0  0  0  0  0  0  0  0
    4.4146   -0.8481   -1.8285 C   0  0  0  0  0  0  0  0  0  0  0  0
    3.3483   -3.1247    0.0406 C   0  0  0  0  0  0  0  0  0  0  0  0
    4.2248   -4.1779   -0.6174 C   0  0  0  0  0  0  0  0  0  0  0  0
    4.9995   -4.1581   -1.6256 C   0  0  0  0  0  0  0  0  0  0  0  0
    5.7223   -4.3622   -0.3301 C   0  0  1  0  0  0  0  0  0  0  0  0
    5.7190   -5.3787    0.7944 C   0  0  0  0  0  0  0  0  0  0  0  0
    5.7625   -4.7039    2.1970 C   0  0  0  0  0  0  0  0  0  0  0  0
    4.9187   -3.4583    2.3864 N   0  0  1  0  0  0  0  0  0  0  0  0
    4.5302   -3.2793    3.8358 C   0  0  0  0  0  0  0  0  0  0  0  0
    3.1772   -2.5990    4.0449 C   0  0  0  0  0  0  0  0  0  0  0  0
    2.4954   -2.6532    5.4007 C   0  0  0  0  0  0  0  0  0  0  0  0
    1.9057   -3.4056    4.2360 C   0  0  0  0  0  0  0  0  0  0  0  0
    3.3585   -3.4034   -3.3220 H   0  0  0  0  0  0  0  0  0  0  0  0
    7.7504   -3.6550   -0.4378 H   0  0  0  0  0  0  0  0  0  0  0  0
    7.3859   -2.6877    1.6142 H   0  0  0  0  0  0  0  0  0  0  0  0
    7.2295   -0.5178    1.2734 H   0  0  0  0  0  0  0  0  0  0  0  0
    3.3122   -1.4233    1.2035 H   0  0  0  0  0  0  0  0  0  0  0  0
    4.3193    0.2155   -0.0335 H   0  0  0  0  0  0  0  0  0  0  0  0
    4.5063    0.0779   -2.3695 H   0  0  0  0  0  0  0  0  0  0  0  0
    2.8662   -3.6449    0.8732 H   0  0  0  0  0  0  0  0  0  0  0  0
    2.5384   -2.8497   -0.6427 H   0  0  0  0  0  0  0  0  0  0  0  0
    4.8389   -6.0231    0.7181 H   0  0  0  0  0  0  0  0  0  0  0  0
    6.5656   -6.0543    0.6843 H   0  0  0  0  0  0  0  0  0  0  0  0
    5.4188   -5.4736    2.8909 H   0  0  0  0  0  0  0  0  0  0  0  0
    6.7976   -4.5196    2.4839 H   0  0  0  0  0  0  0  0  0  0  0  0
    4.4507   -4.2492    4.3297 H   0  0  0  0  0  0  0  0  0  0  0  0
    5.2958   -2.7481    4.4080 H   0  0  0  0  0  0  0  0  0  0  0  0
    3.0713   -1.6390    3.5398 H   0  0  0  0  0  0  0  0  0  0  0  0
    2.9637   -3.2342    6.1940 H   0  0  0  0  0  0  0  0  0  0  0  0
    1.9595   -1.7671    5.7375 H   0  0  0  0  0  0  0  0  0  0  0  0
    0.9933   -3.0078    3.7916 H   0  0  0  0  0  0  0  0  0  0  0  0
    1.9900   -4.4922    4.2350 H   0  0  0  0  0  0  0  0  0  0  0  0
    4.0285   -3.7076    1.9696 H   0  0  0  0  0  0  0  0  0  0  0  0
  1  2  1  0
  1 24  1  0
  2 12  1  0
  2  3  2  3
  3 15  1  0
  3  4  1  0
  4  5  1  0
  5 16  1  0
  5  6  1  0
  5 25  1  6
  6  7  1  0
  6  8  1  0
  6 26  1  1
  7 27  1  0
  8 19  1  0
  8  9  1  1
  8 10  1  0
 10 11  1  0
 10 13  1  0
 10 28  1  1
 11 12  2  3
 11 29  1  0
 12 30  1  0
 13 14  1  0
 13 31  1  0
 13 32  1  0
 14 16  1  0
 14 15  2  0
 15 16  1  0
 16 17  1  6
 17 18  1  0
 17 33  1  0
 17 34  1  0
 18 19  1  0
 18 35  1  0
 18 36  1  0
 19 20  1  0
 19 44  1  6
 20 21  1  0
 20 37  1  0
 20 38  1  0
 21 23  1  0
 21 22  1  0
 21 39  1  0
 22 23  1  0
 22 40  1  0
 22 41  1  0
 23 42  1  0
 23 43  1  0
M  CHG  2   9  -1  19   1
M  END
>  <i_m_ct_stereo_status>  (369) 
1

>  <s_m_source_file>  (369) 
/var/tmp/pbs.5076255.sched01/tmp9yj1qf5s/135tauqa2n_.sdf

>  <i_m_source_file_index>  (369) 
6

>  <i_lp_mmshare_version>  (369) 
48012

>  <i_f3d_flags>  (369) 
3

>  <s_epik_input>  (369) 
W0NIMl0xW0NIMl1bQ0hdMVtDSDJdTihbQ0gyXVtDSDJdMilbQ0BAXShbT0hdKShbQ0BASF0zW09IXSlbQ0BASF0oL1tDSF09W0NIXVxDPTRcW09IXSlbQ0gyXUM1PUM2QzRcT1tDQEBIXTNDMjU2

>  <s_epik_cmdline>  (369) 
J2VwaWtfcHl0aG9uJywgJy1waHQnLCAnMi4wJywgJy1waCcsICc3LjAnLCAnLXRuJywgJzgnLCAnLW1hJywgJzIwMCcsICctaW1hZScsICc8aW5maWxlLm1hZT4nLCAnLW9tYWUnLCAnPG91dGZpbGUubWFlPic=

>  <r_epik_Ionization_Penalty>  (369) 
0.979854

>  <r_epik_Ionization_Penalty_Charging>  (369) 
0.979631

>  <r_epik_Ionization_Penalty_Neutral>  (369) 
0.000223455

>  <r_epik_State_Penalty>  (369) 
2.64285

>  <r_epik_Charging_Adjusted_Penalty>  (369) 
3.62248

>  <i_epik_Tot_Q>  (369) 
0

>  <i_epik_Tot_abs_Q>  (369) 
2

>  <s_lp_Force_Field>  (369) 
OPLS3e

>  <r_lp_Energy>  (369) 
147.17

>  <b_lp_Chiralities_Consistent>  (369) 
0

>  <s_lp_Variant>  (369) 
83:0-12

>  <s_i_glide_gridfile>  (369) 
pfpi4k_grid

>  <i_i_glide_lignum>  (369) 
6

>  <i_i_glide_rotatable_bonds>  (369) 
4

>  <r_i_docking_score>  (369) 
-3.43795

>  <r_i_glide_ligand_efficiency>  (369) 
-0.149476

>  <r_i_glide_ligand_efficiency_sa>  (369) 
-0.42509

>  <r_i_glide_ligand_efficiency_ln>  (369) 
-0.831327

>  <r_i_glide_gscore>  (369) 
-3.43795

>  <r_i_glide_lipo>  (369) 
-0.571242

>  <r_i_glide_hbond>  (369) 
-0.0583546

>  <r_i_glide_metal>  (369) 
-0

>  <r_i_glide_rewards>  (369) 
-1.34397

>  <r_i_glide_evdw>  (369) 
-21.3931

>  <r_i_glide_ecoul>  (369) 
-5.12535

>  <r_i_glide_erotb>  (369) 
0.374073

>  <r_i_glide_esite>  (369) 
0

>  <r_i_glide_emodel>  (369) 
-34.3554

>  <r_i_glide_energy>  (369) 
-26.5185

>  <r_i_glide_einternal>  (369) 
1.25652

>  <r_i_glide_intrahb_reward>  (369) 
-0

>  <i_i_glide_confnum>  (369) 
2

>  <i_i_glide_posenum>  (369) 
5

>  <r_i_glide_eff_state_penalty>  (369) 
0

>  <ligand_id>  (369) 
83

>  <original_smiles>  (369) 
OC1=C2OC3C(O)C4(O)C(C=C1)CC1=C2C13CCN4CC1CC1

>  <smiles>  (369) 
[H]OC1=C2OC3([H])C([H])(O[H])C4([O-])C([H])(C([H])=C1[H])C([H])([H])C1=C2C13C([H])([H])C([H])([H])[N+]4([H])C([H])([H])C1([H])C([H])([H])C1([H])[H]

$$$$
84:0:0
     RDKit          3D

 53 57  0  0  1  0  0  0  0  0999 V2000
    5.1815   -1.5202    2.3843 C   0  0  0  0  0  0  0  0  0  0  0  0
    5.0901   -2.6685    1.3657 C   0  0  2  0  0  0  0  0  0  0  0  0
    3.7287   -3.4042    1.3542 C   0  0  0  0  0  0  0  0  0  0  0  0
    3.7640   -4.1189    0.0577 N   0  0  0  0  0  0  0  0  0  0  0  0
    5.0486   -3.7355   -0.5713 C   0  0  2  0  0  0  0  0  0  0  0  0
    5.0829   -3.9938   -2.0874 C   0  0  0  0  0  0  0  0  0  0  0  0
    6.1956   -4.4546    0.1957 C   0  0  2  0  0  0  0  0  0  0  0  0
    5.9842   -5.9358    0.5168 C   0  0  0  0  0  0  0  0  0  0  0  0
    5.5097   -5.9743    1.9025 N   0  0  0  0  0  0  0  0  0  0  0  0
    4.7107   -6.9273    2.4653 C   0  0  0  0  0  0  0  0  0  0  0  0
    4.5494   -7.1225    4.1222 S   0  0  0  0  0  0  0  0  0  0  0  0
    3.8668   -7.8081    1.5335 C   0  0  0  0  0  0  0  0  0  0  0  0
    2.4413   -7.4815    1.5758 N   0  0  0  0  0  0  0  0  0  0  0  0
    1.9643   -6.3922    0.9106 N   0  0  0  0  0  0  0  0  0  0  0  0
    0.6728   -6.3622    1.0187 N   0  0  0  0  0  0  0  0  0  0  0  0
    0.2770   -7.4520    1.7803 C   0  0  0  0  0  0  0  0  0  0  0  0
   -0.9707   -7.7805    2.1337 N   0  0  0  0  0  0  0  0  0  0  0  0
   -1.0931   -8.9181    2.8655 C   0  0  0  0  0  0  0  0  0  0  0  0
   -0.0133   -9.7341    3.2826 C   0  0  0  0  0  0  0  0  0  0  0  0
    1.2915   -9.3633    2.9093 C   0  0  0  0  0  0  0  0  0  0  0  0
    1.4159   -8.1960    2.1509 C   0  0  0  0  0  0  0  0  0  0  0  0
    6.0741   -4.8140    2.6085 C   0  0  0  0  0  0  0  0  0  0  0  0
    6.2307   -3.7198    1.5376 C   0  0  2  0  0  0  0  0  0  0  0  0
    5.2017   -2.2643   -0.1291 C   0  0  0  0  0  0  0  0  0  0  0  0
    4.0779   -1.3225   -0.6616 C   0  0  0  0  0  0  0  0  0  0  0  0
    6.5377   -1.5973   -0.5328 C   0  0  0  0  0  0  0  0  0  0  0  0
    4.3950   -0.7807    2.2291 H   0  0  0  0  0  0  0  0  0  0  0  0
    6.1418   -1.0082    2.3043 H   0  0  0  0  0  0  0  0  0  0  0  0
    5.0949   -1.8965    3.4044 H   0  0  0  0  0  0  0  0  0  0  0  0
    3.5876   -4.0832    2.1938 H   0  0  0  0  0  0  0  0  0  0  0  0
    2.8889   -2.7095    1.3747 H   0  0  0  0  0  0  0  0  0  0  0  0
    3.7350   -5.1170    0.1865 H   0  0  0  0  0  0  0  0  0  0  0  0
    6.0334   -3.6615   -2.5097 H   0  0  0  0  0  0  0  0  0  0  0  0
    4.2818   -3.4719   -2.6147 H   0  0  0  0  0  0  0  0  0  0  0  0
    5.0134   -5.0589   -2.3131 H   0  0  0  0  0  0  0  0  0  0  0  0
    7.1476   -4.3354   -0.3204 H   0  0  0  0  0  0  0  0  0  0  0  0
    5.3605   -6.3969   -0.2428 H   0  0  0  0  0  0  0  0  0  0  0  0
    6.9531   -6.4423    0.5197 H   0  0  0  0  0  0  0  0  0  0  0  0
    4.1702   -7.7874    0.4908 H   0  0  0  0  0  0  0  0  0  0  0  0
    3.9837   -8.8463    1.8493 H   0  0  0  0  0  0  0  0  0  0  0  0
   -2.0993   -9.1837    3.1440 H   0  0  0  0  0  0  0  0  0  0  0  0
   -0.1903  -10.6117    3.8843 H   0  0  0  0  0  0  0  0  0  0  0  0
    2.1529   -9.9408    3.2013 H   0  0  0  0  0  0  0  0  0  0  0  0
    5.4944   -4.4750    3.4691 H   0  0  0  0  0  0  0  0  0  0  0  0
    7.0592   -5.1024    2.9775 H   0  0  0  0  0  0  0  0  0  0  0  0
    7.1885   -3.2183    1.6782 H   0  0  0  0  0  0  0  0  0  0  0  0
    4.2233   -1.0996   -1.7185 H   0  0  0  0  0  0  0  0  0  0  0  0
    4.0895   -0.3683   -0.1336 H   0  0  0  0  0  0  0  0  0  0  0  0
    3.0627   -1.7123   -0.5832 H   0  0  0  0  0  0  0  0  0  0  0  0
    6.5702   -1.4805   -1.6149 H   0  0  0  0  0  0  0  0  0  0  0  0
    7.4371   -2.1366   -0.2409 H   0  0  0  0  0  0  0  0  0  0  0  0
    6.6030   -0.6051   -0.0856 H   0  0  0  0  0  0  0  0  0  0  0  0
    3.0005   -3.8090   -0.5252 H   0  0  0  0  0  0  0  0  0  0  0  0
  2  1  1  1
  1 27  1  0
  1 28  1  0
  1 29  1  0
  2 23  1  0
  2 24  1  0
  2  3  1  0
  3  4  1  0
  3 30  1  0
  3 31  1  0
  4  5  1  0
  4 32  1  0
  4 53  1  0
  5  6  1  6
  5  7  1  0
  5 24  1  0
  6 33  1  0
  6 34  1  0
  6 35  1  0
  7 23  1  0
  7  8  1  0
  7 36  1  6
  8  9  1  0
  8 37  1  0
  8 38  1  0
  9 10  1  0
  9 22  1  0
 10 11  2  0
 10 12  1  0
 12 13  1  0
 12 39  1  0
 12 40  1  0
 13 21  1  0
 13 14  1  0
 14 15  2  0
 15 16  1  0
 16 21  2  0
 16 17  1  0
 17 18  2  0
 18 19  1  0
 18 41  1  0
 19 20  2  0
 19 42  1  0
 20 21  1  0
 20 43  1  0
 22 23  1  0
 22 44  1  0
 22 45  1  0
 23 46  1  1
 24 25  1  0
 24 26  1  0
 25 47  1  0
 25 48  1  0
 25 49  1  0
 26 50  1  0
 26 51  1  0
 26 52  1  0
M  CHG  1   4   1
M  END
>  <i_m_ct_stereo_status>  (370) 
1

>  <s_m_source_file>  (370) 
/var/tmp/pbs.5076255.sched01/tmp9yj1qf5s/135tauqa2n_.sdf

>  <i_m_source_file_index>  (370) 
7

>  <i_lp_mmshare_version>  (370) 
48012

>  <i_f3d_flags>  (370) 
0

>  <s_epik_input>  (370) 
W0NIM11bQ0BAXTEyW0NAQEhdM1tDQEhdKFtDQEBdKFtDSDNdKShbTkhdW0NIMl0xKUMyKFtDSDNdKVtDSDNdKVtDSDJdTihbQ0gyXTMpQyg9UylbQ0gyXW4obm40KWMoYzQ1KVtjSF1bY0hdW2NIXW41

>  <s_epik_cmdline>  (370) 
J2VwaWtfcHl0aG9uJywgJy1waHQnLCAnMi4wJywgJy1waCcsICc3LjAnLCAnLXRuJywgJzgnLCAnLW1hJywgJzIwMCcsICctaW1hZScsICc8aW5maWxlLm1hZT4nLCAnLW9tYWUnLCAnPG91dGZpbGUubWFlPic=

>  <r_lp_tautomer_probability>  (370) 
1

>  <r_epik_Ionization_Penalty>  (370) 
0.000113091

>  <r_epik_Ionization_Penalty_Charging>  (370) 
0.000113085

>  <r_epik_Ionization_Penalty_Neutral>  (370) 
5.83154e-09

>  <r_epik_State_Penalty>  (370) 
-0

>  <r_epik_Charging_Adjusted_Penalty>  (370) 
0.000113085

>  <i_epik_Tot_Q>  (370) 
1

>  <i_epik_Tot_abs_Q>  (370) 
1

>  <s_lp_Force_Field>  (370) 
OPLS3e

>  <r_lp_Energy>  (370) 
58.0003

>  <b_lp_Chiralities_Consistent>  (370) 
1

>  <s_lp_Variant>  (370) 
84:0-1

>  <s_i_glide_gridfile>  (370) 
pfpi4k_grid

>  <i_i_glide_lignum>  (370) 
7

>  <i_i_glide_rotatable_bonds>  (370) 
3

>  <r_i_docking_score>  (370) 
-4.11323

>  <r_i_glide_ligand_efficiency>  (370) 
-0.158201

>  <r_i_glide_ligand_efficiency_sa>  (370) 
-0.46867

>  <r_i_glide_ligand_efficiency_ln>  (370) 
-0.965978

>  <r_i_glide_gscore>  (370) 
-4.11323

>  <r_i_glide_lipo>  (370) 
-0.484425

>  <r_i_glide_hbond>  (370) 
0

>  <r_i_glide_metal>  (370) 
-0

>  <r_i_glide_rewards>  (370) 
-1.43323

>  <r_i_glide_evdw>  (370) 
-28.0437

>  <r_i_glide_ecoul>  (370) 
-6.59115

>  <r_i_glide_erotb>  (370) 
0.419563

>  <r_i_glide_esite>  (370) 
-0.224272

>  <r_i_glide_emodel>  (370) 
-48.0989

>  <r_i_glide_energy>  (370) 
-34.6349

>  <r_i_glide_einternal>  (370) 
2.04707

>  <r_i_glide_intrahb_reward>  (370) 
-0.5

>  <i_i_glide_confnum>  (370) 
1

>  <i_i_glide_posenum>  (370) 
28

>  <r_i_glide_eff_state_penalty>  (370) 
0

>  <ligand_id>  (370) 
84

>  <original_smiles>  (370) 
CC12CNC(C)(C3CN(C(=S)Cn4nnc5ncccc54)CC31)C2(C)C

>  <smiles>  (370) 
[H]c1nc2nnn(C([H])([H])C(=S)N3C([H])([H])C4([H])C([H])(C3([H])[H])C3(C([H])([H])[H])C(C([H])([H])[H])(C([H])([H])[H])C4(C([H])([H])[H])C([H])([H])[N+]3([H])[H])c2c([H])c1[H]

$$$$
84:0:1
     RDKit          3D

 53 57  0  0  1  0  0  0  0  0999 V2000
    3.5520   -0.6365    0.6665 C   0  0  0  0  0  0  0  0  0  0  0  0
    3.9317   -1.9918    0.0688 C   0  0  2  0  0  0  0  0  0  0  0  0
    2.8477   -3.0751    0.2444 C   0  0  0  0  0  0  0  0  0  0  0  0
    3.2678   -4.0974   -0.7357 N   0  0  0  0  0  0  0  0  0  0  0  0
    4.4625   -3.5499   -1.4105 C   0  0  2  0  0  0  0  0  0  0  0  0
    4.7722   -4.2185   -2.7551 C   0  0  0  0  0  0  0  0  0  0  0  0
    5.6409   -3.6180   -0.4052 C   0  0  2  0  0  0  0  0  0  0  0  0
    5.8038   -4.9295    0.3697 C   0  0  0  0  0  0  0  0  0  0  0  0
    5.1745   -4.6926    1.6664 N   0  0  0  0  0  0  0  0  0  0  0  0
    4.5947   -5.6355    2.4797 C   0  0  0  0  0  0  0  0  0  0  0  0
    4.3500   -5.3897    4.1127 S   0  0  0  0  0  0  0  0  0  0  0  0
    4.0664   -6.9315    1.8435 C   0  0  0  0  0  0  0  0  0  0  0  0
    2.6154   -6.9773    1.7372 N   0  0  0  0  0  0  0  0  0  0  0  0
    1.9731   -6.1501    0.8707 N   0  0  0  0  0  0  0  0  0  0  0  0
    0.6942   -6.4095    0.8949 N   0  0  0  0  0  0  0  0  0  0  0  0
    0.4928   -7.4456    1.7869 C   0  0  0  0  0  0  0  0  0  0  0  0
   -0.6736   -8.0070    2.1079 N   0  0  0  0  0  0  0  0  0  0  0  0
   -0.6075   -9.0326    2.9901 C   0  0  0  0  0  0  0  0  0  0  0  0
    0.5843   -9.5070    3.6028 C   0  0  0  0  0  0  0  0  0  0  0  0
    1.7956   -8.8854    3.2661 C   0  0  0  0  0  0  0  0  0  0  0  0
    1.7276   -7.8341    2.3408 C   0  0  0  0  0  0  0  0  0  0  0  0
    5.2795   -3.2614    1.9873 C   0  0  0  0  0  0  0  0  0  0  0  0
    5.2808   -2.5400    0.6263 C   0  0  2  0  0  0  0  0  0  0  0  0
    4.1281   -2.0476   -1.4682 C   0  0  0  0  0  0  0  0  0  0  0  0
    2.8889   -1.7218   -2.3479 C   0  0  0  0  0  0  0  0  0  0  0  0
    5.2493   -1.1526   -2.0140 C   0  0  0  0  0  0  0  0  0  0  0  0
    2.6132   -0.2711    0.2492 H   0  0  0  0  0  0  0  0  0  0  0  0
    4.3187    0.1063    0.4602 H   0  0  0  0  0  0  0  0  0  0  0  0
    3.4244   -0.7009    1.7463 H   0  0  0  0  0  0  0  0  0  0  0  0
    2.7830   -3.4754    1.2557 H   0  0  0  0  0  0  0  0  0  0  0  0
    1.8481   -2.7085    0.0104 H   0  0  0  0  0  0  0  0  0  0  0  0
    3.5053   -4.9682   -0.2917 H   0  0  0  0  0  0  0  0  0  0  0  0
    5.6438   -3.7646   -3.2196 H   0  0  0  0  0  0  0  0  0  0  0  0
    3.9433   -4.1522   -3.4646 H   0  0  0  0  0  0  0  0  0  0  0  0
    5.0071   -5.2712   -2.6134 H   0  0  0  0  0  0  0  0  0  0  0  0
    6.5767   -3.3932   -0.9182 H   0  0  0  0  0  0  0  0  0  0  0  0
    5.4602   -5.7702   -0.2291 H   0  0  0  0  0  0  0  0  0  0  0  0
    6.8620   -5.0851    0.5868 H   0  0  0  0  0  0  0  0  0  0  0  0
    4.4537   -7.1637    0.8498 H   0  0  0  0  0  0  0  0  0  0  0  0
    4.3985   -7.7616    2.4691 H   0  0  0  0  0  0  0  0  0  0  0  0
   -1.5562   -9.4984    3.2267 H   0  0  0  0  0  0  0  0  0  0  0  0
    0.5472  -10.3127    4.3216 H   0  0  0  0  0  0  0  0  0  0  0  0
    2.7384   -9.1763    3.7025 H   0  0  0  0  0  0  0  0  0  0  0  0
    4.5036   -2.8895    2.6637 H   0  0  0  0  0  0  0  0  0  0  0  0
    6.2371   -3.0952    2.4803 H   0  0  0  0  0  0  0  0  0  0  0  0
    6.0260   -1.7460    0.6383 H   0  0  0  0  0  0  0  0  0  0  0  0
    3.1090   -1.8009   -3.4134 H   0  0  0  0  0  0  0  0  0  0  0  0
    2.5980   -0.6877   -2.1819 H   0  0  0  0  0  0  0  0  0  0  0  0
    2.0172   -2.3575   -2.1868 H   0  0  0  0  0  0  0  0  0  0  0  0
    5.3834   -1.3599   -3.0745 H   0  0  0  0  0  0  0  0  0  0  0  0
    6.2151   -1.2883   -1.5361 H   0  0  0  0  0  0  0  0  0  0  0  0
    4.9633   -0.1051   -1.9192 H   0  0  0  0  0  0  0  0  0  0  0  0
    2.5519   -4.2415   -1.4374 H   0  0  0  0  0  0  0  0  0  0  0  0
  2  1  1  1
  1 27  1  0
  1 28  1  0
  1 29  1  0
  2 23  1  0
  2 24  1  0
  2  3  1  0
  3  4  1  0
  3 30  1  0
  3 31  1  0
  4  5  1  0
  4 32  1  0
  4 53  1  0
  5  6  1  6
  5  7  1  0
  5 24  1  0
  6 33  1  0
  6 34  1  0
  6 35  1  0
  7 23  1  0
  7  8  1  0
  7 36  1  6
  8  9  1  0
  8 37  1  0
  8 38  1  0
  9 10  1  0
  9 22  1  0
 10 11  2  0
 10 12  1  0
 12 13  1  0
 12 39  1  0
 12 40  1  0
 13 21  1  0
 13 14  1  0
 14 15  2  0
 15 16  1  0
 16 21  2  0
 16 17  1  0
 17 18  2  0
 18 19  1  0
 18 41  1  0
 19 20  2  0
 19 42  1  0
 20 21  1  0
 20 43  1  0
 22 23  1  0
 22 44  1  0
 22 45  1  0
 23 46  1  1
 24 25  1  0
 24 26  1  0
 25 47  1  0
 25 48  1  0
 25 49  1  0
 26 50  1  0
 26 51  1  0
 26 52  1  0
M  CHG  1   4   1
M  END
>  <i_m_ct_stereo_status>  (371) 
1

>  <s_m_source_file>  (371) 
/var/tmp/pbs.5076255.sched01/tmp9yj1qf5s/135tauqa2n_.sdf

>  <i_m_source_file_index>  (371) 
7

>  <i_lp_mmshare_version>  (371) 
48012

>  <i_f3d_flags>  (371) 
0

>  <s_epik_input>  (371) 
W0NIM11bQ0BAXTEyW0NAQEhdM1tDQEhdKFtDQEBdKFtDSDNdKShbTkhdW0NIMl0xKUMyKFtDSDNdKVtDSDNdKVtDSDJdTihbQ0gyXTMpQyg9UylbQ0gyXW4obm40KWMoYzQ1KVtjSF1bY0hdW2NIXW41

>  <s_epik_cmdline>  (371) 
J2VwaWtfcHl0aG9uJywgJy1waHQnLCAnMi4wJywgJy1waCcsICc3LjAnLCAnLXRuJywgJzgnLCAnLW1hJywgJzIwMCcsICctaW1hZScsICc8aW5maWxlLm1hZT4nLCAnLW9tYWUnLCAnPG91dGZpbGUubWFlPic=

>  <r_lp_tautomer_probability>  (371) 
1

>  <r_epik_Ionization_Penalty>  (371) 
0.000113091

>  <r_epik_Ionization_Penalty_Charging>  (371) 
0.000113085

>  <r_epik_Ionization_Penalty_Neutral>  (371) 
5.83154e-09

>  <r_epik_State_Penalty>  (371) 
-0

>  <r_epik_Charging_Adjusted_Penalty>  (371) 
0.000113085

>  <i_epik_Tot_Q>  (371) 
1

>  <i_epik_Tot_abs_Q>  (371) 
1

>  <s_lp_Force_Field>  (371) 
OPLS3e

>  <r_lp_Energy>  (371) 
58.0003

>  <b_lp_Chiralities_Consistent>  (371) 
1

>  <s_lp_Variant>  (371) 
84:0-1

>  <s_i_glide_gridfile>  (371) 
pfpi4k_grid

>  <i_i_glide_lignum>  (371) 
7

>  <i_i_glide_rotatable_bonds>  (371) 
3

>  <r_i_docking_score>  (371) 
-3.98954

>  <r_i_glide_ligand_efficiency>  (371) 
-0.153444

>  <r_i_glide_ligand_efficiency_sa>  (371) 
-0.454577

>  <r_i_glide_ligand_efficiency_ln>  (371) 
-0.936931

>  <r_i_glide_gscore>  (371) 
-3.98954

>  <r_i_glide_lipo>  (371) 
-0.292041

>  <r_i_glide_hbond>  (371) 
0

>  <r_i_glide_metal>  (371) 
-0

>  <r_i_glide_rewards>  (371) 
-1.42288

>  <r_i_glide_evdw>  (371) 
-26.5569

>  <r_i_glide_ecoul>  (371) 
-7.51732

>  <r_i_glide_erotb>  (371) 
0.419563

>  <r_i_glide_esite>  (371) 
-0.238747

>  <r_i_glide_emodel>  (371) 
-46.5247

>  <r_i_glide_energy>  (371) 
-34.0742

>  <r_i_glide_einternal>  (371) 
3.13564

>  <r_i_glide_intrahb_reward>  (371) 
-0.5

>  <i_i_glide_confnum>  (371) 
3

>  <i_i_glide_posenum>  (371) 
14

>  <r_i_glide_eff_state_penalty>  (371) 
0

>  <ligand_id>  (371) 
84

>  <original_smiles>  (371) 
CC12CNC(C)(C3CN(C(=S)Cn4nnc5ncccc54)CC31)C2(C)C

>  <smiles>  (371) 
[H]c1nc2nnn(C([H])([H])C(=S)N3C([H])([H])C4([H])C([H])(C3([H])[H])C3(C([H])([H])[H])C(C([H])([H])[H])(C([H])([H])[H])C4(C([H])([H])[H])C([H])([H])[N+]3([H])[H])c2c([H])c1[H]

$$$$
84:0:2
     RDKit          3D

 53 57  0  0  1  0  0  0  0  0999 V2000
    6.2307   -0.7756    1.1940 C   0  0  0  0  0  0  0  0  0  0  0  0
    4.9726   -1.6509    1.1827 C   0  0  2  0  0  0  0  0  0  0  0  0
    3.6434   -0.8623    1.3082 C   0  0  0  0  0  0  0  0  0  0  0  0
    2.6346   -1.8394    0.8646 N   0  0  0  0  0  0  0  0  0  0  0  0
    3.4135   -3.0332    0.4845 C   0  0  2  0  0  0  0  0  0  0  0  0
    2.6436   -3.9931   -0.4330 C   0  0  0  0  0  0  0  0  0  0  0  0
    3.9193   -3.7214    1.7892 C   0  0  2  0  0  0  0  0  0  0  0  0
    2.9160   -3.8650    2.9442 C   0  0  0  0  0  0  0  0  0  0  0  0
    3.1884   -2.7417    3.8449 N   0  0  0  0  0  0  0  0  0  0  0  0
    2.2895   -2.1154    4.6773 C   0  0  0  0  0  0  0  0  0  0  0  0
    2.7775   -1.0072    5.8381 S   0  0  0  0  0  0  0  0  0  0  0  0
    0.7945   -2.4667    4.5013 C   0  0  0  0  0  0  0  0  0  0  0  0
   -0.1339   -1.3651    4.6987 N   0  0  0  0  0  0  0  0  0  0  0  0
   -1.0748   -1.4412    5.6809 N   0  0  0  0  0  0  0  0  0  0  0  0
   -1.7811   -0.3559    5.6685 N   0  0  0  0  0  0  0  0  0  0  0  0
   -1.3189    0.4536    4.6385 C   0  0  0  0  0  0  0  0  0  0  0  0
   -1.7687    1.6679    4.2937 N   0  0  0  0  0  0  0  0  0  0  0  0
   -1.1779    2.2411    3.2164 C   0  0  0  0  0  0  0  0  0  0  0  0
   -0.1292    1.6579    2.4609 C   0  0  0  0  0  0  0  0  0  0  0  0
    0.3405    0.3924    2.8564 C   0  0  0  0  0  0  0  0  0  0  0  0
   -0.2697   -0.1967    3.9625 C   0  0  0  0  0  0  0  0  0  0  0  0
    4.6131   -2.3905    3.7175 C   0  0  0  0  0  0  0  0  0  0  0  0
    5.0068   -2.7627    2.2767 C   0  0  2  0  0  0  0  0  0  0  0  0
    4.7100   -2.4379   -0.1248 C   0  0  0  0  0  0  0  0  0  0  0  0
    4.4706   -1.5705   -1.3969 C   0  0  0  0  0  0  0  0  0  0  0  0
    5.8087   -3.4641   -0.5166 C   0  0  0  0  0  0  0  0  0  0  0  0
    6.2094   -0.0117    0.4167 H   0  0  0  0  0  0  0  0  0  0  0  0
    7.1317   -1.3740    1.0500 H   0  0  0  0  0  0  0  0  0  0  0  0
    6.3318   -0.2697    2.1546 H   0  0  0  0  0  0  0  0  0  0  0  0
    3.4714   -0.4873    2.3143 H   0  0  0  0  0  0  0  0  0  0  0  0
    3.6439    0.0224    0.6737 H   0  0  0  0  0  0  0  0  0  0  0  0
    2.0005   -2.0540    1.6210 H   0  0  0  0  0  0  0  0  0  0  0  0
    3.2678   -4.8430   -0.7033 H   0  0  0  0  0  0  0  0  0  0  0  0
    2.3153   -3.5206   -1.3623 H   0  0  0  0  0  0  0  0  0  0  0  0
    1.7800   -4.4167    0.0705 H   0  0  0  0  0  0  0  0  0  0  0  0
    4.3370   -4.7021    1.5619 H   0  0  0  0  0  0  0  0  0  0  0  0
    1.9080   -3.9809    2.5569 H   0  0  0  0  0  0  0  0  0  0  0  0
    3.1490   -4.7675    3.5131 H   0  0  0  0  0  0  0  0  0  0  0  0
    0.5578   -2.7888    3.4909 H   0  0  0  0  0  0  0  0  0  0  0  0
    0.5604   -3.2946    5.1779 H   0  0  0  0  0  0  0  0  0  0  0  0
   -1.5561    3.2136    2.9270 H   0  0  0  0  0  0  0  0  0  0  0  0
    0.2951    2.1620    1.6080 H   0  0  0  0  0  0  0  0  0  0  0  0
    1.1375   -0.0953    2.3245 H   0  0  0  0  0  0  0  0  0  0  0  0
    4.8654   -1.3553    3.9583 H   0  0  0  0  0  0  0  0  0  0  0  0
    5.1636   -3.0278    4.4129 H   0  0  0  0  0  0  0  0  0  0  0  0
    5.9823   -3.2495    2.2909 H   0  0  0  0  0  0  0  0  0  0  0  0
    4.2763   -2.2041   -2.2639 H   0  0  0  0  0  0  0  0  0  0  0  0
    5.3487   -0.9715   -1.6374 H   0  0  0  0  0  0  0  0  0  0  0  0
    3.6250   -0.8852   -1.3414 H   0  0  0  0  0  0  0  0  0  0  0  0
    5.4883   -4.0648   -1.3689 H   0  0  0  0  0  0  0  0  0  0  0  0
    6.0884   -4.1644    0.2652 H   0  0  0  0  0  0  0  0  0  0  0  0
    6.7206   -2.9516   -0.8196 H   0  0  0  0  0  0  0  0  0  0  0  0
    2.0990   -1.4673    0.0737 H   0  0  0  0  0  0  0  0  0  0  0  0
  2  1  1  6
  1 27  1  0
  1 28  1  0
  1 29  1  0
  2 23  1  0
  2 24  1  0
  2  3  1  0
  3  4  1  0
  3 30  1  0
  3 31  1  0
  4  5  1  0
  4 32  1  0
  4 53  1  0
  5  6  1  6
  5  7  1  0
  5 24  1  0
  6 33  1  0
  6 34  1  0
  6 35  1  0
  7 23  1  0
  7  8  1  0
  7 36  1  6
  8  9  1  0
  8 37  1  0
  8 38  1  0
  9 10  1  0
  9 22  1  0
 10 11  2  0
 10 12  1  0
 12 13  1  0
 12 39  1  0
 12 40  1  0
 13 21  1  0
 13 14  1  0
 14 15  2  0
 15 16  1  0
 16 21  2  0
 16 17  1  0
 17 18  2  0
 18 19  1  0
 18 41  1  0
 19 20  2  0
 19 42  1  0
 20 21  1  0
 20 43  1  0
 22 23  1  0
 22 44  1  0
 22 45  1  0
 23 46  1  1
 24 25  1  0
 24 26  1  0
 25 47  1  0
 25 48  1  0
 25 49  1  0
 26 50  1  0
 26 51  1  0
 26 52  1  0
M  CHG  1   4   1
M  END
>  <i_m_ct_stereo_status>  (372) 
1

>  <s_m_source_file>  (372) 
/var/tmp/pbs.5076255.sched01/tmp9yj1qf5s/135tauqa2n_.sdf

>  <i_m_source_file_index>  (372) 
7

>  <i_lp_mmshare_version>  (372) 
48012

>  <i_f3d_flags>  (372) 
0

>  <s_epik_input>  (372) 
W0NIM11bQ0BAXTEyW0NAQEhdM1tDQEhdKFtDQEBdKFtDSDNdKShbTkhdW0NIMl0xKUMyKFtDSDNdKVtDSDNdKVtDSDJdTihbQ0gyXTMpQyg9UylbQ0gyXW4obm40KWMoYzQ1KVtjSF1bY0hdW2NIXW41

>  <s_epik_cmdline>  (372) 
J2VwaWtfcHl0aG9uJywgJy1waHQnLCAnMi4wJywgJy1waCcsICc3LjAnLCAnLXRuJywgJzgnLCAnLW1hJywgJzIwMCcsICctaW1hZScsICc8aW5maWxlLm1hZT4nLCAnLW9tYWUnLCAnPG91dGZpbGUubWFlPic=

>  <r_lp_tautomer_probability>  (372) 
1

>  <r_epik_Ionization_Penalty>  (372) 
0.000113091

>  <r_epik_Ionization_Penalty_Charging>  (372) 
0.000113085

>  <r_epik_Ionization_Penalty_Neutral>  (372) 
5.83154e-09

>  <r_epik_State_Penalty>  (372) 
-0

>  <r_epik_Charging_Adjusted_Penalty>  (372) 
0.000113085

>  <i_epik_Tot_Q>  (372) 
1

>  <i_epik_Tot_abs_Q>  (372) 
1

>  <s_lp_Force_Field>  (372) 
OPLS3e

>  <r_lp_Energy>  (372) 
58.0003

>  <b_lp_Chiralities_Consistent>  (372) 
1

>  <s_lp_Variant>  (372) 
84:0-1

>  <s_i_glide_gridfile>  (372) 
pfpi4k_grid

>  <i_i_glide_lignum>  (372) 
7

>  <i_i_glide_rotatable_bonds>  (372) 
3

>  <r_i_docking_score>  (372) 
-3.91843

>  <r_i_glide_ligand_efficiency>  (372) 
-0.150709

>  <r_i_glide_ligand_efficiency_sa>  (372) 
-0.446474

>  <r_i_glide_ligand_efficiency_ln>  (372) 
-0.92023

>  <r_i_glide_gscore>  (372) 
-3.91843

>  <r_i_glide_lipo>  (372) 
-0.302891

>  <r_i_glide_hbond>  (372) 
-0.2

>  <r_i_glide_metal>  (372) 
-0

>  <r_i_glide_rewards>  (372) 
-0.875974

>  <r_i_glide_evdw>  (372) 
-25.3086

>  <r_i_glide_ecoul>  (372) 
-9.68296

>  <r_i_glide_erotb>  (372) 
0.419563

>  <r_i_glide_esite>  (372) 
-0.241251

>  <r_i_glide_emodel>  (372) 
-42.8811

>  <r_i_glide_energy>  (372) 
-34.9915

>  <r_i_glide_einternal>  (372) 
2.85452

>  <r_i_glide_intrahb_reward>  (372) 
-0

>  <i_i_glide_confnum>  (372) 
3

>  <i_i_glide_posenum>  (372) 
30

>  <r_i_glide_eff_state_penalty>  (372) 
0

>  <ligand_id>  (372) 
84

>  <original_smiles>  (372) 
CC12CNC(C)(C3CN(C(=S)Cn4nnc5ncccc54)CC31)C2(C)C

>  <smiles>  (372) 
[H]c1nc2nnn(C([H])([H])C(=S)N3C([H])([H])C4([H])C([H])(C3([H])[H])C3(C([H])([H])[H])C(C([H])([H])[H])(C([H])([H])[H])C4(C([H])([H])[H])C([H])([H])[N+]3([H])[H])c2c([H])c1[H]

$$$$
85:0:0
     RDKit          3D

 35 37  0  0  1  0  0  0  0  0999 V2000
   -7.4810  -11.2350   -9.4413 O   0  0  0  0  0  0  0  0  0  0  0  0
   -6.9911  -10.4589   -8.6176 C   0  0  0  0  0  0  0  0  0  0  0  0
   -7.4660   -9.0818   -8.4650 C   0  0  0  0  0  0  0  0  0  0  0  0
   -6.8554   -8.2218   -7.6240 C   0  0  0  0  0  0  0  0  0  0  0  0
   -7.3774   -6.8114   -7.3294 C   0  0  0  0  0  0  0  0  0  0  0  0
   -6.7430   -6.1266   -6.1823 N   0  0  0  0  0  0  0  0  0  0  0  0
   -7.3259   -4.7890   -6.0244 C   0  0  0  0  0  0  0  0  0  0  0  0
   -6.6132   -4.0136   -4.8915 C   0  0  0  0  0  0  0  0  0  0  0  0
   -6.6822   -4.7605   -3.6216 N   0  0  0  0  0  0  0  0  0  0  0  0
   -6.1353   -6.1173   -3.7890 C   0  0  0  0  0  0  0  0  0  0  0  0
   -6.8725   -6.8513   -4.9104 C   0  0  0  0  0  0  0  0  0  0  0  0
   -5.7355   -8.6315   -6.9145 N   0  0  0  0  0  0  0  0  0  0  0  0
   -5.3615   -9.8614   -6.9008 C   0  0  0  0  0  0  0  0  0  0  0  0
   -4.3139  -10.3462   -6.0269 C   0  0  0  0  0  0  0  0  0  0  0  0
   -3.8499  -11.6007   -6.1233 C   0  0  0  0  0  0  0  0  0  0  0  0
   -4.4097  -12.5297   -7.0752 C   0  0  0  0  0  0  0  0  0  0  0  0
   -5.4279  -12.1314   -7.8557 C   0  0  0  0  0  0  0  0  0  0  0  0
   -5.9564  -10.8094   -7.7916 N   0  0  0  0  0  0  0  0  0  0  0  0
   -8.3335   -8.7622   -9.0259 H   0  0  0  0  0  0  0  0  0  0  0  0
   -7.2173   -6.2347   -8.2351 H   0  0  0  0  0  0  0  0  0  0  0  0
   -8.4559   -6.8405   -7.1827 H   0  0  0  0  0  0  0  0  0  0  0  0
   -7.2320   -4.2200   -6.9506 H   0  0  0  0  0  0  0  0  0  0  0  0
   -8.3929   -4.8693   -5.8195 H   0  0  0  0  0  0  0  0  0  0  0  0
   -5.5696   -3.8156   -5.1434 H   0  0  0  0  0  0  0  0  0  0  0  0
   -7.1019   -3.0513   -4.7357 H   0  0  0  0  0  0  0  0  0  0  0  0
   -6.1620   -4.2685   -2.9060 H   0  0  0  0  0  0  0  0  0  0  0  0
   -5.0659   -6.0797   -4.0027 H   0  0  0  0  0  0  0  0  0  0  0  0
   -6.2401   -6.6694   -2.8557 H   0  0  0  0  0  0  0  0  0  0  0  0
   -7.9281   -6.9755   -4.7233 H   0  0  0  0  0  0  0  0  0  0  0  0
   -6.4169   -7.8401   -4.8842 H   0  0  0  0  0  0  0  0  0  0  0  0
   -3.8721   -9.6966   -5.2825 H   0  0  0  0  0  0  0  0  0  0  0  0
   -3.0396  -11.8963   -5.4698 H   0  0  0  0  0  0  0  0  0  0  0  0
   -4.0010  -13.5377   -7.1434 H   0  0  0  0  0  0  0  0  0  0  0  0
   -5.8700  -12.8004   -8.5847 H   0  0  0  0  0  0  0  0  0  0  0  0
   -7.6453   -4.8410   -3.3357 H   0  0  0  0  0  0  0  0  0  0  0  0
  1  2  2  0
  2 18  1  0
  2  3  1  0
  3  4  2  0
  3 19  1  0
  4  5  1  0
  4 12  1  0
  5  6  1  0
  5 20  1  0
  5 21  1  0
  6 11  1  0
  6  7  1  0
  7  8  1  0
  7 22  1  0
  7 23  1  0
  8  9  1  0
  8 24  1  0
  8 25  1  0
  9 10  1  0
  9 26  1  0
  9 35  1  0
 10 11  1  0
 10 27  1  0
 10 28  1  0
 11 29  1  0
 11 30  1  0
 12 13  2  0
 13 18  1  0
 13 14  1  0
 14 15  2  0
 14 31  1  0
 15 16  1  0
 15 32  1  0
 16 17  2  0
 16 33  1  0
 17 18  1  0
 17 34  1  0
M  CHG  1   9   1
M  END
>  <i_m_ct_stereo_status>  (373) 
1

>  <s_m_source_file>  (373) 
/var/tmp/pbs.5076255.sched01/tmp9yj1qf5s/135tauqa2n_.sdf

>  <i_m_source_file_index>  (373) 
8

>  <i_lp_mmshare_version>  (373) 
48012

>  <i_f3d_flags>  (373) 
0

>  <s_epik_input>  (373) 
W2NIXTFbY0hdW2NIXVtjSF1uKGMxMiljKD1PKVtjSF1jKG4yKVtDSDJdTjNbQ0gyXVtDSDJdW05IXVtDSDJdW0NIMl0z

>  <s_epik_cmdline>  (373) 
J2VwaWtfcHl0aG9uJywgJy1waHQnLCAnMi4wJywgJy1waCcsICc3LjAnLCAnLXRuJywgJzgnLCAnLW1hJywgJzIwMCcsICctaW1hZScsICc8aW5maWxlLm1hZT4nLCAnLW9tYWUnLCAnPG91dGZpbGUubWFlPic=

>  <r_epik_Ionization_Penalty>  (373) 
0.0613817

>  <r_epik_Ionization_Penalty_Charging>  (373) 
0.00490944

>  <r_epik_Ionization_Penalty_Neutral>  (373) 
0.0564723

>  <r_epik_State_Penalty>  (373) 
0.370906

>  <r_epik_Charging_Adjusted_Penalty>  (373) 
0.375816

>  <i_epik_Tot_Q>  (373) 
1

>  <i_epik_Tot_abs_Q>  (373) 
1

>  <s_lp_Force_Field>  (373) 
OPLS3e

>  <r_lp_Energy>  (373) 
47.8162

>  <b_lp_Chiralities_Consistent>  (373) 
1

>  <s_lp_Variant>  (373) 
85:0-1

>  <s_i_glide_gridfile>  (373) 
pfpi4k_grid

>  <i_i_glide_lignum>  (373) 
8

>  <i_i_glide_rotatable_bonds>  (373) 
2

>  <r_i_docking_score>  (373) 
-4.17488

>  <r_i_glide_ligand_efficiency>  (373) 
-0.231938

>  <r_i_glide_ligand_efficiency_sa>  (373) 
-0.607849

>  <r_i_glide_ligand_efficiency_ln>  (373) 
-1.07313

>  <r_i_glide_gscore>  (373) 
-4.17488

>  <r_i_glide_lipo>  (373) 
-1.63661

>  <r_i_glide_hbond>  (373) 
0

>  <r_i_glide_metal>  (373) 
-0

>  <r_i_glide_rewards>  (373) 
-1.6373

>  <r_i_glide_evdw>  (373) 
-21.8229

>  <r_i_glide_ecoul>  (373) 
-2.58881

>  <r_i_glide_erotb>  (373) 
0.578497

>  <r_i_glide_esite>  (373) 
0

>  <r_i_glide_emodel>  (373) 
-33.086

>  <r_i_glide_energy>  (373) 
-24.4117

>  <r_i_glide_einternal>  (373) 
1.26286

>  <r_i_glide_intrahb_reward>  (373) 
-0

>  <i_i_glide_confnum>  (373) 
4

>  <i_i_glide_posenum>  (373) 
7

>  <r_i_glide_eff_state_penalty>  (373) 
0

>  <ligand_id>  (373) 
85

>  <original_smiles>  (373) 
O=c1cc(CN2CCNCC2)nc2ccccn12

>  <smiles>  (373) 
[H]c1c([H])c([H])n2c(=O)c([H])c(C([H])([H])N3C([H])([H])C([H])([H])[N+]([H])([H])C([H])([H])C3([H])[H])nc2c1[H]

$$$$
85:0:1
     RDKit          3D

 35 37  0  0  1  0  0  0  0  0999 V2000
    5.4325   -7.6822    1.1643 O   0  0  0  0  0  0  0  0  0  0  0  0
    4.4158   -7.0356    1.3529 C   0  0  0  0  0  0  0  0  0  0  0  0
    3.3900   -7.4887    2.2883 C   0  0  0  0  0  0  0  0  0  0  0  0
    2.2163   -6.8162    2.4089 C   0  0  0  0  0  0  0  0  0  0  0  0
    1.0886   -7.2234    3.3584 C   0  0  0  0  0  0  0  0  0  0  0  0
    1.3105   -8.4336    4.1492 N   0  0  0  0  0  0  0  0  0  0  0  0
    0.2633   -8.5348    5.1697 C   0  0  0  0  0  0  0  0  0  0  0  0
    0.5243   -9.7543    6.0787 C   0  0  0  0  0  0  0  0  0  0  0  0
    0.6160  -10.9913    5.2801 N   0  0  0  0  0  0  0  0  0  0  0  0
    1.6098  -10.8694    4.2038 C   0  0  0  0  0  0  0  0  0  0  0  0
    1.2907   -9.6504    3.3232 C   0  0  0  0  0  0  0  0  0  0  0  0
    1.9885   -5.6524    1.6984 N   0  0  0  0  0  0  0  0  0  0  0  0
    2.9178   -5.1556    0.9141 C   0  0  0  0  0  0  0  0  0  0  0  0
    2.7768   -3.8928    0.2151 C   0  0  0  0  0  0  0  0  0  0  0  0
    3.7403   -3.4340   -0.6042 C   0  0  0  0  0  0  0  0  0  0  0  0
    4.9670   -4.1711   -0.8095 C   0  0  0  0  0  0  0  0  0  0  0  0
    5.1274   -5.3310   -0.1491 C   0  0  0  0  0  0  0  0  0  0  0  0
    4.1376   -5.8486    0.7172 N   0  0  0  0  0  0  0  0  0  0  0  0
    3.6154   -8.3797    2.8601 H   0  0  0  0  0  0  0  0  0  0  0  0
    0.9121   -6.3683    4.0200 H   0  0  0  0  0  0  0  0  0  0  0  0
    0.1738   -7.3488    2.7786 H   0  0  0  0  0  0  0  0  0  0  0  0
    0.2468   -7.6329    5.7849 H   0  0  0  0  0  0  0  0  0  0  0  0
   -0.7208   -8.6080    4.6966 H   0  0  0  0  0  0  0  0  0  0  0  0
    1.4457   -9.6224    6.6571 H   0  0  0  0  0  0  0  0  0  0  0  0
   -0.2904   -9.8682    6.7951 H   0  0  0  0  0  0  0  0  0  0  0  0
    0.8593  -11.7452    5.9181 H   0  0  0  0  0  0  0  0  0  0  0  0
    2.6102  -10.7929    4.6489 H   0  0  0  0  0  0  0  0  0  0  0  0
    1.6002  -11.7731    3.6000 H   0  0  0  0  0  0  0  0  0  0  0  0
    0.3186   -9.7526    2.8314 H   0  0  0  0  0  0  0  0  0  0  0  0
    2.0481   -9.6359    2.5341 H   0  0  0  0  0  0  0  0  0  0  0  0
    1.8968   -3.2757    0.3274 H   0  0  0  0  0  0  0  0  0  0  0  0
    3.5868   -2.5018   -1.1166 H   0  0  0  0  0  0  0  0  0  0  0  0
    5.7224   -3.8050   -1.4806 H   0  0  0  0  0  0  0  0  0  0  0  0
    6.0331   -5.9165   -0.2822 H   0  0  0  0  0  0  0  0  0  0  0  0
   -0.3189  -11.1492    4.9089 H   0  0  0  0  0  0  0  0  0  0  0  0
  1  2  2  0
  2 18  1  0
  2  3  1  0
  3  4  2  0
  3 19  1  0
  4  5  1  0
  4 12  1  0
  5  6  1  0
  5 20  1  0
  5 21  1  0
  6 11  1  0
  6  7  1  0
  7  8  1  0
  7 22  1  0
  7 23  1  0
  8  9  1  0
  8 24  1  0
  8 25  1  0
  9 10  1  0
  9 26  1  0
  9 35  1  0
 10 11  1  0
 10 27  1  0
 10 28  1  0
 11 29  1  0
 11 30  1  0
 12 13  2  0
 13 18  1  0
 13 14  1  0
 14 15  2  0
 14 31  1  0
 15 16  1  0
 15 32  1  0
 16 17  2  0
 16 33  1  0
 17 18  1  0
 17 34  1  0
M  CHG  1   9   1
M  END
>  <i_m_ct_stereo_status>  (374) 
1

>  <s_m_source_file>  (374) 
/var/tmp/pbs.5076255.sched01/tmp9yj1qf5s/135tauqa2n_.sdf

>  <i_m_source_file_index>  (374) 
8

>  <i_lp_mmshare_version>  (374) 
48012

>  <i_f3d_flags>  (374) 
0

>  <s_epik_input>  (374) 
W2NIXTFbY0hdW2NIXVtjSF1uKGMxMiljKD1PKVtjSF1jKG4yKVtDSDJdTjNbQ0gyXVtDSDJdW05IXVtDSDJdW0NIMl0z

>  <s_epik_cmdline>  (374) 
J2VwaWtfcHl0aG9uJywgJy1waHQnLCAnMi4wJywgJy1waCcsICc3LjAnLCAnLXRuJywgJzgnLCAnLW1hJywgJzIwMCcsICctaW1hZScsICc8aW5maWxlLm1hZT4nLCAnLW9tYWUnLCAnPG91dGZpbGUubWFlPic=

>  <r_epik_Ionization_Penalty>  (374) 
0.0613817

>  <r_epik_Ionization_Penalty_Charging>  (374) 
0.00490944

>  <r_epik_Ionization_Penalty_Neutral>  (374) 
0.0564723

>  <r_epik_State_Penalty>  (374) 
0.370906

>  <r_epik_Charging_Adjusted_Penalty>  (374) 
0.375816

>  <i_epik_Tot_Q>  (374) 
1

>  <i_epik_Tot_abs_Q>  (374) 
1

>  <s_lp_Force_Field>  (374) 
OPLS3e

>  <r_lp_Energy>  (374) 
47.8162

>  <b_lp_Chiralities_Consistent>  (374) 
1

>  <s_lp_Variant>  (374) 
85:0-1

>  <s_i_glide_gridfile>  (374) 
pfpi4k_grid

>  <i_i_glide_lignum>  (374) 
8

>  <i_i_glide_rotatable_bonds>  (374) 
2

>  <r_i_docking_score>  (374) 
-3.8502

>  <r_i_glide_ligand_efficiency>  (374) 
-0.2139

>  <r_i_glide_ligand_efficiency_sa>  (374) 
-0.560577

>  <r_i_glide_ligand_efficiency_ln>  (374) 
-0.989675

>  <r_i_glide_gscore>  (374) 
-3.8502

>  <r_i_glide_lipo>  (374) 
-0.169987

>  <r_i_glide_hbond>  (374) 
-0.398786

>  <r_i_glide_metal>  (374) 
-0

>  <r_i_glide_rewards>  (374) 
-1.84514

>  <r_i_glide_evdw>  (374) 
-17.8775

>  <r_i_glide_ecoul>  (374) 
-6.70224

>  <r_i_glide_erotb>  (374) 
0.578497

>  <r_i_glide_esite>  (374) 
-0.11558

>  <r_i_glide_emodel>  (374) 
-33.1783

>  <r_i_glide_energy>  (374) 
-24.5797

>  <r_i_glide_einternal>  (374) 
1.88375

>  <r_i_glide_intrahb_reward>  (374) 
-0

>  <i_i_glide_confnum>  (374) 
3

>  <i_i_glide_posenum>  (374) 
21

>  <r_i_glide_eff_state_penalty>  (374) 
0

>  <ligand_id>  (374) 
85

>  <original_smiles>  (374) 
O=c1cc(CN2CCNCC2)nc2ccccn12

>  <smiles>  (374) 
[H]c1c([H])c([H])n2c(=O)c([H])c(C([H])([H])N3C([H])([H])C([H])([H])[N+]([H])([H])C([H])([H])C3([H])[H])nc2c1[H]

$$$$
85:0:2
     RDKit          3D

 35 37  0  0  1  0  0  0  0  0999 V2000
    0.5724    1.2376   10.1967 O   0  0  0  0  0  0  0  0  0  0  0  0
   -0.0564    1.3461    9.1420 C   0  0  0  0  0  0  0  0  0  0  0  0
    0.4188    0.7241    7.9088 C   0  0  0  0  0  0  0  0  0  0  0  0
   -0.2701    0.8472    6.7541 C   0  0  0  0  0  0  0  0  0  0  0  0
    0.2043    0.2255    5.4489 C   0  0  0  0  0  0  0  0  0  0  0  0
    0.1609    1.1396    4.3059 N   0  0  0  0  0  0  0  0  0  0  0  0
    0.5893    0.4255    3.0985 C   0  0  0  0  0  0  0  0  0  0  0  0
    0.5680    1.3497    1.8616 C   0  0  0  0  0  0  0  0  0  0  0  0
    1.4147    2.5383    2.0944 N   0  0  0  0  0  0  0  0  0  0  0  0
    0.9964    3.2505    3.3135 C   0  0  0  0  0  0  0  0  0  0  0  0
    1.0178    2.3064    4.5283 C   0  0  0  0  0  0  0  0  0  0  0  0
   -1.4723    1.5481    6.7254 N   0  0  0  0  0  0  0  0  0  0  0  0
   -1.9315    2.1345    7.7848 C   0  0  0  0  0  0  0  0  0  0  0  0
   -3.1750    2.8755    7.8020 C   0  0  0  0  0  0  0  0  0  0  0  0
   -3.6529    3.4295    8.9292 C   0  0  0  0  0  0  0  0  0  0  0  0
   -2.9389    3.3184   10.1765 C   0  0  0  0  0  0  0  0  0  0  0  0
   -1.7783    2.6458   10.1986 C   0  0  0  0  0  0  0  0  0  0  0  0
   -1.2315    2.0423    9.0350 N   0  0  0  0  0  0  0  0  0  0  0  0
    1.3454    0.1722    7.9267 H   0  0  0  0  0  0  0  0  0  0  0  0
    1.2161   -0.1681    5.5675 H   0  0  0  0  0  0  0  0  0  0  0  0
   -0.4461   -0.6215    5.2461 H   0  0  0  0  0  0  0  0  0  0  0  0
    1.5911    0.0189    3.2452 H   0  0  0  0  0  0  0  0  0  0  0  0
   -0.0753   -0.4212    2.9235 H   0  0  0  0  0  0  0  0  0  0  0  0
    0.9406    0.8181    0.9860 H   0  0  0  0  0  0  0  0  0  0  0  0
   -0.4500    1.6663    1.6257 H   0  0  0  0  0  0  0  0  0  0  0  0
    2.3863    2.2681    2.1642 H   0  0  0  0  0  0  0  0  0  0  0  0
    1.6748    4.0870    3.4689 H   0  0  0  0  0  0  0  0  0  0  0  0
    0.0023    3.6740    3.1605 H   0  0  0  0  0  0  0  0  0  0  0  0
    0.6749    2.8677    5.3953 H   0  0  0  0  0  0  0  0  0  0  0  0
    2.0358    1.9823    4.7382 H   0  0  0  0  0  0  0  0  0  0  0  0
   -3.7625    2.9618    6.8995 H   0  0  0  0  0  0  0  0  0  0  0  0
   -4.5964    3.9495    8.8998 H   0  0  0  0  0  0  0  0  0  0  0  0
   -3.3362    3.7569   11.0821 H   0  0  0  0  0  0  0  0  0  0  0  0
   -1.2270    2.5257   11.1235 H   0  0  0  0  0  0  0  0  0  0  0  0
    1.2575    3.1904    1.3210 H   0  0  0  0  0  0  0  0  0  0  0  0
  1  2  2  0
  2 18  1  0
  2  3  1  0
  3  4  2  0
  3 19  1  0
  4  5  1  0
  4 12  1  0
  5  6  1  0
  5 20  1  0
  5 21  1  0
  6 11  1  0
  6  7  1  0
  7  8  1  0
  7 22  1  0
  7 23  1  0
  8  9  1  0
  8 24  1  0
  8 25  1  0
  9 10  1  0
  9 26  1  0
  9 35  1  0
 10 11  1  0
 10 27  1  0
 10 28  1  0
 11 29  1  0
 11 30  1  0
 12 13  2  0
 13 18  1  0
 13 14  1  0
 14 15  2  0
 14 31  1  0
 15 16  1  0
 15 32  1  0
 16 17  2  0
 16 33  1  0
 17 18  1  0
 17 34  1  0
M  CHG  1   9   1
M  END
>  <i_m_ct_stereo_status>  (375) 
1

>  <s_m_source_file>  (375) 
/var/tmp/pbs.5076255.sched01/tmp9yj1qf5s/135tauqa2n_.sdf

>  <i_m_source_file_index>  (375) 
8

>  <i_lp_mmshare_version>  (375) 
48012

>  <i_f3d_flags>  (375) 
0

>  <s_epik_input>  (375) 
W2NIXTFbY0hdW2NIXVtjSF1uKGMxMiljKD1PKVtjSF1jKG4yKVtDSDJdTjNbQ0gyXVtDSDJdW05IXVtDSDJdW0NIMl0z

>  <s_epik_cmdline>  (375) 
J2VwaWtfcHl0aG9uJywgJy1waHQnLCAnMi4wJywgJy1waCcsICc3LjAnLCAnLXRuJywgJzgnLCAnLW1hJywgJzIwMCcsICctaW1hZScsICc8aW5maWxlLm1hZT4nLCAnLW9tYWUnLCAnPG91dGZpbGUubWFlPic=

>  <r_epik_Ionization_Penalty>  (375) 
0.0613817

>  <r_epik_Ionization_Penalty_Charging>  (375) 
0.00490944

>  <r_epik_Ionization_Penalty_Neutral>  (375) 
0.0564723

>  <r_epik_State_Penalty>  (375) 
0.370906

>  <r_epik_Charging_Adjusted_Penalty>  (375) 
0.375816

>  <i_epik_Tot_Q>  (375) 
1

>  <i_epik_Tot_abs_Q>  (375) 
1

>  <s_lp_Force_Field>  (375) 
OPLS3e

>  <r_lp_Energy>  (375) 
47.8162

>  <b_lp_Chiralities_Consistent>  (375) 
1

>  <s_lp_Variant>  (375) 
85:0-1

>  <s_i_glide_gridfile>  (375) 
pfpi4k_grid

>  <i_i_glide_lignum>  (375) 
8

>  <i_i_glide_rotatable_bonds>  (375) 
2

>  <r_i_docking_score>  (375) 
-3.37896

>  <r_i_glide_ligand_efficiency>  (375) 
-0.18772

>  <r_i_glide_ligand_efficiency_sa>  (375) 
-0.491965

>  <r_i_glide_ligand_efficiency_ln>  (375) 
-0.868544

>  <r_i_glide_gscore>  (375) 
-3.37896

>  <r_i_glide_lipo>  (375) 
-0.176704

>  <r_i_glide_hbond>  (375) 
-0.168533

>  <r_i_glide_metal>  (375) 
-0

>  <r_i_glide_rewards>  (375) 
-1.73659

>  <r_i_glide_evdw>  (375) 
-17.7789

>  <r_i_glide_ecoul>  (375) 
-5.56468

>  <r_i_glide_erotb>  (375) 
0.578497

>  <r_i_glide_esite>  (375) 
-0.15198

>  <r_i_glide_emodel>  (375) 
-31.8188

>  <r_i_glide_energy>  (375) 
-23.3436

>  <r_i_glide_einternal>  (375) 
0.00171083

>  <r_i_glide_intrahb_reward>  (375) 
-0

>  <i_i_glide_confnum>  (375) 
1

>  <i_i_glide_posenum>  (375) 
25

>  <r_i_glide_eff_state_penalty>  (375) 
0

>  <ligand_id>  (375) 
85

>  <original_smiles>  (375) 
O=c1cc(CN2CCNCC2)nc2ccccn12

>  <smiles>  (375) 
[H]c1c([H])c([H])n2c(=O)c([H])c(C([H])([H])N3C([H])([H])C([H])([H])[N+]([H])([H])C([H])([H])C3([H])[H])nc2c1[H]

$$$$
85:1:0
     RDKit          3D

 35 37  0  0  1  0  0  0  0  0999 V2000
    1.3873   -2.6047    3.9029 O   0  0  0  0  0  0  0  0  0  0  0  0
    2.0103   -3.0650    2.9422 C   0  0  0  0  0  0  0  0  0  0  0  0
    2.6723   -2.1936    1.9731 C   0  0  0  0  0  0  0  0  0  0  0  0
    3.3463   -2.7141    0.9242 C   0  0  0  0  0  0  0  0  0  0  0  0
    4.0871   -1.8573   -0.0862 C   0  0  0  0  0  0  0  0  0  0  0  0
    3.4211   -1.7654   -1.4126 N   0  0  0  0  0  0  0  0  0  0  0  0
    3.2831   -3.0634   -2.1194 C   0  0  0  0  0  0  0  0  0  0  0  0
    2.5917   -2.9002   -3.4733 C   0  0  0  0  0  0  0  0  0  0  0  0
    3.3252   -1.9677   -4.3156 N   0  0  0  0  0  0  0  0  0  0  0  0
    3.4479   -0.6717   -3.6594 C   0  0  0  0  0  0  0  0  0  0  0  0
    4.1525   -0.8301   -2.3020 C   0  0  0  0  0  0  0  0  0  0  0  0
    3.4500   -4.0899    0.7659 N   0  0  0  0  0  0  0  0  0  0  0  0
    2.8566   -4.9073    1.5748 C   0  0  0  0  0  0  0  0  0  0  0  0
    2.8697   -6.3461    1.4020 C   0  0  0  0  0  0  0  0  0  0  0  0
    2.2545   -7.1694    2.2709 C   0  0  0  0  0  0  0  0  0  0  0  0
    1.5436   -6.6476    3.4145 C   0  0  0  0  0  0  0  0  0  0  0  0
    1.4890   -5.3174    3.5940 C   0  0  0  0  0  0  0  0  0  0  0  0
    2.1228   -4.4086    2.7023 N   0  0  0  0  0  0  0  0  0  0  0  0
    2.6338   -1.1211    2.1108 H   0  0  0  0  0  0  0  0  0  0  0  0
    4.2332   -0.8546    0.3260 H   0  0  0  0  0  0  0  0  0  0  0  0
    5.0852   -2.2789   -0.2122 H   0  0  0  0  0  0  0  0  0  0  0  0
    4.2617   -3.5320   -2.2434 H   0  0  0  0  0  0  0  0  0  0  0  0
    2.6509   -3.7600   -1.5743 H   0  0  0  0  0  0  0  0  0  0  0  0
    2.5559   -3.8681   -3.9687 H   0  0  0  0  0  0  0  0  0  0  0  0
    1.5542   -2.5842   -3.3383 H   0  0  0  0  0  0  0  0  0  0  0  0
    2.7553   -1.8546   -5.1566 H   0  0  0  0  0  0  0  0  0  0  0  0
    4.0426   -0.0231   -4.2999 H   0  0  0  0  0  0  0  0  0  0  0  0
    2.4741   -0.1932   -3.5373 H   0  0  0  0  0  0  0  0  0  0  0  0
    4.2258    0.1429   -1.8290 H   0  0  0  0  0  0  0  0  0  0  0  0
    5.1767   -1.1834   -2.4471 H   0  0  0  0  0  0  0  0  0  0  0  0
    3.3806   -6.7933    0.5591 H   0  0  0  0  0  0  0  0  0  0  0  0
    2.3053   -8.2371    2.1125 H   0  0  0  0  0  0  0  0  0  0  0  0
    1.0769   -7.3270    4.1171 H   0  0  0  0  0  0  0  0  0  0  0  0
    0.9723   -4.8906    4.4484 H   0  0  0  0  0  0  0  0  0  0  0  0
    2.4747   -1.4099   -1.2709 H   0  0  0  0  0  0  0  0  0  0  0  0
  1  2  2  0
  2 18  1  0
  2  3  1  0
  3  4  2  0
  3 19  1  0
  4  5  1  0
  4 12  1  0
  5  6  1  0
  5 20  1  0
  5 21  1  0
  6 11  1  0
  6  7  1  0
  6 35  1  0
  7  8  1  0
  7 22  1  0
  7 23  1  0
  8  9  1  0
  8 24  1  0
  8 25  1  0
  9 10  1  0
  9 26  1  0
 10 11  1  0
 10 27  1  0
 10 28  1  0
 11 29  1  0
 11 30  1  0
 12 13  2  0
 13 18  1  0
 13 14  1  0
 14 15  2  0
 14 31  1  0
 15 16  1  0
 15 32  1  0
 16 17  2  0
 16 33  1  0
 17 18  1  0
 17 34  1  0
M  CHG  1   6   1
M  END
>  <i_m_ct_stereo_status>  (376) 
1

>  <s_m_source_file>  (376) 
/var/tmp/pbs.5076255.sched01/tmp9yj1qf5s/135tauqa2n_.sdf

>  <i_m_source_file_index>  (376) 
9

>  <i_lp_mmshare_version>  (376) 
48012

>  <i_f3d_flags>  (376) 
0

>  <s_epik_input>  (376) 
W2NIXTFbY0hdW2NIXVtjSF1uKGMxMiljKD1PKVtjSF1jKG4yKVtDSDJdTjNbQ0gyXVtDSDJdW05IXVtDSDJdW0NIMl0z

>  <s_epik_cmdline>  (376) 
J2VwaWtfcHl0aG9uJywgJy1waHQnLCAnMi4wJywgJy1waCcsICc3LjAnLCAnLXRuJywgJzgnLCAnLW1hJywgJzIwMCcsICctaW1hZScsICc8aW5maWxlLm1hZT4nLCAnLW9tYWUnLCAnPG91dGZpbGUubWFlPic=

>  <r_epik_Ionization_Penalty>  (376) 
0.0407241

>  <r_epik_Ionization_Penalty_Charging>  (376) 
0.0209876

>  <r_epik_Ionization_Penalty_Neutral>  (376) 
0.0197365

>  <r_epik_State_Penalty>  (376) 
0.492237

>  <r_epik_Charging_Adjusted_Penalty>  (376) 
0.513225

>  <i_epik_Tot_Q>  (376) 
1

>  <i_epik_Tot_abs_Q>  (376) 
1

>  <s_lp_Force_Field>  (376) 
OPLS3e

>  <r_lp_Energy>  (376) 
42.7537

>  <b_lp_Chiralities_Consistent>  (376) 
1

>  <s_lp_Variant>  (376) 
85:0-2

>  <s_i_glide_gridfile>  (376) 
pfpi4k_grid

>  <i_i_glide_lignum>  (376) 
9

>  <i_i_glide_rotatable_bonds>  (376) 
2

>  <r_i_docking_score>  (376) 
-5.06047

>  <r_i_glide_ligand_efficiency>  (376) 
-0.281137

>  <r_i_glide_ligand_efficiency_sa>  (376) 
-0.736788

>  <r_i_glide_ligand_efficiency_ln>  (376) 
-1.30077

>  <r_i_glide_gscore>  (376) 
-5.06047

>  <r_i_glide_lipo>  (376) 
-0.479366

>  <r_i_glide_hbond>  (376) 
-0.782462

>  <r_i_glide_metal>  (376) 
-0

>  <r_i_glide_rewards>  (376) 
-1.73659

>  <r_i_glide_evdw>  (376) 
-22.383

>  <r_i_glide_ecoul>  (376) 
-9.44724

>  <r_i_glide_erotb>  (376) 
0.578497

>  <r_i_glide_esite>  (376) 
-0.104311

>  <r_i_glide_emodel>  (376) 
-43.6958

>  <r_i_glide_energy>  (376) 
-31.8302

>  <r_i_glide_einternal>  (376) 
0.556213

>  <r_i_glide_intrahb_reward>  (376) 
-0

>  <i_i_glide_confnum>  (376) 
2

>  <i_i_glide_posenum>  (376) 
9

>  <r_i_glide_eff_state_penalty>  (376) 
0

>  <ligand_id>  (376) 
85

>  <original_smiles>  (376) 
O=c1cc(CN2CCNCC2)nc2ccccn12

>  <smiles>  (376) 
[H]c1c([H])c([H])n2c(=O)c([H])c(C([H])([H])[N+]3([H])C([H])([H])C([H])([H])N([H])C([H])([H])C3([H])[H])nc2c1[H]

$$$$
85:1:1
     RDKit          3D

 35 37  0  0  1  0  0  0  0  0999 V2000
    1.3833   -2.7935    3.6618 O   0  0  0  0  0  0  0  0  0  0  0  0
    1.8133   -1.9027    2.9252 C   0  0  0  0  0  0  0  0  0  0  0  0
    2.6987   -2.2066    1.8032 C   0  0  0  0  0  0  0  0  0  0  0  0
    3.1685   -1.2161    1.0164 C   0  0  0  0  0  0  0  0  0  0  0  0
    4.1292   -1.4607   -0.1256 C   0  0  0  0  0  0  0  0  0  0  0  0
    3.4234   -1.5555   -1.4363 N   0  0  0  0  0  0  0  0  0  0  0  0
    3.1382   -2.9573   -1.8206 C   0  0  0  0  0  0  0  0  0  0  0  0
    2.4275   -3.0284   -3.1809 C   0  0  0  0  0  0  0  0  0  0  0  0
    3.2197   -2.3806   -4.2230 N   0  0  0  0  0  0  0  0  0  0  0  0
    3.4890   -0.9901   -3.8762 C   0  0  0  0  0  0  0  0  0  0  0  0
    4.2087   -0.9056   -2.5214 C   0  0  0  0  0  0  0  0  0  0  0  0
    2.8445    0.1097    1.2765 N   0  0  0  0  0  0  0  0  0  0  0  0
    2.0420    0.4316    2.2399 C   0  0  0  0  0  0  0  0  0  0  0  0
    1.6464    1.7969    2.5205 C   0  0  0  0  0  0  0  0  0  0  0  0
    0.8170    2.0915    3.5371 C   0  0  0  0  0  0  0  0  0  0  0  0
    0.2874    1.0568    4.3957 C   0  0  0  0  0  0  0  0  0  0  0  0
    0.6358   -0.2159    4.1636 C   0  0  0  0  0  0  0  0  0  0  0  0
    1.5054   -0.5818    3.1026 N   0  0  0  0  0  0  0  0  0  0  0  0
    2.9920   -3.2284    1.6260 H   0  0  0  0  0  0  0  0  0  0  0  0
    4.8319   -0.6264   -0.1292 H   0  0  0  0  0  0  0  0  0  0  0  0
    4.7384   -2.3448    0.0600 H   0  0  0  0  0  0  0  0  0  0  0  0
    4.0661   -3.5259   -1.8658 H   0  0  0  0  0  0  0  0  0  0  0  0
    2.5160   -3.4166   -1.0565 H   0  0  0  0  0  0  0  0  0  0  0  0
    2.2903   -4.0685   -3.4660 H   0  0  0  0  0  0  0  0  0  0  0  0
    1.4314   -2.5916   -3.1255 H   0  0  0  0  0  0  0  0  0  0  0  0
    2.6416   -2.3823   -5.0603 H   0  0  0  0  0  0  0  0  0  0  0  0
    4.1253   -0.5616   -4.6494 H   0  0  0  0  0  0  0  0  0  0  0  0
    2.5696   -0.4070   -3.8627 H   0  0  0  0  0  0  0  0  0  0  0  0
    4.3787    0.1439   -2.2864 H   0  0  0  0  0  0  0  0  0  0  0  0
    5.1936   -1.3747   -2.5894 H   0  0  0  0  0  0  0  0  0  0  0  0
    1.9994    2.6166    1.9109 H   0  0  0  0  0  0  0  0  0  0  0  0
    0.5447    3.1194    3.7039 H   0  0  0  0  0  0  0  0  0  0  0  0
   -0.3747    1.3165    5.2089 H   0  0  0  0  0  0  0  0  0  0  0  0
    0.2637   -1.0167    4.7871 H   0  0  0  0  0  0  0  0  0  0  0  0
    2.5269   -1.0814   -1.3571 H   0  0  0  0  0  0  0  0  0  0  0  0
  1  2  2  0
  2 18  1  0
  2  3  1  0
  3  4  2  0
  3 19  1  0
  4  5  1  0
  4 12  1  0
  5  6  1  0
  5 20  1  0
  5 21  1  0
  6 11  1  0
  6  7  1  0
  6 35  1  0
  7  8  1  0
  7 22  1  0
  7 23  1  0
  8  9  1  0
  8 24  1  0
  8 25  1  0
  9 10  1  0
  9 26  1  0
 10 11  1  0
 10 27  1  0
 10 28  1  0
 11 29  1  0
 11 30  1  0
 12 13  2  0
 13 18  1  0
 13 14  1  0
 14 15  2  0
 14 31  1  0
 15 16  1  0
 15 32  1  0
 16 17  2  0
 16 33  1  0
 17 18  1  0
 17 34  1  0
M  CHG  1   6   1
M  END
>  <i_m_ct_stereo_status>  (377) 
1

>  <s_m_source_file>  (377) 
/var/tmp/pbs.5076255.sched01/tmp9yj1qf5s/135tauqa2n_.sdf

>  <i_m_source_file_index>  (377) 
9

>  <i_lp_mmshare_version>  (377) 
48012

>  <i_f3d_flags>  (377) 
0

>  <s_epik_input>  (377) 
W2NIXTFbY0hdW2NIXVtjSF1uKGMxMiljKD1PKVtjSF1jKG4yKVtDSDJdTjNbQ0gyXVtDSDJdW05IXVtDSDJdW0NIMl0z

>  <s_epik_cmdline>  (377) 
J2VwaWtfcHl0aG9uJywgJy1waHQnLCAnMi4wJywgJy1waCcsICc3LjAnLCAnLXRuJywgJzgnLCAnLW1hJywgJzIwMCcsICctaW1hZScsICc8aW5maWxlLm1hZT4nLCAnLW9tYWUnLCAnPG91dGZpbGUubWFlPic=

>  <r_epik_Ionization_Penalty>  (377) 
0.0407241

>  <r_epik_Ionization_Penalty_Charging>  (377) 
0.0209876

>  <r_epik_Ionization_Penalty_Neutral>  (377) 
0.0197365

>  <r_epik_State_Penalty>  (377) 
0.492237

>  <r_epik_Charging_Adjusted_Penalty>  (377) 
0.513225

>  <i_epik_Tot_Q>  (377) 
1

>  <i_epik_Tot_abs_Q>  (377) 
1

>  <s_lp_Force_Field>  (377) 
OPLS3e

>  <r_lp_Energy>  (377) 
42.7537

>  <b_lp_Chiralities_Consistent>  (377) 
1

>  <s_lp_Variant>  (377) 
85:0-2

>  <s_i_glide_gridfile>  (377) 
pfpi4k_grid

>  <i_i_glide_lignum>  (377) 
9

>  <i_i_glide_rotatable_bonds>  (377) 
2

>  <r_i_docking_score>  (377) 
-4.89989

>  <r_i_glide_ligand_efficiency>  (377) 
-0.272216

>  <r_i_glide_ligand_efficiency_sa>  (377) 
-0.713409

>  <r_i_glide_ligand_efficiency_ln>  (377) 
-1.25949

>  <r_i_glide_gscore>  (377) 
-4.89989

>  <r_i_glide_lipo>  (377) 
-0.340623

>  <r_i_glide_hbond>  (377) 
-0.728529

>  <r_i_glide_metal>  (377) 
-0

>  <r_i_glide_rewards>  (377) 
-1.73659

>  <r_i_glide_evdw>  (377) 
-25.1025

>  <r_i_glide_ecoul>  (377) 
-8.512

>  <r_i_glide_erotb>  (377) 
0.578497

>  <r_i_glide_esite>  (377) 
-0.140724

>  <r_i_glide_emodel>  (377) 
-44.4674

>  <r_i_glide_energy>  (377) 
-33.6145

>  <r_i_glide_einternal>  (377) 
1.99344

>  <r_i_glide_intrahb_reward>  (377) 
-0

>  <i_i_glide_confnum>  (377) 
1

>  <i_i_glide_posenum>  (377) 
35

>  <r_i_glide_eff_state_penalty>  (377) 
0

>  <ligand_id>  (377) 
85

>  <original_smiles>  (377) 
O=c1cc(CN2CCNCC2)nc2ccccn12

>  <smiles>  (377) 
[H]c1c([H])c([H])n2c(=O)c([H])c(C([H])([H])[N+]3([H])C([H])([H])C([H])([H])N([H])C([H])([H])C3([H])[H])nc2c1[H]

$$$$
85:1:2
     RDKit          3D

 35 37  0  0  1  0  0  0  0  0999 V2000
    2.0231   -4.2641    3.3872 O   0  0  0  0  0  0  0  0  0  0  0  0
    2.1908   -3.1611    2.8623 C   0  0  0  0  0  0  0  0  0  0  0  0
    3.0625   -2.9950    1.7001 C   0  0  0  0  0  0  0  0  0  0  0  0
    3.2227   -1.7813    1.1320 C   0  0  0  0  0  0  0  0  0  0  0  0
    4.1438   -1.5358   -0.0426 C   0  0  0  0  0  0  0  0  0  0  0  0
    3.4215   -1.5866   -1.3427 N   0  0  0  0  0  0  0  0  0  0  0  0
    3.1347   -2.9732   -1.7801 C   0  0  0  0  0  0  0  0  0  0  0  0
    2.4114   -2.9823   -3.1343 C   0  0  0  0  0  0  0  0  0  0  0  0
    3.1950   -2.2922   -4.1566 N   0  0  0  0  0  0  0  0  0  0  0  0
    3.4670   -0.9180   -3.7522 C   0  0  0  0  0  0  0  0  0  0  0  0
    4.2029   -0.8933   -2.4031 C   0  0  0  0  0  0  0  0  0  0  0  0
    2.5876   -0.6620    1.6549 N   0  0  0  0  0  0  0  0  0  0  0  0
    1.7908   -0.7586    2.6732 C   0  0  0  0  0  0  0  0  0  0  0  0
    1.0774    0.3717    3.2331 C   0  0  0  0  0  0  0  0  0  0  0  0
    0.2509    0.2317    4.2876 C   0  0  0  0  0  0  0  0  0  0  0  0
    0.0408   -1.0561    4.9086 C   0  0  0  0  0  0  0  0  0  0  0  0
    0.6848   -2.1240    4.4184 C   0  0  0  0  0  0  0  0  0  0  0  0
    1.5699   -2.0280    3.3085 N   0  0  0  0  0  0  0  0  0  0  0  0
    3.5845   -3.8548    1.3087 H   0  0  0  0  0  0  0  0  0  0  0  0
    4.5871   -0.5480    0.0985 H   0  0  0  0  0  0  0  0  0  0  0  0
    4.9764   -2.2392   -0.0352 H   0  0  0  0  0  0  0  0  0  0  0  0
    4.0614   -3.5405   -1.8509 H   0  0  0  0  0  0  0  0  0  0  0  0
    2.5101   -3.4690   -1.0418 H   0  0  0  0  0  0  0  0  0  0  0  0
    2.2634   -4.0099   -3.4598 H   0  0  0  0  0  0  0  0  0  0  0  0
    1.4182   -2.5419   -3.0449 H   0  0  0  0  0  0  0  0  0  0  0  0
    2.6150   -2.2598   -4.9920 H   0  0  0  0  0  0  0  0  0  0  0  0
    4.0963   -0.4596   -4.5121 H   0  0  0  0  0  0  0  0  0  0  0  0
    2.5508   -0.3308   -3.7025 H   0  0  0  0  0  0  0  0  0  0  0  0
    4.3817    0.1441   -2.1229 H   0  0  0  0  0  0  0  0  0  0  0  0
    5.1860   -1.3644   -2.5004 H   0  0  0  0  0  0  0  0  0  0  0  0
    1.1891    1.3586    2.8080 H   0  0  0  0  0  0  0  0  0  0  0  0
   -0.2567    1.1009    4.6710 H   0  0  0  0  0  0  0  0  0  0  0  0
   -0.6186   -1.1449    5.7584 H   0  0  0  0  0  0  0  0  0  0  0  0
    0.5560   -3.1050    4.8609 H   0  0  0  0  0  0  0  0  0  0  0  0
    2.5229   -1.1157   -1.2346 H   0  0  0  0  0  0  0  0  0  0  0  0
  1  2  2  0
  2 18  1  0
  2  3  1  0
  3  4  2  0
  3 19  1  0
  4  5  1  0
  4 12  1  0
  5  6  1  0
  5 20  1  0
  5 21  1  0
  6 11  1  0
  6  7  1  0
  6 35  1  0
  7  8  1  0
  7 22  1  0
  7 23  1  0
  8  9  1  0
  8 24  1  0
  8 25  1  0
  9 10  1  0
  9 26  1  0
 10 11  1  0
 10 27  1  0
 10 28  1  0
 11 29  1  0
 11 30  1  0
 12 13  2  0
 13 18  1  0
 13 14  1  0
 14 15  2  0
 14 31  1  0
 15 16  1  0
 15 32  1  0
 16 17  2  0
 16 33  1  0
 17 18  1  0
 17 34  1  0
M  CHG  1   6   1
M  END
>  <i_m_ct_stereo_status>  (378) 
1

>  <s_m_source_file>  (378) 
/var/tmp/pbs.5076255.sched01/tmp9yj1qf5s/135tauqa2n_.sdf

>  <i_m_source_file_index>  (378) 
9

>  <i_lp_mmshare_version>  (378) 
48012

>  <i_f3d_flags>  (378) 
0

>  <s_epik_input>  (378) 
W2NIXTFbY0hdW2NIXVtjSF1uKGMxMiljKD1PKVtjSF1jKG4yKVtDSDJdTjNbQ0gyXVtDSDJdW05IXVtDSDJdW0NIMl0z

>  <s_epik_cmdline>  (378) 
J2VwaWtfcHl0aG9uJywgJy1waHQnLCAnMi4wJywgJy1waCcsICc3LjAnLCAnLXRuJywgJzgnLCAnLW1hJywgJzIwMCcsICctaW1hZScsICc8aW5maWxlLm1hZT4nLCAnLW9tYWUnLCAnPG91dGZpbGUubWFlPic=

>  <r_epik_Ionization_Penalty>  (378) 
0.0407241

>  <r_epik_Ionization_Penalty_Charging>  (378) 
0.0209876

>  <r_epik_Ionization_Penalty_Neutral>  (378) 
0.0197365

>  <r_epik_State_Penalty>  (378) 
0.492237

>  <r_epik_Charging_Adjusted_Penalty>  (378) 
0.513225

>  <i_epik_Tot_Q>  (378) 
1

>  <i_epik_Tot_abs_Q>  (378) 
1

>  <s_lp_Force_Field>  (378) 
OPLS3e

>  <r_lp_Energy>  (378) 
42.7537

>  <b_lp_Chiralities_Consistent>  (378) 
1

>  <s_lp_Variant>  (378) 
85:0-2

>  <s_i_glide_gridfile>  (378) 
pfpi4k_grid

>  <i_i_glide_lignum>  (378) 
9

>  <i_i_glide_rotatable_bonds>  (378) 
2

>  <r_i_docking_score>  (378) 
-4.83449

>  <r_i_glide_ligand_efficiency>  (378) 
-0.268583

>  <r_i_glide_ligand_efficiency_sa>  (378) 
-0.703885

>  <r_i_glide_ligand_efficiency_ln>  (378) 
-1.24268

>  <r_i_glide_gscore>  (378) 
-4.83449

>  <r_i_glide_lipo>  (378) 
-0.388774

>  <r_i_glide_hbond>  (378) 
-0.675703

>  <r_i_glide_metal>  (378) 
-0

>  <r_i_glide_rewards>  (378) 
-1.75879

>  <r_i_glide_evdw>  (378) 
-23.263

>  <r_i_glide_ecoul>  (378) 
-8.69785

>  <r_i_glide_erotb>  (378) 
0.578497

>  <r_i_glide_esite>  (378) 
-0.12189

>  <r_i_glide_emodel>  (378) 
-43.4643

>  <r_i_glide_energy>  (378) 
-31.9608

>  <r_i_glide_einternal>  (378) 
0.442125

>  <r_i_glide_intrahb_reward>  (378) 
-0

>  <i_i_glide_confnum>  (378) 
1

>  <i_i_glide_posenum>  (378) 
25

>  <r_i_glide_eff_state_penalty>  (378) 
0

>  <ligand_id>  (378) 
85

>  <original_smiles>  (378) 
O=c1cc(CN2CCNCC2)nc2ccccn12

>  <smiles>  (378) 
[H]c1c([H])c([H])n2c(=O)c([H])c(C([H])([H])[N+]3([H])C([H])([H])C([H])([H])N([H])C([H])([H])C3([H])[H])nc2c1[H]

$$$$
85:2:0
     RDKit          3D

 36 38  0  0  1  0  0  0  0  0999 V2000
    5.1237   -0.4484    4.7060 O   0  0  0  0  0  0  0  0  0  0  0  0
    4.4825   -0.2558    3.6708 C   0  0  0  0  0  0  0  0  0  0  0  0
    4.9056   -0.8365    2.3991 C   0  0  0  0  0  0  0  0  0  0  0  0
    4.2040   -0.6203    1.2714 C   0  0  0  0  0  0  0  0  0  0  0  0
    4.6485   -1.1706   -0.0673 C   0  0  0  0  0  0  0  0  0  0  0  0
    3.5246   -1.7162   -0.8728 N   0  0  0  0  0  0  0  0  0  0  0  0
    3.8711   -1.7233   -2.3208 C   0  0  0  0  0  0  0  0  0  0  0  0
    2.7393   -2.2826   -3.1918 C   0  0  0  0  0  0  0  0  0  0  0  0
    2.2704   -3.5826   -2.7084 N   0  0  0  0  0  0  0  0  0  0  0  0
    1.9533   -3.6220   -1.2716 C   0  0  0  0  0  0  0  0  0  0  0  0
    3.1008   -3.0632   -0.4104 C   0  0  0  0  0  0  0  0  0  0  0  0
    3.0423    0.1455    1.2922 N   0  0  0  0  0  0  0  0  0  0  0  0
    2.6279    0.6976    2.3888 C   0  0  0  0  0  0  0  0  0  0  0  0
    1.4407    1.5289    2.4693 C   0  0  0  0  0  0  0  0  0  0  0  0
    1.0348    2.0710    3.6299 C   0  0  0  0  0  0  0  0  0  0  0  0
    1.7627    1.8541    4.8534 C   0  0  0  0  0  0  0  0  0  0  0  0
    2.8687    1.1002    4.8211 C   0  0  0  0  0  0  0  0  0  0  0  0
    3.3433    0.5034    3.6231 N   0  0  0  0  0  0  0  0  0  0  0  0
    5.8095   -1.4274    2.3736 H   0  0  0  0  0  0  0  0  0  0  0  0
    5.1325   -0.3461   -0.5909 H   0  0  0  0  0  0  0  0  0  0  0  0
    5.4144   -1.9369    0.0647 H   0  0  0  0  0  0  0  0  0  0  0  0
    4.1182   -0.7131   -2.6539 H   0  0  0  0  0  0  0  0  0  0  0  0
    4.7646   -2.3326   -2.4573 H   0  0  0  0  0  0  0  0  0  0  0  0
    1.8890   -1.6282   -3.1493 H   0  0  0  0  0  0  0  0  0  0  0  0
    3.0423   -2.3594   -4.2356 H   0  0  0  0  0  0  0  0  0  0  0  0
    1.4578   -3.8926   -3.2364 H   0  0  0  0  0  0  0  0  0  0  0  0
    1.0278   -3.0713   -1.1244 H   0  0  0  0  0  0  0  0  0  0  0  0
    1.7528   -4.6581   -0.9891 H   0  0  0  0  0  0  0  0  0  0  0  0
    3.9513   -3.7379   -0.4682 H   0  0  0  0  0  0  0  0  0  0  0  0
    2.8021   -3.0307    0.6368 H   0  0  0  0  0  0  0  0  0  0  0  0
    0.8521    1.7374    1.5831 H   0  0  0  0  0  0  0  0  0  0  0  0
    0.1487    2.6838    3.6341 H   0  0  0  0  0  0  0  0  0  0  0  0
    1.4217    2.2952    5.7788 H   0  0  0  0  0  0  0  0  0  0  0  0
    3.4465    0.9127    5.7193 H   0  0  0  0  0  0  0  0  0  0  0  0
    2.9862   -4.2981   -2.8502 H   0  0  0  0  0  0  0  0  0  0  0  0
    2.7182   -1.1056   -0.7458 H   0  0  0  0  0  0  0  0  0  0  0  0
  1  2  2  0
  2 18  1  0
  2  3  1  0
  3  4  2  0
  3 19  1  0
  4  5  1  0
  4 12  1  0
  5  6  1  0
  5 20  1  0
  5 21  1  0
  6 11  1  0
  6  7  1  0
  6 36  1  0
  7  8  1  0
  7 22  1  0
  7 23  1  0
  8  9  1  0
  8 24  1  0
  8 25  1  0
  9 10  1  0
  9 26  1  0
  9 35  1  0
 10 11  1  0
 10 27  1  0
 10 28  1  0
 11 29  1  0
 11 30  1  0
 12 13  2  0
 13 18  1  0
 13 14  1  0
 14 15  2  0
 14 31  1  0
 15 16  1  0
 15 32  1  0
 16 17  2  0
 16 33  1  0
 17 18  1  0
 17 34  1  0
M  CHG  2   6   1   9   1
M  END
>  <i_m_ct_stereo_status>  (379) 
1

>  <s_m_source_file>  (379) 
/var/tmp/pbs.5076255.sched01/tmp9yj1qf5s/135tauqa2n_.sdf

>  <i_m_source_file_index>  (379) 
10

>  <i_lp_mmshare_version>  (379) 
48012

>  <i_f3d_flags>  (379) 
0

>  <s_epik_input>  (379) 
W2NIXTFbY0hdW2NIXVtjSF1uKGMxMiljKD1PKVtjSF1jKG4yKVtDSDJdTjNbQ0gyXVtDSDJdW05IXVtDSDJdW0NIMl0z

>  <s_epik_cmdline>  (379) 
J2VwaWtfcHl0aG9uJywgJy1waHQnLCAnMi4wJywgJy1waCcsICc3LjAnLCAnLXRuJywgJzgnLCAnLW1hJywgJzIwMCcsICctaW1hZScsICc8aW5maWxlLm1hZT4nLCAnLW9tYWUnLCAnPG91dGZpbGUubWFlPic=

>  <r_epik_Ionization_Penalty>  (379) 
3.44611

>  <r_epik_Ionization_Penalty_Charging>  (379) 
3.44611

>  <r_epik_Ionization_Penalty_Neutral>  (379) 
3.93856e-10

>  <r_epik_State_Penalty>  (379) 
2.22955

>  <r_epik_Charging_Adjusted_Penalty>  (379) 
5.67566

>  <i_epik_Tot_Q>  (379) 
2

>  <i_epik_Tot_abs_Q>  (379) 
2

>  <s_lp_Force_Field>  (379) 
OPLS3e

>  <r_lp_Energy>  (379) 
49.9003

>  <b_lp_Chiralities_Consistent>  (379) 
1

>  <s_lp_Variant>  (379) 
85:0-3

>  <s_i_glide_gridfile>  (379) 
pfpi4k_grid

>  <i_i_glide_lignum>  (379) 
10

>  <i_i_glide_rotatable_bonds>  (379) 
2

>  <r_i_docking_score>  (379) 
-4.33214

>  <r_i_glide_ligand_efficiency>  (379) 
-0.240674

>  <r_i_glide_ligand_efficiency_sa>  (379) 
-0.630745

>  <r_i_glide_ligand_efficiency_ln>  (379) 
-1.11355

>  <r_i_glide_gscore>  (379) 
-4.33214

>  <r_i_glide_lipo>  (379) 
-0.320593

>  <r_i_glide_hbond>  (379) 
-0.180776

>  <r_i_glide_metal>  (379) 
-0

>  <r_i_glide_rewards>  (379) 
-1.76089

>  <r_i_glide_evdw>  (379) 
-17.3868

>  <r_i_glide_ecoul>  (379) 
-11.214

>  <r_i_glide_erotb>  (379) 
0.574453

>  <r_i_glide_esite>  (379) 
-0.0928885

>  <r_i_glide_emodel>  (379) 
-39.541

>  <r_i_glide_energy>  (379) 
-28.6008

>  <r_i_glide_einternal>  (379) 
4.87321

>  <r_i_glide_intrahb_reward>  (379) 
-0

>  <i_i_glide_confnum>  (379) 
3

>  <i_i_glide_posenum>  (379) 
7

>  <r_i_glide_eff_state_penalty>  (379) 
0

>  <ligand_id>  (379) 
85

>  <original_smiles>  (379) 
O=c1cc(CN2CCNCC2)nc2ccccn12

>  <smiles>  (379) 
[H]c1c([H])c([H])n2c(=O)c([H])c(C([H])([H])[N+]3([H])C([H])([H])C([H])([H])[N+]([H])([H])C([H])([H])C3([H])[H])nc2c1[H]

$$$$
85:2:1
     RDKit          3D

 36 38  0  0  1  0  0  0  0  0999 V2000
   -3.3211    2.9344    6.8747 O   0  0  0  0  0  0  0  0  0  0  0  0
   -2.1303    2.7321    6.6385 C   0  0  0  0  0  0  0  0  0  0  0  0
   -1.5979    2.8002    5.2780 C   0  0  0  0  0  0  0  0  0  0  0  0
   -0.2894    2.5961    5.0332 C   0  0  0  0  0  0  0  0  0  0  0  0
    0.3012    2.7173    3.6394 C   0  0  0  0  0  0  0  0  0  0  0  0
    1.1560    1.5561    3.2809 N   0  0  0  0  0  0  0  0  0  0  0  0
    0.3673    0.3395    2.9561 C   0  0  0  0  0  0  0  0  0  0  0  0
    1.2745   -0.8502    2.5759 C   0  0  0  0  0  0  0  0  0  0  0  0
    2.2041   -0.4960    1.4805 N   0  0  0  0  0  0  0  0  0  0  0  0
    3.0003    0.7062    1.7947 C   0  0  0  0  0  0  0  0  0  0  0  0
    2.0913    1.8940    2.1791 C   0  0  0  0  0  0  0  0  0  0  0  0
    0.5853    2.2820    6.0703 N   0  0  0  0  0  0  0  0  0  0  0  0
    0.1670    2.2156    7.2972 C   0  0  0  0  0  0  0  0  0  0  0  0
    1.0338    1.9127    8.4220 C   0  0  0  0  0  0  0  0  0  0  0  0
    0.5612    1.8290    9.6789 C   0  0  0  0  0  0  0  0  0  0  0  0
   -0.8332    2.0452    9.9705 C   0  0  0  0  0  0  0  0  0  0  0  0
   -1.6612    2.3367    8.9582 C   0  0  0  0  0  0  0  0  0  0  0  0
   -1.2152    2.4346    7.6142 N   0  0  0  0  0  0  0  0  0  0  0  0
   -2.2694    3.0442    4.4666 H   0  0  0  0  0  0  0  0  0  0  0  0
   -0.4781    2.8521    2.8873 H   0  0  0  0  0  0  0  0  0  0  0  0
    0.8930    3.6330    3.6240 H   0  0  0  0  0  0  0  0  0  0  0  0
   -0.2726    0.0636    3.7943 H   0  0  0  0  0  0  0  0  0  0  0  0
   -0.2964    0.5669    2.1245 H   0  0  0  0  0  0  0  0  0  0  0  0
    1.8440   -1.1873    3.4433 H   0  0  0  0  0  0  0  0  0  0  0  0
    0.6641   -1.6935    2.2535 H   0  0  0  0  0  0  0  0  0  0  0  0
    2.8271   -1.2695    1.2940 H   0  0  0  0  0  0  0  0  0  0  0  0
    3.6936    0.4886    2.6083 H   0  0  0  0  0  0  0  0  0  0  0  0
    3.6102    0.9477    0.9247 H   0  0  0  0  0  0  0  0  0  0  0  0
    1.4990    2.2042    1.3185 H   0  0  0  0  0  0  0  0  0  0  0  0
    2.7067    2.7514    2.4600 H   0  0  0  0  0  0  0  0  0  0  0  0
    2.0926    1.7431    8.2702 H   0  0  0  0  0  0  0  0  0  0  0  0
    1.2406    1.5978   10.4818 H   0  0  0  0  0  0  0  0  0  0  0  0
   -1.1994    1.9773   10.9864 H   0  0  0  0  0  0  0  0  0  0  0  0
   -2.7165    2.5113    9.1409 H   0  0  0  0  0  0  0  0  0  0  0  0
    1.6550   -0.3547    0.6283 H   0  0  0  0  0  0  0  0  0  0  0  0
    1.7174    1.3482    4.0963 H   0  0  0  0  0  0  0  0  0  0  0  0
  1  2  2  0
  2 18  1  0
  2  3  1  0
  3  4  2  0
  3 19  1  0
  4  5  1  0
  4 12  1  0
  5  6  1  0
  5 20  1  0
  5 21  1  0
  6 11  1  0
  6  7  1  0
  6 36  1  0
  7  8  1  0
  7 22  1  0
  7 23  1  0
  8  9  1  0
  8 24  1  0
  8 25  1  0
  9 10  1  0
  9 26  1  0
  9 35  1  0
 10 11  1  0
 10 27  1  0
 10 28  1  0
 11 29  1  0
 11 30  1  0
 12 13  2  0
 13 18  1  0
 13 14  1  0
 14 15  2  0
 14 31  1  0
 15 16  1  0
 15 32  1  0
 16 17  2  0
 16 33  1  0
 17 18  1  0
 17 34  1  0
M  CHG  2   6   1   9   1
M  END
>  <i_m_ct_stereo_status>  (380) 
1

>  <s_m_source_file>  (380) 
/var/tmp/pbs.5076255.sched01/tmp9yj1qf5s/135tauqa2n_.sdf

>  <i_m_source_file_index>  (380) 
10

>  <i_lp_mmshare_version>  (380) 
48012

>  <i_f3d_flags>  (380) 
0

>  <s_epik_input>  (380) 
W2NIXTFbY0hdW2NIXVtjSF1uKGMxMiljKD1PKVtjSF1jKG4yKVtDSDJdTjNbQ0gyXVtDSDJdW05IXVtDSDJdW0NIMl0z

>  <s_epik_cmdline>  (380) 
J2VwaWtfcHl0aG9uJywgJy1waHQnLCAnMi4wJywgJy1waCcsICc3LjAnLCAnLXRuJywgJzgnLCAnLW1hJywgJzIwMCcsICctaW1hZScsICc8aW5maWxlLm1hZT4nLCAnLW9tYWUnLCAnPG91dGZpbGUubWFlPic=

>  <r_epik_Ionization_Penalty>  (380) 
3.44611

>  <r_epik_Ionization_Penalty_Charging>  (380) 
3.44611

>  <r_epik_Ionization_Penalty_Neutral>  (380) 
3.93856e-10

>  <r_epik_State_Penalty>  (380) 
2.22955

>  <r_epik_Charging_Adjusted_Penalty>  (380) 
5.67566

>  <i_epik_Tot_Q>  (380) 
2

>  <i_epik_Tot_abs_Q>  (380) 
2

>  <s_lp_Force_Field>  (380) 
OPLS3e

>  <r_lp_Energy>  (380) 
49.9003

>  <b_lp_Chiralities_Consistent>  (380) 
1

>  <s_lp_Variant>  (380) 
85:0-3

>  <s_i_glide_gridfile>  (380) 
pfpi4k_grid

>  <i_i_glide_lignum>  (380) 
10

>  <i_i_glide_rotatable_bonds>  (380) 
2

>  <r_i_docking_score>  (380) 
-4.00359

>  <r_i_glide_ligand_efficiency>  (380) 
-0.222421

>  <r_i_glide_ligand_efficiency_sa>  (380) 
-0.582909

>  <r_i_glide_ligand_efficiency_ln>  (380) 
-1.0291

>  <r_i_glide_gscore>  (380) 
-4.00359

>  <r_i_glide_lipo>  (380) 
-0.234278

>  <r_i_glide_hbond>  (380) 
-0.2

>  <r_i_glide_metal>  (380) 
-0

>  <r_i_glide_rewards>  (380) 
-1.72972

>  <r_i_glide_evdw>  (380) 
-16.8941

>  <r_i_glide_ecoul>  (380) 
-9.67332

>  <r_i_glide_erotb>  (380) 
0.574453

>  <r_i_glide_esite>  (380) 
-0.118342

>  <r_i_glide_emodel>  (380) 
-38.7961

>  <r_i_glide_energy>  (380) 
-26.5674

>  <r_i_glide_einternal>  (380) 
0.419863

>  <r_i_glide_intrahb_reward>  (380) 
-0

>  <i_i_glide_confnum>  (380) 
3

>  <i_i_glide_posenum>  (380) 
25

>  <r_i_glide_eff_state_penalty>  (380) 
0

>  <ligand_id>  (380) 
85

>  <original_smiles>  (380) 
O=c1cc(CN2CCNCC2)nc2ccccn12

>  <smiles>  (380) 
[H]c1c([H])c([H])n2c(=O)c([H])c(C([H])([H])[N+]3([H])C([H])([H])C([H])([H])[N+]([H])([H])C([H])([H])C3([H])[H])nc2c1[H]

$$$$
85:2:2
     RDKit          3D

 36 38  0  0  1  0  0  0  0  0999 V2000
   -1.3477   -1.9109    6.0778 O   0  0  0  0  0  0  0  0  0  0  0  0
   -0.4510   -1.8983    5.2318 C   0  0  0  0  0  0  0  0  0  0  0  0
   -0.2159   -0.7271    4.3969 C   0  0  0  0  0  0  0  0  0  0  0  0
    0.7672   -0.7121    3.4671 C   0  0  0  0  0  0  0  0  0  0  0  0
    1.0259    0.4378    2.4987 C   0  0  0  0  0  0  0  0  0  0  0  0
    1.1486    1.7636    3.1633 N   0  0  0  0  0  0  0  0  0  0  0  0
    2.1468    2.6282    2.4807 C   0  0  0  0  0  0  0  0  0  0  0  0
    2.2841    4.0122    3.1581 C   0  0  0  0  0  0  0  0  0  0  0  0
    0.9654    4.6741    3.2852 N   0  0  0  0  0  0  0  0  0  0  0  0
   -0.0273    3.8246    3.9676 C   0  0  0  0  0  0  0  0  0  0  0  0
   -0.1605    2.4665    3.2659 C   0  0  0  0  0  0  0  0  0  0  0  0
    1.5795   -1.8258    3.2957 N   0  0  0  0  0  0  0  0  0  0  0  0
    1.3997   -2.9017    3.9909 C   0  0  0  0  0  0  0  0  0  0  0  0
    2.1977   -4.1048    3.8253 C   0  0  0  0  0  0  0  0  0  0  0  0
    1.9890   -5.1952    4.5872 C   0  0  0  0  0  0  0  0  0  0  0  0
    0.9576   -5.2225    5.5952 C   0  0  0  0  0  0  0  0  0  0  0  0
    0.1965   -4.1303    5.7619 C   0  0  0  0  0  0  0  0  0  0  0  0
    0.3764   -2.9612    4.9872 N   0  0  0  0  0  0  0  0  0  0  0  0
   -0.9015    0.0930    4.5540 H   0  0  0  0  0  0  0  0  0  0  0  0
    1.9532    0.2054    1.9693 H   0  0  0  0  0  0  0  0  0  0  0  0
    0.2689    0.4604    1.7105 H   0  0  0  0  0  0  0  0  0  0  0  0
    3.1264    2.1428    2.4504 H   0  0  0  0  0  0  0  0  0  0  0  0
    1.8250    2.7676    1.4499 H   0  0  0  0  0  0  0  0  0  0  0  0
    2.7355    3.9052    4.1456 H   0  0  0  0  0  0  0  0  0  0  0  0
    2.9426    4.6519    2.5639 H   0  0  0  0  0  0  0  0  0  0  0  0
    1.0602    5.5617    3.7561 H   0  0  0  0  0  0  0  0  0  0  0  0
    0.2607    3.6825    5.0118 H   0  0  0  0  0  0  0  0  0  0  0  0
   -0.9989    4.3213    3.9693 H   0  0  0  0  0  0  0  0  0  0  0  0
   -0.5608    2.5952    2.2619 H   0  0  0  0  0  0  0  0  0  0  0  0
   -0.9179    1.9046    3.8137 H   0  0  0  0  0  0  0  0  0  0  0  0
    2.9902   -4.1451    3.0864 H   0  0  0  0  0  0  0  0  0  0  0  0
    2.6109   -6.0598    4.4437 H   0  0  0  0  0  0  0  0  0  0  0  0
    0.8054   -6.1021    6.2011 H   0  0  0  0  0  0  0  0  0  0  0  0
   -0.5921   -4.1105    6.5116 H   0  0  0  0  0  0  0  0  0  0  0  0
    0.6203    4.8346    2.3261 H   0  0  0  0  0  0  0  0  0  0  0  0
    1.5119    1.6011    4.0905 H   0  0  0  0  0  0  0  0  0  0  0  0
  1  2  2  0
  2 18  1  0
  2  3  1  0
  3  4  2  0
  3 19  1  0
  4  5  1  0
  4 12  1  0
  5  6  1  0
  5 20  1  0
  5 21  1  0
  6 11  1  0
  6  7  1  0
  6 36  1  0
  7  8  1  0
  7 22  1  0
  7 23  1  0
  8  9  1  0
  8 24  1  0
  8 25  1  0
  9 10  1  0
  9 26  1  0
  9 35  1  0
 10 11  1  0
 10 27  1  0
 10 28  1  0
 11 29  1  0
 11 30  1  0
 12 13  2  0
 13 18  1  0
 13 14  1  0
 14 15  2  0
 14 31  1  0
 15 16  1  0
 15 32  1  0
 16 17  2  0
 16 33  1  0
 17 18  1  0
 17 34  1  0
M  CHG  2   6   1   9   1
M  END
>  <i_m_ct_stereo_status>  (381) 
1

>  <s_m_source_file>  (381) 
/var/tmp/pbs.5076255.sched01/tmp9yj1qf5s/135tauqa2n_.sdf

>  <i_m_source_file_index>  (381) 
10

>  <i_lp_mmshare_version>  (381) 
48012

>  <i_f3d_flags>  (381) 
0

>  <s_epik_input>  (381) 
W2NIXTFbY0hdW2NIXVtjSF1uKGMxMiljKD1PKVtjSF1jKG4yKVtDSDJdTjNbQ0gyXVtDSDJdW05IXVtDSDJdW0NIMl0z

>  <s_epik_cmdline>  (381) 
J2VwaWtfcHl0aG9uJywgJy1waHQnLCAnMi4wJywgJy1waCcsICc3LjAnLCAnLXRuJywgJzgnLCAnLW1hJywgJzIwMCcsICctaW1hZScsICc8aW5maWxlLm1hZT4nLCAnLW9tYWUnLCAnPG91dGZpbGUubWFlPic=

>  <r_epik_Ionization_Penalty>  (381) 
3.44611

>  <r_epik_Ionization_Penalty_Charging>  (381) 
3.44611

>  <r_epik_Ionization_Penalty_Neutral>  (381) 
3.93856e-10

>  <r_epik_State_Penalty>  (381) 
2.22955

>  <r_epik_Charging_Adjusted_Penalty>  (381) 
5.67566

>  <i_epik_Tot_Q>  (381) 
2

>  <i_epik_Tot_abs_Q>  (381) 
2

>  <s_lp_Force_Field>  (381) 
OPLS3e

>  <r_lp_Energy>  (381) 
49.9003

>  <b_lp_Chiralities_Consistent>  (381) 
1

>  <s_lp_Variant>  (381) 
85:0-3

>  <s_i_glide_gridfile>  (381) 
pfpi4k_grid

>  <i_i_glide_lignum>  (381) 
10

>  <i_i_glide_rotatable_bonds>  (381) 
2

>  <r_i_docking_score>  (381) 
-3.95913

>  <r_i_glide_ligand_efficiency>  (381) 
-0.219952

>  <r_i_glide_ligand_efficiency_sa>  (381) 
-0.576436

>  <r_i_glide_ligand_efficiency_ln>  (381) 
-1.01767

>  <r_i_glide_gscore>  (381) 
-3.95913

>  <r_i_glide_lipo>  (381) 
-0.000534872

>  <r_i_glide_hbond>  (381) 
-0.2

>  <r_i_glide_metal>  (381) 
-0

>  <r_i_glide_rewards>  (381) 
-1.76753

>  <r_i_glide_evdw>  (381) 
-17.4988

>  <r_i_glide_ecoul>  (381) 
-10.3899

>  <r_i_glide_erotb>  (381) 
0.574453

>  <r_i_glide_esite>  (381) 
-0.132097

>  <r_i_glide_emodel>  (381) 
-38.4143

>  <r_i_glide_energy>  (381) 
-27.8887

>  <r_i_glide_einternal>  (381) 
3.19258

>  <r_i_glide_intrahb_reward>  (381) 
-0

>  <i_i_glide_confnum>  (381) 
5

>  <i_i_glide_posenum>  (381) 
4

>  <r_i_glide_eff_state_penalty>  (381) 
0

>  <ligand_id>  (381) 
85

>  <original_smiles>  (381) 
O=c1cc(CN2CCNCC2)nc2ccccn12

>  <smiles>  (381) 
[H]c1c([H])c([H])n2c(=O)c([H])c(C([H])([H])[N+]3([H])C([H])([H])C([H])([H])[N+]([H])([H])C([H])([H])C3([H])[H])nc2c1[H]

$$$$
86:0:0
     RDKit          3D

 74 80  0  0  1  0  0  0  0  0999 V2000
   -0.0701   -3.6050   11.0085 C   0  0  0  0  0  0  0  0  0  0  0  0
    0.4809   -4.2278    9.8627 O   0  0  0  0  0  0  0  0  0  0  0  0
    0.2951   -3.4828    8.6683 C   0  0  1  0  0  0  0  0  0  0  0  0
   -1.0419   -3.7784    7.9512 C   0  0  0  0  0  0  0  0  0  0  0  0
   -1.0525   -5.1317    7.1333 C   0  0  0  0  0  0  0  0  0  0  0  0
    0.2449   -5.4159    6.2768 C   0  0  2  0  0  0  0  0  0  0  0  0
    0.2865   -6.7721    5.5335 C   0  0  1  0  0  0  0  0  0  0  0  0
   -0.3609   -6.6261    4.2630 O   0  0  0  0  0  0  0  0  0  0  0  0
   -0.8843   -7.6803    3.5692 C   0  0  0  0  0  0  0  0  0  0  0  0
   -0.6412   -9.0647    4.1627 C   0  0  0  0  0  0  0  0  0  0  0  0
   -1.4835   -7.5377    2.5011 O   0  0  0  0  0  0  0  0  0  0  0  0
    1.7504   -7.2859    5.3871 C   0  0  2  0  0  0  0  0  0  0  0  0
    2.0939   -8.0516    6.6310 C   0  0  0  0  0  0  0  0  0  0  0  0
    2.0507   -7.5655    7.9119 C   0  0  0  0  0  0  0  0  0  0  0  0
    2.4645   -8.6219    8.7729 C   0  0  0  0  0  0  0  0  0  0  0  0
    2.7034   -9.7225    8.0044 C   0  0  0  0  0  0  0  0  0  0  0  0
    2.4615   -9.3970    6.6878 N   0  0  0  0  0  0  0  0  0  0  0  0
    2.5908  -10.3471    5.5886 C   0  0  0  0  0  0  0  0  0  0  0  0
    1.6375   -6.1715    8.3114 C   0  0  0  0  0  0  0  0  0  0  0  0
    1.5302   -5.1309    7.1355 C   0  0  1  0  0  0  0  0  0  0  0  0
    2.9067   -5.1815    6.3687 C   0  0  1  0  0  0  0  0  0  0  0  0
    2.7509   -6.1192    5.0821 C   0  0  1  0  0  0  0  0  0  0  0  0
    4.0823   -6.7521    4.5410 C   0  0  0  0  0  0  0  0  0  0  0  0
    4.2580   -6.6804    3.0185 C   0  0  0  0  0  0  0  0  0  0  0  0
    4.2655   -7.8900    2.2626 C   0  0  0  0  0  0  0  0  0  0  0  0
    4.4538   -7.8312    0.8607 C   0  0  0  0  0  0  0  0  0  0  0  0
    4.6130   -6.5856    0.1940 C   0  0  0  0  0  0  0  0  0  0  0  0
    4.6006   -5.4065    0.9554 C   0  0  0  0  0  0  0  0  0  0  0  0
    4.4485   -5.4565    2.3333 C   0  0  0  0  0  0  0  0  0  0  0  0
    3.5159   -3.7873    6.2371 N   0  0  2  0  0  0  0  0  0  0  0  0
    4.5133   -3.6027    5.1842 C   0  0  0  0  0  0  0  0  0  0  0  0
    4.0282   -3.1499    7.5034 C   0  0  0  0  0  0  0  0  0  0  0  0
    3.0889   -3.0375    8.7442 C   0  0  0  0  0  0  0  0  0  0  0  0
    1.6476   -2.7048    8.4179 C   0  0  1  0  0  0  0  0  0  0  0  0
    1.1767   -3.6868    7.4891 C   0  0  2  0  0  0  0  0  0  0  0  0
    0.1019   -4.2300   11.8802 H   0  0  0  0  0  0  0  0  0  0  0  0
   -1.1452   -3.4694   10.9145 H   0  0  0  0  0  0  0  0  0  0  0  0
    0.3902   -2.6380   11.2023 H   0  0  0  0  0  0  0  0  0  0  0  0
   -1.8440   -3.7994    8.6896 H   0  0  0  0  0  0  0  0  0  0  0  0
   -1.2578   -2.9573    7.2657 H   0  0  0  0  0  0  0  0  0  0  0  0
   -1.2144   -5.9389    7.8469 H   0  0  0  0  0  0  0  0  0  0  0  0
   -1.9312   -5.1476    6.4882 H   0  0  0  0  0  0  0  0  0  0  0  0
    0.2124   -4.6929    5.4544 H   0  0  0  0  0  0  0  0  0  0  0  0
   -0.3047   -7.4688    6.1246 H   0  0  0  0  0  0  0  0  0  0  0  0
    0.4302   -9.2509    4.1550 H   0  0  0  0  0  0  0  0  0  0  0  0
   -1.0824   -9.8713    3.5695 H   0  0  0  0  0  0  0  0  0  0  0  0
   -1.0158   -9.1213    5.1896 H   0  0  0  0  0  0  0  0  0  0  0  0
    1.8352   -7.9544    4.5343 H   0  0  0  0  0  0  0  0  0  0  0  0
    2.5659   -8.5876    9.8449 H   0  0  0  0  0  0  0  0  0  0  0  0
    3.0138  -10.7225    8.2798 H   0  0  0  0  0  0  0  0  0  0  0  0
    2.8668  -11.3379    5.9569 H   0  0  0  0  0  0  0  0  0  0  0  0
    3.3433  -10.0035    4.8824 H   0  0  0  0  0  0  0  0  0  0  0  0
    1.6438  -10.4835    5.0811 H   0  0  0  0  0  0  0  0  0  0  0  0
    0.7023   -6.2967    8.8359 H   0  0  0  0  0  0  0  0  0  0  0  0
    2.3698   -5.8485    9.0416 H   0  0  0  0  0  0  0  0  0  0  0  0
    3.6454   -5.7041    6.9882 H   0  0  0  0  0  0  0  0  0  0  0  0
    2.3001   -5.5495    4.2650 H   0  0  0  0  0  0  0  0  0  0  0  0
    4.9462   -6.2992    5.0216 H   0  0  0  0  0  0  0  0  0  0  0  0
    4.1574   -7.7982    4.8609 H   0  0  0  0  0  0  0  0  0  0  0  0
    4.1523   -8.8644    2.7384 H   0  0  0  0  0  0  0  0  0  0  0  0
    4.4679   -8.7410    0.2671 H   0  0  0  0  0  0  0  0  0  0  0  0
    4.7394   -6.5145   -0.8800 H   0  0  0  0  0  0  0  0  0  0  0  0
    4.7264   -4.4403    0.4937 H   0  0  0  0  0  0  0  0  0  0  0  0
    4.5254   -4.4834    2.7726 H   0  0  0  0  0  0  0  0  0  0  0  0
    5.4237   -4.2005    5.3166 H   0  0  0  0  0  0  0  0  0  0  0  0
    4.8084   -2.5625    5.0435 H   0  0  0  0  0  0  0  0  0  0  0  0
    3.9135   -3.8688    4.3394 H   0  0  0  0  0  0  0  0  0  0  0  0
    4.9600   -3.6544    7.7731 H   0  0  0  0  0  0  0  0  0  0  0  0
    4.3184   -2.1392    7.2107 H   0  0  0  0  0  0  0  0  0  0  0  0
    3.1541   -3.9386    9.3409 H   0  0  0  0  0  0  0  0  0  0  0  0
    3.4956   -2.2424    9.3682 H   0  0  0  0  0  0  0  0  0  0  0  0
    1.4938   -1.6492    8.2073 H   0  0  0  0  0  0  0  0  0  0  0  0
    0.9452   -3.1187    6.5853 H   0  0  0  0  0  0  0  0  0  0  0  0
    2.7446   -3.2171    5.9171 H   0  0  0  0  0  0  0  0  0  0  0  0
  1  2  1  0
  1 36  1  0
  1 37  1  0
  1 38  1  0
  3  2  1  1
  3 34  1  0
  3 35  1  0
  3  4  1  0
  4  5  1  0
  4 39  1  0
  4 40  1  0
  5  6  1  0
  5 41  1  0
  5 42  1  0
  6 20  1  0
  6  7  1  0
  6 43  1  6
  7  8  1  0
  7 12  1  0
  7 44  1  1
  8  9  1  0
  9 10  1  0
  9 11  2  0
 10 45  1  0
 10 46  1  0
 10 47  1  0
 12 22  1  0
 12 13  1  0
 12 48  1  6
 13 17  1  0
 13 14  2  0
 14 15  1  0
 14 19  1  0
 15 16  2  0
 15 49  1  0
 16 17  1  0
 16 50  1  0
 17 18  1  0
 18 51  1  0
 18 52  1  0
 18 53  1  0
 20 19  1  1
 19 54  1  0
 19 55  1  0
 20 35  1  0
 20 21  1  0
 21 22  1  0
 21 30  1  0
 21 56  1  1
 22 23  1  0
 22 57  1  6
 23 24  1  0
 23 58  1  0
 23 59  1  0
 24 29  1  0
 24 25  2  0
 25 26  1  0
 25 60  1  0
 26 27  2  0
 26 61  1  0
 27 28  1  0
 27 62  1  0
 28 29  2  0
 28 63  1  0
 29 64  1  0
 30 31  1  0
 30 32  1  0
 30 74  1  6
 31 65  1  0
 31 66  1  0
 31 67  1  0
 32 33  1  0
 32 68  1  0
 32 69  1  0
 33 34  1  0
 33 70  1  0
 33 71  1  0
 34 35  1  0
 34 72  1  6
 35 73  1  6
M  CHG  1  30   1
M  END
>  <i_m_ct_stereo_status>  (382) 
1

>  <s_m_source_file>  (382) 
/var/tmp/pbs.5076255.sched01/tmp9yj1qf5s/135tauqa2n_.sdf

>  <i_m_source_file_index>  (382) 
11

>  <i_lp_mmshare_version>  (382) 
48012

>  <i_f3d_flags>  (382) 
0

>  <s_epik_input>  (382) 
W0NAXTEyM1tDQEBIXTRbQ0gyXVtDSDJdW0NAXTUoT1tDSDNdKVtDQEhdKFtDQEBIXTM1KVtDSDJdW0NIMl1OKFtDSDNdKVtDQEBIXTJbQ0BIXShbQ0BIXShbQ0BASF00T0MoPU8pW0NIM10pYzZjKFtDSDJdMSlbY0hdW2NIXW42W0NIM10pW0NIMl1jN1tjSF1bY0hdW2NIXVtjSF1bY0hdNw==

>  <s_epik_cmdline>  (382) 
J2VwaWtfcHl0aG9uJywgJy1waHQnLCAnMi4wJywgJy1waCcsICc3LjAnLCAnLXRuJywgJzgnLCAnLW1hJywgJzIwMCcsICctaW1hZScsICc8aW5maWxlLm1hZT4nLCAnLW9tYWUnLCAnPG91dGZpbGUubWFlPic=

>  <r_epik_Ionization_Penalty>  (382) 
0.00424259

>  <r_epik_Ionization_Penalty_Charging>  (382) 
0.00424259

>  <r_epik_Ionization_Penalty_Neutral>  (382) 
2.22316e-09

>  <r_epik_State_Penalty>  (382) 
0.00304988

>  <r_epik_Charging_Adjusted_Penalty>  (382) 
0.00729246

>  <i_epik_Tot_Q>  (382) 
1

>  <i_epik_Tot_abs_Q>  (382) 
1

>  <s_epik_Chemistry_Notes>  (382) 
This compound has an ester and may undergo hydrolysis at high or low pH.

>  <s_lp_Force_Field>  (382) 
OPLS3e

>  <r_lp_Energy>  (382) 
113.493

>  <b_lp_Chiralities_Consistent>  (382) 
1

>  <s_lp_Variant>  (382) 
86:0-1

>  <s_i_glide_gridfile>  (382) 
pfpi4k_grid

>  <i_i_glide_lignum>  (382) 
11

>  <i_i_glide_rotatable_bonds>  (382) 
5

>  <r_i_docking_score>  (382) 
-1.84709

>  <r_i_glide_ligand_efficiency>  (382) 
-0.052774

>  <r_i_glide_ligand_efficiency_sa>  (382) 
-0.172627

>  <r_i_glide_ligand_efficiency_ln>  (382) 
-0.405477

>  <r_i_glide_gscore>  (382) 
-1.84709

>  <r_i_glide_lipo>  (382) 
-0.279969

>  <r_i_glide_hbond>  (382) 
-0.0353285

>  <r_i_glide_metal>  (382) 
-0

>  <r_i_glide_rewards>  (382) 
-0.166075

>  <r_i_glide_evdw>  (382) 
-21.0979

>  <r_i_glide_ecoul>  (382) 
-3.08296

>  <r_i_glide_erotb>  (382) 
0.268444

>  <r_i_glide_esite>  (382) 
-0.116822

>  <r_i_glide_emodel>  (382) 
-22.9862

>  <r_i_glide_energy>  (382) 
-24.1808

>  <r_i_glide_einternal>  (382) 
5.60944

>  <r_i_glide_intrahb_reward>  (382) 
-0

>  <i_i_glide_confnum>  (382) 
4

>  <i_i_glide_posenum>  (382) 
2

>  <r_i_glide_eff_state_penalty>  (382) 
0

>  <ligand_id>  (382) 
86

>  <original_smiles>  (382) 
COC12CCC3C(OC(C)=O)C4c5c(ccn5C)CC35C(C4Cc3ccccc3)N(C)CCC1C25

>  <smiles>  (382) 
[H]c1c([H])c([H])c(C([H])([H])C2([H])C3([H])c4c(c([H])c([H])n4C([H])([H])[H])C([H])([H])C45C([H])(C([H])([H])C([H])([H])C6(OC([H])([H])[H])C([H])(C([H])([H])C([H])([H])[N+]([H])(C([H])([H])[H])C24[H])C65[H])C3([H])OC(=O)C([H])([H])[H])c([H])c1[H]

$$$$
86:0:1
     RDKit          3D

 74 80  0  0  1  0  0  0  0  0999 V2000
    6.6716  -11.8514    2.4841 C   0  0  0  0  0  0  0  0  0  0  0  0
    6.0252  -10.6886    2.9694 O   0  0  0  0  0  0  0  0  0  0  0  0
    4.7559  -10.4832    2.3690 C   0  0  1  0  0  0  0  0  0  0  0  0
    4.8053   -9.5731    1.1237 C   0  0  0  0  0  0  0  0  0  0  0  0
    4.9208   -8.0364    1.4597 C   0  0  0  0  0  0  0  0  0  0  0  0
    3.9966   -7.5286    2.6285 C   0  0  2  0  0  0  0  0  0  0  0  0
    4.1832   -6.0465    3.0059 C   0  0  1  0  0  0  0  0  0  0  0  0
    3.2996   -5.2362    2.2186 O   0  0  0  0  0  0  0  0  0  0  0  0
    3.7197   -4.6676    1.0610 C   0  0  0  0  0  0  0  0  0  0  0  0
    2.6214   -3.9042    0.3260 C   0  0  0  0  0  0  0  0  0  0  0  0
    4.8598   -4.7392    0.5970 O   0  0  0  0  0  0  0  0  0  0  0  0
    3.8836   -5.8186    4.5054 C   0  0  2  0  0  0  0  0  0  0  0  0
    5.1287   -6.0852    5.2919 C   0  0  0  0  0  0  0  0  0  0  0  0
    5.8451   -7.2464    5.2952 C   0  0  0  0  0  0  0  0  0  0  0  0
    6.9474   -7.0524    6.1711 C   0  0  0  0  0  0  0  0  0  0  0  0
    6.8787   -5.7803    6.6582 C   0  0  0  0  0  0  0  0  0  0  0  0
    5.7654   -5.1648    6.1187 N   0  0  0  0  0  0  0  0  0  0  0  0
    5.3779   -3.7882    6.3863 C   0  0  0  0  0  0  0  0  0  0  0  0
    5.5174   -8.4760    4.4856 C   0  0  0  0  0  0  0  0  0  0  0  0
    4.0707   -8.5049    3.8561 C   0  0  1  0  0  0  0  0  0  0  0  0
    3.0572   -8.2275    5.0302 C   0  0  1  0  0  0  0  0  0  0  0  0
    2.6564   -6.6858    5.0152 C   0  0  1  0  0  0  0  0  0  0  0  0
    2.1683   -6.1219    6.3895 C   0  0  0  0  0  0  0  0  0  0  0  0
    1.0948   -5.0285    6.2996 C   0  0  0  0  0  0  0  0  0  0  0  0
    1.3290   -3.8292    5.5851 C   0  0  0  0  0  0  0  0  0  0  0  0
    0.3529   -2.8287    5.5018 C   0  0  0  0  0  0  0  0  0  0  0  0
   -0.8787   -2.9896    6.1617 C   0  0  0  0  0  0  0  0  0  0  0  0
   -1.1268   -4.1652    6.8928 C   0  0  0  0  0  0  0  0  0  0  0  0
   -0.1505   -5.1825    6.9620 C   0  0  0  0  0  0  0  0  0  0  0  0
    1.9707   -9.2893    5.0780 N   0  0  2  0  0  0  0  0  0  0  0  0
    0.7205   -8.9348    5.7949 C   0  0  0  0  0  0  0  0  0  0  0  0
    2.4163  -10.6648    5.5325 C   0  0  0  0  0  0  0  0  0  0  0  0
    3.6299  -11.3696    4.8248 C   0  0  0  0  0  0  0  0  0  0  0  0
    3.6918  -11.1796    3.3179 C   0  0  1  0  0  0  0  0  0  0  0  0
    3.6717   -9.7621    3.0841 C   0  0  2  0  0  0  0  0  0  0  0  0
    7.6329  -11.9359    2.9857 H   0  0  0  0  0  0  0  0  0  0  0  0
    6.8551  -11.7915    1.4105 H   0  0  0  0  0  0  0  0  0  0  0  0
    6.1005  -12.7571    2.6982 H   0  0  0  0  0  0  0  0  0  0  0  0
    5.6356   -9.8817    0.4911 H   0  0  0  0  0  0  0  0  0  0  0  0
    3.9024   -9.7352    0.5292 H   0  0  0  0  0  0  0  0  0  0  0  0
    5.9586   -7.8043    1.6961 H   0  0  0  0  0  0  0  0  0  0  0  0
    4.7040   -7.4677    0.5528 H   0  0  0  0  0  0  0  0  0  0  0  0
    2.9745   -7.5625    2.2437 H   0  0  0  0  0  0  0  0  0  0  0  0
    5.2147   -5.7309    2.8333 H   0  0  0  0  0  0  0  0  0  0  0  0
    1.8206   -4.5792    0.0238 H   0  0  0  0  0  0  0  0  0  0  0  0
    3.0144   -3.4369   -0.5782 H   0  0  0  0  0  0  0  0  0  0  0  0
    2.2092   -3.1157    0.9563 H   0  0  0  0  0  0  0  0  0  0  0  0
    3.7141   -4.7581    4.5734 H   0  0  0  0  0  0  0  0  0  0  0  0
    7.7254   -7.7615    6.4109 H   0  0  0  0  0  0  0  0  0  0  0  0
    7.5335   -5.2541    7.3338 H   0  0  0  0  0  0  0  0  0  0  0  0
    6.1132   -3.3130    7.0354 H   0  0  0  0  0  0  0  0  0  0  0  0
    4.4098   -3.7601    6.8833 H   0  0  0  0  0  0  0  0  0  0  0  0
    5.3275   -3.2189    5.4579 H   0  0  0  0  0  0  0  0  0  0  0  0
    6.2988   -8.5193    3.7297 H   0  0  0  0  0  0  0  0  0  0  0  0
    5.6698   -9.3164    5.1610 H   0  0  0  0  0  0  0  0  0  0  0  0
    3.5794   -8.3821    5.9747 H   0  0  0  0  0  0  0  0  0  0  0  0
    1.8394   -6.5659    4.3032 H   0  0  0  0  0  0  0  0  0  0  0  0
    1.7814   -6.9099    7.0226 H   0  0  0  0  0  0  0  0  0  0  0  0
    3.0091   -5.7478    6.9732 H   0  0  0  0  0  0  0  0  0  0  0  0
    2.2579   -3.6089    5.0900 H   0  0  0  0  0  0  0  0  0  0  0  0
    0.5703   -1.9385    4.9339 H   0  0  0  0  0  0  0  0  0  0  0  0
   -1.6165   -2.2055    6.0845 H   0  0  0  0  0  0  0  0  0  0  0  0
   -2.0717   -4.2905    7.4030 H   0  0  0  0  0  0  0  0  0  0  0  0
   -0.3539   -6.0737    7.5396 H   0  0  0  0  0  0  0  0  0  0  0  0
    0.8810   -8.8692    6.8735 H   0  0  0  0  0  0  0  0  0  0  0  0
   -0.0365   -9.7128    5.6507 H   0  0  0  0  0  0  0  0  0  0  0  0
    0.2826   -8.0040    5.4306 H   0  0  0  0  0  0  0  0  0  0  0  0
    2.6225  -10.6473    6.6043 H   0  0  0  0  0  0  0  0  0  0  0  0
    1.5616  -11.3377    5.4152 H   0  0  0  0  0  0  0  0  0  0  0  0
    4.5761  -11.0772    5.2725 H   0  0  0  0  0  0  0  0  0  0  0  0
    3.5521  -12.4435    5.0096 H   0  0  0  0  0  0  0  0  0  0  0  0
    2.9745  -11.7988    2.7752 H   0  0  0  0  0  0  0  0  0  0  0  0
    2.7385   -9.5925    2.5417 H   0  0  0  0  0  0  0  0  0  0  0  0
    1.6837   -9.4183    4.1186 H   0  0  0  0  0  0  0  0  0  0  0  0
  1  2  1  0
  1 36  1  0
  1 37  1  0
  1 38  1  0
  3  2  1  1
  3 34  1  0
  3 35  1  0
  3  4  1  0
  4  5  1  0
  4 39  1  0
  4 40  1  0
  5  6  1  0
  5 41  1  0
  5 42  1  0
  6 20  1  0
  6  7  1  0
  6 43  1  6
  7  8  1  0
  7 12  1  0
  7 44  1  1
  8  9  1  0
  9 10  1  0
  9 11  2  0
 10 45  1  0
 10 46  1  0
 10 47  1  0
 12 22  1  0
 12 13  1  0
 12 48  1  6
 13 17  1  0
 13 14  2  0
 14 15  1  0
 14 19  1  0
 15 16  2  0
 15 49  1  0
 16 17  1  0
 16 50  1  0
 17 18  1  0
 18 51  1  0
 18 52  1  0
 18 53  1  0
 20 19  1  1
 19 54  1  0
 19 55  1  0
 20 35  1  0
 20 21  1  0
 21 22  1  0
 21 30  1  0
 21 56  1  1
 22 23  1  0
 22 57  1  6
 23 24  1  0
 23 58  1  0
 23 59  1  0
 24 29  1  0
 24 25  2  0
 25 26  1  0
 25 60  1  0
 26 27  2  0
 26 61  1  0
 27 28  1  0
 27 62  1  0
 28 29  2  0
 28 63  1  0
 29 64  1  0
 30 31  1  0
 30 32  1  0
 30 74  1  6
 31 65  1  0
 31 66  1  0
 31 67  1  0
 32 33  1  0
 32 68  1  0
 32 69  1  0
 33 34  1  0
 33 70  1  0
 33 71  1  0
 34 35  1  0
 34 72  1  6
 35 73  1  6
M  CHG  1  30   1
M  END
>  <i_m_ct_stereo_status>  (383) 
1

>  <s_m_source_file>  (383) 
/var/tmp/pbs.5076255.sched01/tmp9yj1qf5s/135tauqa2n_.sdf

>  <i_m_source_file_index>  (383) 
11

>  <i_lp_mmshare_version>  (383) 
48012

>  <i_f3d_flags>  (383) 
0

>  <s_epik_input>  (383) 
W0NAXTEyM1tDQEBIXTRbQ0gyXVtDSDJdW0NAXTUoT1tDSDNdKVtDQEhdKFtDQEBIXTM1KVtDSDJdW0NIMl1OKFtDSDNdKVtDQEBIXTJbQ0BIXShbQ0BIXShbQ0BASF00T0MoPU8pW0NIM10pYzZjKFtDSDJdMSlbY0hdW2NIXW42W0NIM10pW0NIMl1jN1tjSF1bY0hdW2NIXVtjSF1bY0hdNw==

>  <s_epik_cmdline>  (383) 
J2VwaWtfcHl0aG9uJywgJy1waHQnLCAnMi4wJywgJy1waCcsICc3LjAnLCAnLXRuJywgJzgnLCAnLW1hJywgJzIwMCcsICctaW1hZScsICc8aW5maWxlLm1hZT4nLCAnLW9tYWUnLCAnPG91dGZpbGUubWFlPic=

>  <r_epik_Ionization_Penalty>  (383) 
0.00424259

>  <r_epik_Ionization_Penalty_Charging>  (383) 
0.00424259

>  <r_epik_Ionization_Penalty_Neutral>  (383) 
2.22316e-09

>  <r_epik_State_Penalty>  (383) 
0.00304988

>  <r_epik_Charging_Adjusted_Penalty>  (383) 
0.00729246

>  <i_epik_Tot_Q>  (383) 
1

>  <i_epik_Tot_abs_Q>  (383) 
1

>  <s_epik_Chemistry_Notes>  (383) 
This compound has an ester and may undergo hydrolysis at high or low pH.

>  <s_lp_Force_Field>  (383) 
OPLS3e

>  <r_lp_Energy>  (383) 
113.493

>  <b_lp_Chiralities_Consistent>  (383) 
1

>  <s_lp_Variant>  (383) 
86:0-1

>  <s_i_glide_gridfile>  (383) 
pfpi4k_grid

>  <i_i_glide_lignum>  (383) 
11

>  <i_i_glide_rotatable_bonds>  (383) 
5

>  <r_i_docking_score>  (383) 
-1.58984

>  <r_i_glide_ligand_efficiency>  (383) 
-0.0454239

>  <r_i_glide_ligand_efficiency_sa>  (383) 
-0.148585

>  <r_i_glide_ligand_efficiency_ln>  (383) 
-0.349004

>  <r_i_glide_gscore>  (383) 
-1.58984

>  <r_i_glide_lipo>  (383) 
-0.0788263

>  <r_i_glide_hbond>  (383) 
0

>  <r_i_glide_metal>  (383) 
-0

>  <r_i_glide_rewards>  (383) 
-0.176967

>  <r_i_glide_evdw>  (383) 
-22.1402

>  <r_i_glide_ecoul>  (383) 
-3.15194

>  <r_i_glide_erotb>  (383) 
0.268444

>  <r_i_glide_esite>  (383) 
-0.0226872

>  <r_i_glide_emodel>  (383) 
-27.92

>  <r_i_glide_energy>  (383) 
-25.2921

>  <r_i_glide_einternal>  (383) 
0.617429

>  <r_i_glide_intrahb_reward>  (383) 
-0

>  <i_i_glide_confnum>  (383) 
1

>  <i_i_glide_posenum>  (383) 
35

>  <r_i_glide_eff_state_penalty>  (383) 
0

>  <ligand_id>  (383) 
86

>  <original_smiles>  (383) 
COC12CCC3C(OC(C)=O)C4c5c(ccn5C)CC35C(C4Cc3ccccc3)N(C)CCC1C25

>  <smiles>  (383) 
[H]c1c([H])c([H])c(C([H])([H])C2([H])C3([H])c4c(c([H])c([H])n4C([H])([H])[H])C([H])([H])C45C([H])(C([H])([H])C([H])([H])C6(OC([H])([H])[H])C([H])(C([H])([H])C([H])([H])[N+]([H])(C([H])([H])[H])C24[H])C65[H])C3([H])OC(=O)C([H])([H])[H])c([H])c1[H]

$$$$
86:0:2
     RDKit          3D

 74 80  0  0  1  0  0  0  0  0999 V2000
    9.9366   -8.8535    5.0280 C   0  0  0  0  0  0  0  0  0  0  0  0
    8.5293   -9.0042    4.9517 O   0  0  0  0  0  0  0  0  0  0  0  0
    7.9191   -8.1232    4.0161 C   0  0  1  0  0  0  0  0  0  0  0  0
    7.8124   -6.6580    4.4979 C   0  0  0  0  0  0  0  0  0  0  0  0
    6.6461   -6.4162    5.5385 C   0  0  0  0  0  0  0  0  0  0  0  0
    5.2663   -7.0993    5.1819 C   0  0  2  0  0  0  0  0  0  0  0  0
    4.1554   -6.9411    6.2384 C   0  0  1  0  0  0  0  0  0  0  0  0
    3.4398   -5.7267    5.9864 O   0  0  0  0  0  0  0  0  0  0  0  0
    2.7983   -5.0142    6.9535 C   0  0  0  0  0  0  0  0  0  0  0  0
    2.8722   -5.5788    8.3737 C   0  0  0  0  0  0  0  0  0  0  0  0
    2.1658   -3.9870    6.7221 O   0  0  0  0  0  0  0  0  0  0  0  0
    3.1807   -8.1516    6.2346 C   0  0  2  0  0  0  0  0  0  0  0  0
    3.7564   -9.1891    7.1519 C   0  0  0  0  0  0  0  0  0  0  0  0
    4.9953   -9.7564    7.0403 C   0  0  0  0  0  0  0  0  0  0  0  0
    5.1244  -10.6911    8.1019 C   0  0  0  0  0  0  0  0  0  0  0  0
    3.9831  -10.6398    8.8450 C   0  0  0  0  0  0  0  0  0  0  0  0
    3.1338   -9.7076    8.2846 N   0  0  0  0  0  0  0  0  0  0  0  0
    1.8257   -9.3764    8.8295 C   0  0  0  0  0  0  0  0  0  0  0  0
    6.0260   -9.4317    5.9841 C   0  0  0  0  0  0  0  0  0  0  0  0
    5.4973   -8.5917    4.7571 C   0  0  1  0  0  0  0  0  0  0  0  0
    4.2349   -9.3546    4.2066 C   0  0  1  0  0  0  0  0  0  0  0  0
    2.9237   -8.6852    4.7825 C   0  0  1  0  0  0  0  0  0  0  0  0
    1.6755   -9.6177    4.8259 C   0  0  0  0  0  0  0  0  0  0  0  0
    0.4233   -9.0049    4.2084 C   0  0  0  0  0  0  0  0  0  0  0  0
   -0.1844   -7.8685    4.7924 C   0  0  0  0  0  0  0  0  0  0  0  0
   -1.3375   -7.3081    4.2149 C   0  0  0  0  0  0  0  0  0  0  0  0
   -1.8902   -7.8750    3.0575 C   0  0  0  0  0  0  0  0  0  0  0  0
   -1.3020   -9.0118    2.4782 C   0  0  0  0  0  0  0  0  0  0  0  0
   -0.1509   -9.5753    3.0558 C   0  0  0  0  0  0  0  0  0  0  0  0
    4.3414   -9.5790    2.7133 N   0  0  2  0  0  0  0  0  0  0  0  0
    3.0734   -9.8352    1.9905 C   0  0  0  0  0  0  0  0  0  0  0  0
    5.3732  -10.5987    2.2835 C   0  0  0  0  0  0  0  0  0  0  0  0
    6.8548  -10.4702    2.7862 C   0  0  0  0  0  0  0  0  0  0  0  0
    7.4036   -9.0463    2.8272 C   0  0  1  0  0  0  0  0  0  0  0  0
    6.4897   -8.2890    3.6351 C   0  0  2  0  0  0  0  0  0  0  0  0
   10.3217   -9.5682    5.7510 H   0  0  0  0  0  0  0  0  0  0  0  0
   10.2313   -7.8599    5.3641 H   0  0  0  0  0  0  0  0  0  0  0  0
   10.4171   -9.0518    4.0722 H   0  0  0  0  0  0  0  0  0  0  0  0
    8.7537   -6.3300    4.9294 H   0  0  0  0  0  0  0  0  0  0  0  0
    7.6612   -6.0064    3.6330 H   0  0  0  0  0  0  0  0  0  0  0  0
    6.9814   -6.7574    6.5179 H   0  0  0  0  0  0  0  0  0  0  0  0
    6.4977   -5.3403    5.6577 H   0  0  0  0  0  0  0  0  0  0  0  0
    4.8817   -6.5570    4.3137 H   0  0  0  0  0  0  0  0  0  0  0  0
    4.6619   -6.8764    7.1989 H   0  0  0  0  0  0  0  0  0  0  0  0
    2.4300   -6.5664    8.3702 H   0  0  0  0  0  0  0  0  0  0  0  0
    2.3108   -4.9768    9.0865 H   0  0  0  0  0  0  0  0  0  0  0  0
    3.9052   -5.6557    8.7181 H   0  0  0  0  0  0  0  0  0  0  0  0
    2.2249   -7.8247    6.6403 H   0  0  0  0  0  0  0  0  0  0  0  0
    5.9635  -11.3369    8.3066 H   0  0  0  0  0  0  0  0  0  0  0  0
    3.7002  -11.1928    9.7236 H   0  0  0  0  0  0  0  0  0  0  0  0
    1.6486   -9.9497    9.7394 H   0  0  0  0  0  0  0  0  0  0  0  0
    1.0508   -9.6165    8.1048 H   0  0  0  0  0  0  0  0  0  0  0  0
    1.7725   -8.3244    9.0958 H   0  0  0  0  0  0  0  0  0  0  0  0
    6.8269   -8.9287    6.5232 H   0  0  0  0  0  0  0  0  0  0  0  0
    6.4180  -10.3945    5.6604 H   0  0  0  0  0  0  0  0  0  0  0  0
    4.2402  -10.3670    4.6065 H   0  0  0  0  0  0  0  0  0  0  0  0
    2.6765   -7.8162    4.1743 H   0  0  0  0  0  0  0  0  0  0  0  0
    1.8825  -10.5753    4.3527 H   0  0  0  0  0  0  0  0  0  0  0  0
    1.4241   -9.8997    5.8483 H   0  0  0  0  0  0  0  0  0  0  0  0
    0.2204   -7.4331    5.6908 H   0  0  0  0  0  0  0  0  0  0  0  0
   -1.8041   -6.4526    4.6741 H   0  0  0  0  0  0  0  0  0  0  0  0
   -2.7777   -7.4638    2.6109 H   0  0  0  0  0  0  0  0  0  0  0  0
   -1.7315   -9.4596    1.5995 H   0  0  0  0  0  0  0  0  0  0  0  0
    0.2816  -10.4567    2.6060 H   0  0  0  0  0  0  0  0  0  0  0  0
    2.6496  -10.8050    2.2614 H   0  0  0  0  0  0  0  0  0  0  0  0
    3.2516   -9.8514    0.9115 H   0  0  0  0  0  0  0  0  0  0  0  0
    2.3448   -9.0431    2.1635 H   0  0  0  0  0  0  0  0  0  0  0  0
    5.0188  -11.6017    2.5272 H   0  0  0  0  0  0  0  0  0  0  0  0
    5.4270  -10.5585    1.1940 H   0  0  0  0  0  0  0  0  0  0  0  0
    6.9961  -10.9502    3.7523 H   0  0  0  0  0  0  0  0  0  0  0  0
    7.4698  -11.0474    2.0954 H   0  0  0  0  0  0  0  0  0  0  0  0
    7.6515   -8.6482    1.8391 H   0  0  0  0  0  0  0  0  0  0  0  0
    6.0623   -7.5521    2.9490 H   0  0  0  0  0  0  0  0  0  0  0  0
    4.6662   -8.6964    2.3440 H   0  0  0  0  0  0  0  0  0  0  0  0
  1  2  1  0
  1 36  1  0
  1 37  1  0
  1 38  1  0
  3  2  1  1
  3 34  1  0
  3 35  1  0
  3  4  1  0
  4  5  1  0
  4 39  1  0
  4 40  1  0
  5  6  1  0
  5 41  1  0
  5 42  1  0
  6 20  1  0
  6  7  1  0
  6 43  1  6
  7  8  1  0
  7 12  1  0
  7 44  1  1
  8  9  1  0
  9 10  1  0
  9 11  2  0
 10 45  1  0
 10 46  1  0
 10 47  1  0
 12 22  1  0
 12 13  1  0
 12 48  1  1
 13 17  1  0
 13 14  2  0
 14 15  1  0
 14 19  1  0
 15 16  2  0
 15 49  1  0
 16 17  1  0
 16 50  1  0
 17 18  1  0
 18 51  1  0
 18 52  1  0
 18 53  1  0
 20 19  1  1
 19 54  1  0
 19 55  1  0
 20 35  1  0
 20 21  1  0
 21 22  1  0
 21 30  1  0
 21 56  1  1
 22 23  1  0
 22 57  1  6
 23 24  1  0
 23 58  1  0
 23 59  1  0
 24 29  1  0
 24 25  2  0
 25 26  1  0
 25 60  1  0
 26 27  2  0
 26 61  1  0
 27 28  1  0
 27 62  1  0
 28 29  2  0
 28 63  1  0
 29 64  1  0
 30 31  1  0
 30 32  1  0
 30 74  1  6
 31 65  1  0
 31 66  1  0
 31 67  1  0
 32 33  1  0
 32 68  1  0
 32 69  1  0
 33 34  1  0
 33 70  1  0
 33 71  1  0
 34 35  1  0
 34 72  1  6
 35 73  1  6
M  CHG  1  30   1
M  END
>  <i_m_ct_stereo_status>  (384) 
1

>  <s_m_source_file>  (384) 
/var/tmp/pbs.5076255.sched01/tmp9yj1qf5s/135tauqa2n_.sdf

>  <i_m_source_file_index>  (384) 
11

>  <i_lp_mmshare_version>  (384) 
48012

>  <i_f3d_flags>  (384) 
0

>  <s_epik_input>  (384) 
W0NAXTEyM1tDQEBIXTRbQ0gyXVtDSDJdW0NAXTUoT1tDSDNdKVtDQEhdKFtDQEBIXTM1KVtDSDJdW0NIMl1OKFtDSDNdKVtDQEBIXTJbQ0BIXShbQ0BIXShbQ0BASF00T0MoPU8pW0NIM10pYzZjKFtDSDJdMSlbY0hdW2NIXW42W0NIM10pW0NIMl1jN1tjSF1bY0hdW2NIXVtjSF1bY0hdNw==

>  <s_epik_cmdline>  (384) 
J2VwaWtfcHl0aG9uJywgJy1waHQnLCAnMi4wJywgJy1waCcsICc3LjAnLCAnLXRuJywgJzgnLCAnLW1hJywgJzIwMCcsICctaW1hZScsICc8aW5maWxlLm1hZT4nLCAnLW9tYWUnLCAnPG91dGZpbGUubWFlPic=

>  <r_epik_Ionization_Penalty>  (384) 
0.00424259

>  <r_epik_Ionization_Penalty_Charging>  (384) 
0.00424259

>  <r_epik_Ionization_Penalty_Neutral>  (384) 
2.22316e-09

>  <r_epik_State_Penalty>  (384) 
0.00304988

>  <r_epik_Charging_Adjusted_Penalty>  (384) 
0.00729246

>  <i_epik_Tot_Q>  (384) 
1

>  <i_epik_Tot_abs_Q>  (384) 
1

>  <s_epik_Chemistry_Notes>  (384) 
This compound has an ester and may undergo hydrolysis at high or low pH.

>  <s_lp_Force_Field>  (384) 
OPLS3e

>  <r_lp_Energy>  (384) 
113.493

>  <b_lp_Chiralities_Consistent>  (384) 
1

>  <s_lp_Variant>  (384) 
86:0-1

>  <s_i_glide_gridfile>  (384) 
pfpi4k_grid

>  <i_i_glide_lignum>  (384) 
11

>  <i_i_glide_rotatable_bonds>  (384) 
5

>  <r_i_docking_score>  (384) 
-1.54553

>  <r_i_glide_ligand_efficiency>  (384) 
-0.0441579

>  <r_i_glide_ligand_efficiency_sa>  (384) 
-0.144443

>  <r_i_glide_ligand_efficiency_ln>  (384) 
-0.339278

>  <r_i_glide_gscore>  (384) 
-1.54553

>  <r_i_glide_lipo>  (384) 
-0.217466

>  <r_i_glide_hbond>  (384) 
0

>  <r_i_glide_metal>  (384) 
-0

>  <r_i_glide_rewards>  (384) 
-0.166075

>  <r_i_glide_evdw>  (384) 
-22.3526

>  <r_i_glide_ecoul>  (384) 
-1.48971

>  <r_i_glide_erotb>  (384) 
0.268444

>  <r_i_glide_esite>  (384) 
-0.0893441

>  <r_i_glide_emodel>  (384) 
-23.8325

>  <r_i_glide_energy>  (384) 
-23.8423

>  <r_i_glide_einternal>  (384) 
5.8423

>  <r_i_glide_intrahb_reward>  (384) 
-0

>  <i_i_glide_confnum>  (384) 
1

>  <i_i_glide_posenum>  (384) 
15

>  <r_i_glide_eff_state_penalty>  (384) 
0

>  <ligand_id>  (384) 
86

>  <original_smiles>  (384) 
COC12CCC3C(OC(C)=O)C4c5c(ccn5C)CC35C(C4Cc3ccccc3)N(C)CCC1C25

>  <smiles>  (384) 
[H]c1c([H])c([H])c(C([H])([H])C2([H])C3([H])c4c(c([H])c([H])n4C([H])([H])[H])C([H])([H])C45C([H])(C([H])([H])C([H])([H])C6(OC([H])([H])[H])C([H])(C([H])([H])C([H])([H])[N+]([H])(C([H])([H])[H])C24[H])C65[H])C3([H])OC(=O)C([H])([H])[H])c([H])c1[H]

$$$$
87:0:0
     RDKit          3D

 92 99  0  0  1  0  0  0  0  0999 V2000
    1.7849   -3.1600    6.5582 C   0  0  0  0  0  0  0  0  0  0  0  0
    2.3741   -1.9487    5.8022 C   0  0  0  0  0  0  0  0  0  0  0  0
    1.3127   -0.8343    6.0298 C   0  0  0  0  0  0  0  0  0  0  0  0
    3.6903   -1.5079    6.4931 C   0  0  0  0  0  0  0  0  0  0  0  0
    4.5810   -0.6042    5.6376 C   0  0  0  0  0  0  0  0  0  0  0  0
    4.5786   -0.9163    4.1180 C   0  0  1  0  0  0  0  0  0  0  0  0
    5.5314    0.1160    3.4986 C   0  0  0  0  0  0  0  0  0  0  0  0
    4.9811   -2.3798    3.8105 C   0  0  0  0  0  0  0  0  0  0  0  0
    3.6465   -3.2052    3.6422 C   0  0  1  0  0  0  0  0  0  0  0  0
    3.0457   -3.2347    2.3613 O   0  0  0  0  0  0  0  0  0  0  0  0
    3.3319   -2.2102    1.4687 C   0  0  2  0  0  0  0  0  0  0  0  0
    3.0295   -2.6156    0.0525 C   0  0  0  0  0  0  0  0  0  0  0  0
    4.4594   -2.6529    0.5612 C   0  0  1  0  0  0  0  0  0  0  0  0
    5.4093   -1.8453   -0.2695 C   0  0  1  0  0  0  0  0  0  0  0  0
    6.4621   -1.2751    0.4873 O   0  0  0  0  0  0  0  0  0  0  0  0
    5.9115   -2.9300   -1.2225 C   0  0  1  0  0  0  0  0  0  0  0  0
    7.1551   -2.5957   -1.8152 O   0  0  0  0  0  0  0  0  0  0  0  0
    5.9157   -4.1200   -0.4841 O   0  0  0  0  0  0  0  0  0  0  0  0
    5.2060   -3.9730    0.7641 C   0  0  2  0  0  0  0  0  0  0  0  0
    4.3701   -5.2368    1.2241 C   0  0  1  0  0  0  0  0  0  0  0  0
    4.6905   -6.1708    0.2274 O   0  0  0  0  0  0  0  0  0  0  0  0
    4.5493   -5.7128    2.7514 C   0  0  2  0  0  0  0  0  0  0  0  0
    4.4404   -7.3287    3.0521 C   0  0  2  0  0  0  0  0  0  0  0  0
    5.3423   -7.6605    4.2887 C   0  0  0  0  0  0  0  0  0  0  0  0
    5.1087   -8.3068    1.9942 C   0  0  0  0  0  0  0  0  0  0  0  0
    4.2091   -9.0341    0.9799 C   0  0  0  0  0  0  0  0  0  0  0  0
    2.9569   -9.6032    1.6291 C   0  0  1  0  0  0  0  0  0  0  0  0
    3.3679  -10.6644    2.4846 O   0  0  0  0  0  0  0  0  0  0  0  0
    2.1037   -8.5407    2.3564 C   0  0  0  0  0  0  0  0  0  0  0  0
    1.5326   -7.5505    1.3300 C   0  0  0  0  0  0  0  0  0  0  0  0
    0.8925   -9.2884    2.9799 C   0  0  0  0  0  0  0  0  0  0  0  0
    2.9854   -7.8303    3.4421 C   0  0  2  0  0  0  0  0  0  0  0  0
    2.2067   -6.8421    4.3349 C   0  0  0  0  0  0  0  0  0  0  0  0
    2.3135   -5.3731    3.9183 C   0  0  0  0  0  0  0  0  0  0  0  0
    3.7576   -4.8022    3.8739 C   0  0  2  0  0  0  0  0  0  0  0  0
    4.4670   -4.9570    5.2462 C   0  0  0  0  0  0  0  0  0  0  0  0
    2.9851   -0.8513    2.0431 C   0  0  1  0  0  0  0  0  0  0  0  0
    1.6531   -0.5191    1.6847 O   0  0  0  0  0  0  0  0  0  0  0  0
    3.1272   -0.8657    3.6017 C   0  0  1  0  0  0  0  0  0  0  0  0
    2.5757   -2.1858    4.2466 C   0  0  2  0  0  0  0  0  0  0  0  0
    1.6328   -2.9234    7.6135 H   0  0  0  0  0  0  0  0  0  0  0  0
    2.4315   -4.0302    6.5464 H   0  0  0  0  0  0  0  0  0  0  0  0
    0.8141   -3.4515    6.1508 H   0  0  0  0  0  0  0  0  0  0  0  0
    1.6735    0.1661    5.8010 H   0  0  0  0  0  0  0  0  0  0  0  0
    0.9970   -0.7886    7.0718 H   0  0  0  0  0  0  0  0  0  0  0  0
    0.4153   -1.0073    5.4343 H   0  0  0  0  0  0  0  0  0  0  0  0
    3.4566   -0.9830    7.4170 H   0  0  0  0  0  0  0  0  0  0  0  0
    4.2754   -2.3486    6.8449 H   0  0  0  0  0  0  0  0  0  0  0  0
    4.2628    0.4263    5.7908 H   0  0  0  0  0  0  0  0  0  0  0  0
    5.5951   -0.6461    6.0350 H   0  0  0  0  0  0  0  0  0  0  0  0
    5.5953    0.0443    2.4201 H   0  0  0  0  0  0  0  0  0  0  0  0
    6.5492    0.0208    3.8847 H   0  0  0  0  0  0  0  0  0  0  0  0
    5.1809    1.1186    3.7382 H   0  0  0  0  0  0  0  0  0  0  0  0
    5.6187   -2.4030    2.9377 H   0  0  0  0  0  0  0  0  0  0  0  0
    5.6159   -2.7444    4.6170 H   0  0  0  0  0  0  0  0  0  0  0  0
    2.5031   -3.5506   -0.1229 H   0  0  0  0  0  0  0  0  0  0  0  0
    2.7788   -1.8299   -0.6541 H   0  0  0  0  0  0  0  0  0  0  0  0
    4.8928   -1.0621   -0.8232 H   0  0  0  0  0  0  0  0  0  0  0  0
    6.0910   -0.7026    1.1410 H   0  0  0  0  0  0  0  0  0  0  0  0
    5.1855   -3.0924   -2.0269 H   0  0  0  0  0  0  0  0  0  0  0  0
    7.3336   -3.2080   -2.5177 H   0  0  0  0  0  0  0  0  0  0  0  0
    6.0022   -3.8044    1.4845 H   0  0  0  0  0  0  0  0  0  0  0  0
    3.3122   -5.1082    1.0410 H   0  0  0  0  0  0  0  0  0  0  0  0
    4.3940   -5.8290   -0.6070 H   0  0  0  0  0  0  0  0  0  0  0  0
    5.6068   -5.4988    2.9050 H   0  0  0  0  0  0  0  0  0  0  0  0
    5.5372   -8.7248    4.4275 H   0  0  0  0  0  0  0  0  0  0  0  0
    4.8845   -7.4234    5.2387 H   0  0  0  0  0  0  0  0  0  0  0  0
    6.3165   -7.1758    4.2225 H   0  0  0  0  0  0  0  0  0  0  0  0
    5.9314   -7.8157    1.4819 H   0  0  0  0  0  0  0  0  0  0  0  0
    5.6136   -9.1500    2.4662 H   0  0  0  0  0  0  0  0  0  0  0  0
    3.9257   -8.4128    0.1492 H   0  0  0  0  0  0  0  0  0  0  0  0
    4.7737   -9.8447    0.5170 H   0  0  0  0  0  0  0  0  0  0  0  0
    2.3537  -10.0685    0.8484 H   0  0  0  0  0  0  0  0  0  0  0  0
    3.6997  -11.3490    1.8999 H   0  0  0  0  0  0  0  0  0  0  0  0
    0.8273   -6.8500    1.7801 H   0  0  0  0  0  0  0  0  0  0  0  0
    1.0098   -8.0723    0.5368 H   0  0  0  0  0  0  0  0  0  0  0  0
    2.3234   -6.9839    0.8585 H   0  0  0  0  0  0  0  0  0  0  0  0
    0.0955   -8.6095    3.2856 H   0  0  0  0  0  0  0  0  0  0  0  0
    1.1804   -9.8746    3.8537 H   0  0  0  0  0  0  0  0  0  0  0  0
    0.4404   -9.9800    2.2663 H   0  0  0  0  0  0  0  0  0  0  0  0
    3.1633   -8.6672    4.1170 H   0  0  0  0  0  0  0  0  0  0  0  0
    1.1537   -7.0930    4.3586 H   0  0  0  0  0  0  0  0  0  0  0  0
    2.5182   -6.9892    5.3643 H   0  0  0  0  0  0  0  0  0  0  0  0
    1.8537   -5.2677    2.9402 H   0  0  0  0  0  0  0  0  0  0  0  0
    1.6726   -4.7908    4.5673 H   0  0  0  0  0  0  0  0  0  0  0  0
    4.0225   -5.6886    5.9115 H   0  0  0  0  0  0  0  0  0  0  0  0
    4.4364   -4.0603    5.8322 H   0  0  0  0  0  0  0  0  0  0  0  0
    5.5292   -5.1718    5.1388 H   0  0  0  0  0  0  0  0  0  0  0  0
    3.6139   -0.0968    1.5818 H   0  0  0  0  0  0  0  0  0  0  0  0
    1.5004   -0.6564    0.7406 H   0  0  0  0  0  0  0  0  0  0  0  0
    2.6533    0.0429    3.9656 H   0  0  0  0  0  0  0  0  0  0  0  0
    1.5843   -2.4063    3.8374 H   0  0  0  0  0  0  0  0  0  0  0  0
  1  2  1  0
  1 41  1  0
  1 42  1  0
  1 43  1  0
  2 40  1  0
  2  3  1  0
  2  4  1  0
  3 44  1  0
  3 45  1  0
  3 46  1  0
  4  5  1  0
  4 47  1  0
  4 48  1  0
  5  6  1  0
  5 49  1  0
  5 50  1  0
  6 39  1  0
  6  7  1  6
  6  8  1  0
  7 51  1  0
  7 52  1  0
  7 53  1  0
  9  8  1  6
  8 54  1  0
  8 55  1  0
  9 35  1  0
  9 40  1  0
  9 10  1  0
 10 11  1  0
 11 13  1  0
 11 12  1  6
 11 37  1  0
 13 12  1  6
 12 56  1  0
 12 57  1  0
 13 19  1  0
 13 14  1  0
 14 15  1  0
 14 16  1  0
 14 58  1  6
 15 59  1  0
 16 17  1  0
 16 18  1  0
 16 60  1  6
 17 61  1  0
 18 19  1  0
 19 20  1  0
 19 62  1  1
 20 21  1  0
 20 22  1  0
 20 63  1  1
 21 64  1  0
 22 35  1  0
 22 23  1  0
 22 65  1  1
 23 32  1  0
 23 24  1  1
 23 25  1  0
 24 66  1  0
 24 67  1  0
 24 68  1  0
 25 26  1  0
 25 69  1  0
 25 70  1  0
 26 27  1  0
 26 71  1  0
 26 72  1  0
 27 28  1  0
 27 29  1  0
 27 73  1  6
 28 74  1  0
 29 30  1  0
 29 31  1  0
 29 32  1  0
 30 75  1  0
 30 76  1  0
 30 77  1  0
 31 78  1  0
 31 79  1  0
 31 80  1  0
 32 33  1  0
 32 81  1  1
 33 34  1  0
 33 82  1  0
 33 83  1  0
 34 35  1  0
 34 84  1  0
 34 85  1  0
 35 36  1  1
 36 86  1  0
 36 87  1  0
 36 88  1  0
 37 38  1  0
 37 39  1  0
 37 89  1  6
 38 90  1  0
 39 40  1  0
 39 91  1  1
 40 92  1  6
M  END
>  <i_m_ct_stereo_status>  (385) 
1

>  <s_m_source_file>  (385) 
/var/tmp/pbs.5076255.sched01/tmp9yj1qf5s/135tauqa2n_.sdf

>  <i_m_source_file_index>  (385) 
12

>  <i_lp_mmshare_version>  (385) 
48012

>  <i_f3d_flags>  (385) 
0

>  <s_epik_input>  (385) 
W0NIM11DKFtDSDNdKShbQ0BIXTEyKVtDSDJdW0NIMl1bQ0BAXShbQ0gzXSkoW0NIMl0zKVtDQEhdMltDQEhdKFtPSF0pW0NAQF0oTzQpKFtDSDJdNSlbQ0BAXTUoW0NAQEhdKFtPSF0pW0NASF0oTzYpW09IXSlbQ0BIXTZbQ0BASF0oW09IXSlbQ0BASF0oW0NAXTcoW0NAQF0xMzQpW0NIM10pW0NAQF04KFtDSDNdKVtDQEBIXShbQ0gyXVtDSDJdNylDKFtDSDNdKShbQ0gzXSlbQ0BIXShbT0hdKVtDSDJdW0NIMl04

>  <s_epik_cmdline>  (385) 
J2VwaWtfcHl0aG9uJywgJy1waHQnLCAnMi4wJywgJy1waCcsICc3LjAnLCAnLXRuJywgJzgnLCAnLW1hJywgJzIwMCcsICctaW1hZScsICc8aW5maWxlLm1hZT4nLCAnLW9tYWUnLCAnPG91dGZpbGUubWFlPic=

>  <r_lp_tautomer_probability>  (385) 
1

>  <r_epik_Ionization_Penalty>  (385) 
4.28573e-06

>  <r_epik_Ionization_Penalty_Charging>  (385) 
0

>  <r_epik_Ionization_Penalty_Neutral>  (385) 
4.28573e-06

>  <r_epik_State_Penalty>  (385) 
-0

>  <r_epik_Charging_Adjusted_Penalty>  (385) 
0

>  <i_epik_Tot_Q>  (385) 
0

>  <i_epik_Tot_abs_Q>  (385) 
0

>  <s_epik_Chemistry_Notes>  (385) 
This compound contains an acetal/aminal-like group ( X-CH(R)-Y where X, Y are N, S, or O) that may be acid/base labile, releasing an aldehyde.

>  <s_lp_Force_Field>  (385) 
OPLS3e

>  <r_lp_Energy>  (385) 
167.288

>  <b_lp_Chiralities_Consistent>  (385) 
1

>  <s_lp_Variant>  (385) 
87:0-1

>  <s_i_glide_gridfile>  (385) 
pfpi4k_grid

>  <i_i_glide_lignum>  (385) 
12

>  <i_i_glide_rotatable_bonds>  (385) 
5

>  <r_i_docking_score>  (385) 
-3.74942

>  <r_i_glide_ligand_efficiency>  (385) 
-0.0937354

>  <r_i_glide_ligand_efficiency_sa>  (385) 
-0.320571

>  <r_i_glide_ligand_efficiency_ln>  (385) 
-0.79964

>  <r_i_glide_gscore>  (385) 
-3.74942

>  <r_i_glide_lipo>  (385) 
-0.294173

>  <r_i_glide_hbond>  (385) 
-0.150087

>  <r_i_glide_metal>  (385) 
-0

>  <r_i_glide_rewards>  (385) 
-0.0368777

>  <r_i_glide_evdw>  (385) 
-30.994

>  <r_i_glide_ecoul>  (385) 
-11.4572

>  <r_i_glide_erotb>  (385) 
0

>  <r_i_glide_esite>  (385) 
0

>  <r_i_glide_emodel>  (385) 
-51.9538

>  <r_i_glide_energy>  (385) 
-42.4512

>  <r_i_glide_einternal>  (385) 
1.76743

>  <r_i_glide_intrahb_reward>  (385) 
-0

>  <i_i_glide_confnum>  (385) 
1

>  <i_i_glide_posenum>  (385) 
4

>  <r_i_glide_eff_state_penalty>  (385) 
0

>  <ligand_id>  (385) 
87

>  <original_smiles>  (385) 
CC1(C)CCC2(C)CC34OC5(CC56C(O)C(O)OC6C(O)C5C6(C)CCC(O)C(C)(C)C6CCC53C)C(O)C2C14

>  <smiles>  (385) 
[H]OC1([H])OC2([H])C([H])(O[H])C3([H])C4(C([H])([H])[H])C([H])([H])C([H])([H])C([H])(O[H])C(C([H])([H])[H])(C([H])([H])[H])C4([H])C([H])([H])C([H])([H])C3(C([H])([H])[H])C34OC5(C([H])([H])C25C1([H])O[H])C([H])(O[H])C1([H])C3([H])C(C([H])([H])[H])(C([H])([H])[H])C([H])([H])C([H])([H])C1(C([H])([H])[H])C4([H])[H]

$$$$
87:0:1
     RDKit          3D

 92 99  0  0  1  0  0  0  0  0999 V2000
    0.0425   -2.6495    6.4422 C   0  0  0  0  0  0  0  0  0  0  0  0
    0.8383   -1.4626    5.8534 C   0  0  0  0  0  0  0  0  0  0  0  0
   -0.2230   -0.3269    5.7702 C   0  0  0  0  0  0  0  0  0  0  0  0
    1.9316   -1.0266    6.8646 C   0  0  0  0  0  0  0  0  0  0  0  0
    3.0386   -0.1542    6.2644 C   0  0  0  0  0  0  0  0  0  0  0  0
    3.4411   -0.4956    4.8044 C   0  0  1  0  0  0  0  0  0  0  0  0
    4.5544    0.5103    4.4373 C   0  0  0  0  0  0  0  0  0  0  0  0
    3.8743   -1.9759    4.6424 C   0  0  0  0  0  0  0  0  0  0  0  0
    2.6173   -2.7841    4.1328 C   0  0  1  0  0  0  0  0  0  0  0  0
    2.3904   -2.8300    2.7371 O   0  0  0  0  0  0  0  0  0  0  0  0
    2.9224   -1.8255    1.9369 C   0  0  2  0  0  0  0  0  0  0  0  0
    3.0160   -2.2487    0.4998 C   0  0  0  0  0  0  0  0  0  0  0  0
    4.2386   -2.3127    1.3853 C   0  0  1  0  0  0  0  0  0  0  0  0
    5.3935   -1.5456    0.8281 C   0  0  1  0  0  0  0  0  0  0  0  0
    6.2086   -1.0073    1.8473 O   0  0  0  0  0  0  0  0  0  0  0  0
    6.1201   -2.6473    0.0657 C   0  0  1  0  0  0  0  0  0  0  0  0
    7.4696   -2.3322   -0.1899 O   0  0  0  0  0  0  0  0  0  0  0  0
    5.9111   -3.8216    0.7984 O   0  0  0  0  0  0  0  0  0  0  0  0
    4.8813   -3.6416    1.7967 C   0  0  2  0  0  0  0  0  0  0  0  0
    3.9219   -4.8790    2.0337 C   0  0  1  0  0  0  0  0  0  0  0  0
    4.4782   -5.8453    1.1801 O   0  0  0  0  0  0  0  0  0  0  0  0
    3.6683   -5.3291    3.5597 C   0  0  2  0  0  0  0  0  0  0  0  0
    3.4464   -6.9387    3.8415 C   0  0  2  0  0  0  0  0  0  0  0  0
    3.9779   -7.2562    5.2816 C   0  0  0  0  0  0  0  0  0  0  0  0
    4.3455   -7.9522    3.0140 C   0  0  0  0  0  0  0  0  0  0  0  0
    3.7373   -8.6898    1.7991 C   0  0  0  0  0  0  0  0  0  0  0  0
    2.3486   -9.2486    2.0922 C   0  0  1  0  0  0  0  0  0  0  0  0
    2.4762  -10.2831    3.0509 O   0  0  0  0  0  0  0  0  0  0  0  0
    1.3643   -8.1416    2.5552 C   0  0  0  0  0  0  0  0  0  0  0  0
    1.1060   -7.1710    1.3866 C   0  0  0  0  0  0  0  0  0  0  0  0
    0.0079   -8.8350    2.8643 C   0  0  0  0  0  0  0  0  0  0  0  0
    1.9310   -7.4080    3.8279 C   0  0  2  0  0  0  0  0  0  0  0  0
    0.9635   -6.3879    4.4676 C   0  0  0  0  0  0  0  0  0  0  0  0
    1.2092   -4.9275    4.0755 C   0  0  0  0  0  0  0  0  0  0  0  0
    2.6233   -4.3806    4.4112 C   0  0  2  0  0  0  0  0  0  0  0  0
    2.9361   -4.5186    5.9285 C   0  0  0  0  0  0  0  0  0  0  0  0
    2.4675   -0.4560    2.3858 C   0  0  1  0  0  0  0  0  0  0  0  0
    1.2818   -0.1098    1.6936 O   0  0  0  0  0  0  0  0  0  0  0  0
    2.1814   -0.4382    3.9201 C   0  0  1  0  0  0  0  0  0  0  0  0
    1.4456   -1.7349    4.4133 C   0  0  2  0  0  0  0  0  0  0  0  0
   -0.3774   -2.3928    7.4153 H   0  0  0  0  0  0  0  0  0  0  0  0
    0.6494   -3.5312    6.6165 H   0  0  0  0  0  0  0  0  0  0  0  0
   -0.7904   -2.9381    5.7975 H   0  0  0  0  0  0  0  0  0  0  0  0
    0.2073    0.6614    5.6292 H   0  0  0  0  0  0  0  0  0  0  0  0
   -0.8061   -0.2508    6.6880 H   0  0  0  0  0  0  0  0  0  0  0  0
   -0.9314   -0.4975    4.9568 H   0  0  0  0  0  0  0  0  0  0  0  0
    1.4678   -0.4823    7.6856 H   0  0  0  0  0  0  0  0  0  0  0  0
    2.3826   -1.8711    7.3711 H   0  0  0  0  0  0  0  0  0  0  0  0
    2.7159    0.8858    6.3127 H   0  0  0  0  0  0  0  0  0  0  0  0
    3.9070   -0.2092    6.9219 H   0  0  0  0  0  0  0  0  0  0  0  0
    4.9073    0.3974    3.4187 H   0  0  0  0  0  0  0  0  0  0  0  0
    5.4271    0.3913    5.0844 H   0  0  0  0  0  0  0  0  0  0  0  0
    4.2058    1.5390    4.5414 H   0  0  0  0  0  0  0  0  0  0  0  0
    4.7223   -2.0283    3.9734 H   0  0  0  0  0  0  0  0  0  0  0  0
    4.2648   -2.3339    5.5938 H   0  0  0  0  0  0  0  0  0  0  0  0
    2.5275   -3.1748    0.1980 H   0  0  0  0  0  0  0  0  0  0  0  0
    2.9901   -1.4626   -0.2550 H   0  0  0  0  0  0  0  0  0  0  0  0
    5.0779   -0.7561    0.1466 H   0  0  0  0  0  0  0  0  0  0  0  0
    6.8429   -0.4133    1.4671 H   0  0  0  0  0  0  0  0  0  0  0  0
    5.6404   -2.8252   -0.8997 H   0  0  0  0  0  0  0  0  0  0  0  0
    7.8938   -2.1843    0.6423 H   0  0  0  0  0  0  0  0  0  0  0  0
    5.4504   -3.4716    2.7085 H   0  0  0  0  0  0  0  0  0  0  0  0
    2.9560   -4.7374    1.5641 H   0  0  0  0  0  0  0  0  0  0  0  0
    5.3683   -6.0037    1.4528 H   0  0  0  0  0  0  0  0  0  0  0  0
    4.6476   -5.1278    3.9947 H   0  0  0  0  0  0  0  0  0  0  0  0
    4.1116   -8.3183    5.4877 H   0  0  0  0  0  0  0  0  0  0  0  0
    3.2897   -6.9923    6.0710 H   0  0  0  0  0  0  0  0  0  0  0  0
    4.9422   -6.7854    5.4746 H   0  0  0  0  0  0  0  0  0  0  0  0
    5.2940   -7.4929    2.7481 H   0  0  0  0  0  0  0  0  0  0  0  0
    4.6789   -8.7944    3.6199 H   0  0  0  0  0  0  0  0  0  0  0  0
    3.6909   -8.0742    0.9079 H   0  0  0  0  0  0  0  0  0  0  0  0
    4.3971   -9.5099    1.5142 H   0  0  0  0  0  0  0  0  0  0  0  0
    1.9631   -9.7213    1.1867 H   0  0  0  0  0  0  0  0  0  0  0  0
    2.9275  -11.0125    2.6493 H   0  0  0  0  0  0  0  0  0  0  0  0
    0.3339   -6.4393    1.6232 H   0  0  0  0  0  0  0  0  0  0  0  0
    0.7811   -7.7135    0.4971 H   0  0  0  0  0  0  0  0  0  0  0  0
    2.0054   -6.6290    1.1108 H   0  0  0  0  0  0  0  0  0  0  0  0
   -0.8245   -8.1345    2.9294 H   0  0  0  0  0  0  0  0  0  0  0  0
    0.0384   -9.4052    3.7918 H   0  0  0  0  0  0  0  0  0  0  0  0
   -0.2607   -9.5428    2.0794 H   0  0  0  0  0  0  0  0  0  0  0  0
    1.9059   -8.2298    4.5434 H   0  0  0  0  0  0  0  0  0  0  0  0
   -0.0654   -6.6168    4.2199 H   0  0  0  0  0  0  0  0  0  0  0  0
    0.9841   -6.5126    5.5465 H   0  0  0  0  0  0  0  0  0  0  0  0
    1.0342   -4.8313    3.0084 H   0  0  0  0  0  0  0  0  0  0  0  0
    0.4310   -4.3182    4.5197 H   0  0  0  0  0  0  0  0  0  0  0  0
    2.3159   -5.2302    6.4644 H   0  0  0  0  0  0  0  0  0  0  0  0
    2.7708   -3.6090    6.4733 H   0  0  0  0  0  0  0  0  0  0  0  0
    3.9836   -4.7538    6.1153 H   0  0  0  0  0  0  0  0  0  0  0  0
    3.2096    0.2784    2.0910 H   0  0  0  0  0  0  0  0  0  0  0  0
    1.3273   -0.3558    0.7645 H   0  0  0  0  0  0  0  0  0  0  0  0
    1.6465    0.4848    4.1254 H   0  0  0  0  0  0  0  0  0  0  0  0
    0.5964   -1.9475    3.7577 H   0  0  0  0  0  0  0  0  0  0  0  0
  1  2  1  0
  1 41  1  0
  1 42  1  0
  1 43  1  0
  2 40  1  0
  2  3  1  0
  2  4  1  0
  3 44  1  0
  3 45  1  0
  3 46  1  0
  4  5  1  0
  4 47  1  0
  4 48  1  0
  5  6  1  0
  5 49  1  0
  5 50  1  0
  6 39  1  0
  6  7  1  6
  6  8  1  0
  7 51  1  0
  7 52  1  0
  7 53  1  0
  9  8  1  6
  8 54  1  0
  8 55  1  0
  9 35  1  0
  9 40  1  0
  9 10  1  0
 10 11  1  0
 11 13  1  0
 11 12  1  6
 11 37  1  0
 13 12  1  6
 12 56  1  0
 12 57  1  0
 13 19  1  0
 13 14  1  0
 14 15  1  0
 14 16  1  0
 14 58  1  6
 15 59  1  0
 16 17  1  0
 16 18  1  0
 16 60  1  6
 17 61  1  0
 18 19  1  0
 19 20  1  0
 19 62  1  1
 20 21  1  0
 20 22  1  0
 20 63  1  6
 21 64  1  0
 22 35  1  0
 22 23  1  0
 22 65  1  1
 23 32  1  0
 23 24  1  1
 23 25  1  0
 24 66  1  0
 24 67  1  0
 24 68  1  0
 25 26  1  0
 25 69  1  0
 25 70  1  0
 26 27  1  0
 26 71  1  0
 26 72  1  0
 27 28  1  0
 27 29  1  0
 27 73  1  6
 28 74  1  0
 29 30  1  0
 29 31  1  0
 29 32  1  0
 30 75  1  0
 30 76  1  0
 30 77  1  0
 31 78  1  0
 31 79  1  0
 31 80  1  0
 32 33  1  0
 32 81  1  1
 33 34  1  0
 33 82  1  0
 33 83  1  0
 34 35  1  0
 34 84  1  0
 34 85  1  0
 35 36  1  1
 36 86  1  0
 36 87  1  0
 36 88  1  0
 37 38  1  0
 37 39  1  0
 37 89  1  1
 38 90  1  0
 39 40  1  0
 39 91  1  6
 40 92  1  6
M  END
>  <i_m_ct_stereo_status>  (386) 
1

>  <s_m_source_file>  (386) 
/var/tmp/pbs.5076255.sched01/tmp9yj1qf5s/135tauqa2n_.sdf

>  <i_m_source_file_index>  (386) 
12

>  <i_lp_mmshare_version>  (386) 
48012

>  <i_f3d_flags>  (386) 
0

>  <s_epik_input>  (386) 
W0NIM11DKFtDSDNdKShbQ0BIXTEyKVtDSDJdW0NIMl1bQ0BAXShbQ0gzXSkoW0NIMl0zKVtDQEhdMltDQEhdKFtPSF0pW0NAQF0oTzQpKFtDSDJdNSlbQ0BAXTUoW0NAQEhdKFtPSF0pW0NASF0oTzYpW09IXSlbQ0BIXTZbQ0BASF0oW09IXSlbQ0BASF0oW0NAXTcoW0NAQF0xMzQpW0NIM10pW0NAQF04KFtDSDNdKVtDQEBIXShbQ0gyXVtDSDJdNylDKFtDSDNdKShbQ0gzXSlbQ0BIXShbT0hdKVtDSDJdW0NIMl04

>  <s_epik_cmdline>  (386) 
J2VwaWtfcHl0aG9uJywgJy1waHQnLCAnMi4wJywgJy1waCcsICc3LjAnLCAnLXRuJywgJzgnLCAnLW1hJywgJzIwMCcsICctaW1hZScsICc8aW5maWxlLm1hZT4nLCAnLW9tYWUnLCAnPG91dGZpbGUubWFlPic=

>  <r_lp_tautomer_probability>  (386) 
1

>  <r_epik_Ionization_Penalty>  (386) 
4.28573e-06

>  <r_epik_Ionization_Penalty_Charging>  (386) 
0

>  <r_epik_Ionization_Penalty_Neutral>  (386) 
4.28573e-06

>  <r_epik_State_Penalty>  (386) 
-0

>  <r_epik_Charging_Adjusted_Penalty>  (386) 
0

>  <i_epik_Tot_Q>  (386) 
0

>  <i_epik_Tot_abs_Q>  (386) 
0

>  <s_epik_Chemistry_Notes>  (386) 
This compound contains an acetal/aminal-like group ( X-CH(R)-Y where X, Y are N, S, or O) that may be acid/base labile, releasing an aldehyde.

>  <s_lp_Force_Field>  (386) 
OPLS3e

>  <r_lp_Energy>  (386) 
167.288

>  <b_lp_Chiralities_Consistent>  (386) 
1

>  <s_lp_Variant>  (386) 
87:0-1

>  <s_i_glide_gridfile>  (386) 
pfpi4k_grid

>  <i_i_glide_lignum>  (386) 
12

>  <i_i_glide_rotatable_bonds>  (386) 
5

>  <r_i_docking_score>  (386) 
-2.77886

>  <r_i_glide_ligand_efficiency>  (386) 
-0.0694714

>  <r_i_glide_ligand_efficiency_sa>  (386) 
-0.237589

>  <r_i_glide_ligand_efficiency_ln>  (386) 
-0.592648

>  <r_i_glide_gscore>  (386) 
-2.77886

>  <r_i_glide_lipo>  (386) 
-0.210413

>  <r_i_glide_hbond>  (386) 
0

>  <r_i_glide_metal>  (386) 
-0

>  <r_i_glide_rewards>  (386) 
-0.0459178

>  <r_i_glide_evdw>  (386) 
-34.5163

>  <r_i_glide_ecoul>  (386) 
-5.31139

>  <r_i_glide_erotb>  (386) 
0

>  <r_i_glide_esite>  (386) 
0

>  <r_i_glide_emodel>  (386) 
-46.7068

>  <r_i_glide_energy>  (386) 
-39.8277

>  <r_i_glide_einternal>  (386) 
1.34185

>  <r_i_glide_intrahb_reward>  (386) 
-0

>  <i_i_glide_confnum>  (386) 
2

>  <i_i_glide_posenum>  (386) 
6

>  <r_i_glide_eff_state_penalty>  (386) 
0

>  <ligand_id>  (386) 
87

>  <original_smiles>  (386) 
CC1(C)CCC2(C)CC34OC5(CC56C(O)C(O)OC6C(O)C5C6(C)CCC(O)C(C)(C)C6CCC53C)C(O)C2C14

>  <smiles>  (386) 
[H]OC1([H])OC2([H])C([H])(O[H])C3([H])C4(C([H])([H])[H])C([H])([H])C([H])([H])C([H])(O[H])C(C([H])([H])[H])(C([H])([H])[H])C4([H])C([H])([H])C([H])([H])C3(C([H])([H])[H])C34OC5(C([H])([H])C25C1([H])O[H])C([H])(O[H])C1([H])C3([H])C(C([H])([H])[H])(C([H])([H])[H])C([H])([H])C([H])([H])C1(C([H])([H])[H])C4([H])[H]

$$$$
87:0:2
     RDKit          3D

 92 99  0  0  1  0  0  0  0  0999 V2000
   -0.0366   -2.6292    6.4294 C   0  0  0  0  0  0  0  0  0  0  0  0
    0.7870   -1.4572    5.8492 C   0  0  0  0  0  0  0  0  0  0  0  0
   -0.2524   -0.3025    5.7529 C   0  0  0  0  0  0  0  0  0  0  0  0
    1.8770   -1.0397    6.8716 C   0  0  0  0  0  0  0  0  0  0  0  0
    3.0065   -0.1881    6.2828 C   0  0  0  0  0  0  0  0  0  0  0  0
    3.4186   -0.5384    4.8279 C   0  0  1  0  0  0  0  0  0  0  0  0
    4.5532    0.4481    4.4730 C   0  0  0  0  0  0  0  0  0  0  0  0
    3.8269   -2.0254    4.6721 C   0  0  0  0  0  0  0  0  0  0  0  0
    2.5611   -2.8112    4.1497 C   0  0  1  0  0  0  0  0  0  0  0  0
    2.3473   -2.8553    2.7512 O   0  0  0  0  0  0  0  0  0  0  0  0
    2.9080   -1.8597    1.9556 C   0  0  2  0  0  0  0  0  0  0  0  0
    3.0158   -2.2850    0.5188 C   0  0  0  0  0  0  0  0  0  0  0  0
    4.2260   -2.3654    1.4228 C   0  0  1  0  0  0  0  0  0  0  0  0
    5.3948   -1.6131    0.8744 C   0  0  1  0  0  0  0  0  0  0  0  0
    6.2065   -1.0609    1.8937 O   0  0  0  0  0  0  0  0  0  0  0  0
    6.1123   -2.7283    0.1231 C   0  0  1  0  0  0  0  0  0  0  0  0
    7.4677   -2.4355   -0.1176 O   0  0  0  0  0  0  0  0  0  0  0  0
    5.8765   -3.8952    0.8517 O   0  0  0  0  0  0  0  0  0  0  0  0
    4.8367   -3.7046    1.8381 C   0  0  2  0  0  0  0  0  0  0  0  0
    3.8532   -4.9250    2.0669 C   0  0  1  0  0  0  0  0  0  0  0  0
    4.4249   -5.8994    1.2380 O   0  0  0  0  0  0  0  0  0  0  0  0
    3.5722   -5.3725    3.5902 C   0  0  2  0  0  0  0  0  0  0  0  0
    3.3188   -6.9793    3.8706 C   0  0  2  0  0  0  0  0  0  0  0  0
    3.8280   -7.3068    5.3167 C   0  0  0  0  0  0  0  0  0  0  0  0
    4.2091   -8.0080    3.0516 C   0  0  0  0  0  0  0  0  0  0  0  0
    3.5987   -8.7427    1.8379 C   0  0  0  0  0  0  0  0  0  0  0  0
    2.1963   -9.2722    2.1207 C   0  0  1  0  0  0  0  0  0  0  0  0
    2.2808  -10.3108    3.0812 O   0  0  0  0  0  0  0  0  0  0  0  0
    1.2265   -8.1454    2.5650 C   0  0  0  0  0  0  0  0  0  0  0  0
    1.0012   -7.1729    1.3898 C   0  0  0  0  0  0  0  0  0  0  0  0
   -0.1443   -8.8156    2.8618 C   0  0  0  0  0  0  0  0  0  0  0  0
    1.7946   -7.4202    3.8416 C   0  0  2  0  0  0  0  0  0  0  0  0
    0.8388   -6.3831    4.4699 C   0  0  0  0  0  0  0  0  0  0  0  0
    1.1163   -4.9288    4.0791 C   0  0  0  0  0  0  0  0  0  0  0  0
    2.5354   -4.4065    4.4305 C   0  0  2  0  0  0  0  0  0  0  0  0
    2.8294   -4.5496    5.9502 C   0  0  0  0  0  0  0  0  0  0  0  0
    2.4702   -0.4846    2.3990 C   0  0  1  0  0  0  0  0  0  0  0  0
    1.2954   -0.1271    1.6936 O   0  0  0  0  0  0  0  0  0  0  0  0
    2.1694   -0.4586    3.9302 C   0  0  1  0  0  0  0  0  0  0  0  0
    1.4049   -1.7421    4.4161 C   0  0  2  0  0  0  0  0  0  0  0  0
   -0.4627   -2.3636    7.3969 H   0  0  0  0  0  0  0  0  0  0  0  0
    0.5524   -3.5213    6.6114 H   0  0  0  0  0  0  0  0  0  0  0  0
   -0.8668   -2.9025    5.7756 H   0  0  0  0  0  0  0  0  0  0  0  0
    0.1972    0.6774    5.6159 H   0  0  0  0  0  0  0  0  0  0  0  0
   -0.8446   -0.2151    6.6639 H   0  0  0  0  0  0  0  0  0  0  0  0
   -0.9544   -0.4616    4.9318 H   0  0  0  0  0  0  0  0  0  0  0  0
    1.4144   -0.4856    7.6875 H   0  0  0  0  0  0  0  0  0  0  0  0
    2.3072   -1.8911    7.3847 H   0  0  0  0  0  0  0  0  0  0  0  0
    2.7007    0.8574    6.3269 H   0  0  0  0  0  0  0  0  0  0  0  0
    3.8661   -0.2570    6.9503 H   0  0  0  0  0  0  0  0  0  0  0  0
    4.9148    0.3286    3.4586 H   0  0  0  0  0  0  0  0  0  0  0  0
    5.4165    0.3136    5.1297 H   0  0  0  0  0  0  0  0  0  0  0  0
    4.2220    1.4826    4.5723 H   0  0  0  0  0  0  0  0  0  0  0  0
    4.6812   -2.0946    4.0125 H   0  0  0  0  0  0  0  0  0  0  0  0
    4.2003   -2.3894    5.6278 H   0  0  0  0  0  0  0  0  0  0  0  0
    2.5098   -3.1980    0.2137 H   0  0  0  0  0  0  0  0  0  0  0  0
    3.0036   -1.4970   -0.2342 H   0  0  0  0  0  0  0  0  0  0  0  0
    5.0953   -0.8264    0.1838 H   0  0  0  0  0  0  0  0  0  0  0  0
    6.8481   -0.4786    1.5152 H   0  0  0  0  0  0  0  0  0  0  0  0
    5.6416   -2.9072   -0.8469 H   0  0  0  0  0  0  0  0  0  0  0  0
    7.8754   -2.2612    0.7180 H   0  0  0  0  0  0  0  0  0  0  0  0
    5.3979   -3.5508    2.7563 H   0  0  0  0  0  0  0  0  0  0  0  0
    2.8945   -4.7741    1.5824 H   0  0  0  0  0  0  0  0  0  0  0  0
    3.8524   -6.6511    1.2273 H   0  0  0  0  0  0  0  0  0  0  0  0
    4.5512   -5.1911    4.0332 H   0  0  0  0  0  0  0  0  0  0  0  0
    3.9431   -8.3706    5.5263 H   0  0  0  0  0  0  0  0  0  0  0  0
    3.1366   -7.0290    6.0993 H   0  0  0  0  0  0  0  0  0  0  0  0
    4.7984   -6.8519    5.5196 H   0  0  0  0  0  0  0  0  0  0  0  0
    5.1682   -7.5640    2.7948 H   0  0  0  0  0  0  0  0  0  0  0  0
    4.5299   -8.8511    3.6622 H   0  0  0  0  0  0  0  0  0  0  0  0
    3.5744   -8.1417    0.9356 H   0  0  0  0  0  0  0  0  0  0  0  0
    4.2429   -9.5805    1.5674 H   0  0  0  0  0  0  0  0  0  0  0  0
    1.8162   -9.7420    1.2127 H   0  0  0  0  0  0  0  0  0  0  0  0
    2.6225   -9.9625    3.8883 H   0  0  0  0  0  0  0  0  0  0  0  0
    0.2375   -6.4303    1.6158 H   0  0  0  0  0  0  0  0  0  0  0  0
    0.6763   -7.7104    0.4976 H   0  0  0  0  0  0  0  0  0  0  0  0
    1.9093   -6.6436    1.1207 H   0  0  0  0  0  0  0  0  0  0  0  0
   -0.9644   -8.1004    2.9137 H   0  0  0  0  0  0  0  0  0  0  0  0
   -0.1343   -9.3801    3.7933 H   0  0  0  0  0  0  0  0  0  0  0  0
   -0.4136   -9.5231    2.0775 H   0  0  0  0  0  0  0  0  0  0  0  0
    1.7426   -8.2361    4.5625 H   0  0  0  0  0  0  0  0  0  0  0  0
   -0.1916   -6.5935    4.2103 H   0  0  0  0  0  0  0  0  0  0  0  0
    0.8449   -6.5073    5.5487 H   0  0  0  0  0  0  0  0  0  0  0  0
    0.9571   -4.8312    3.0092 H   0  0  0  0  0  0  0  0  0  0  0  0
    0.3433   -4.3050    4.5132 H   0  0  0  0  0  0  0  0  0  0  0  0
    2.1903   -5.2493    6.4805 H   0  0  0  0  0  0  0  0  0  0  0  0
    2.6740   -3.6364    6.4921 H   0  0  0  0  0  0  0  0  0  0  0  0
    3.8705   -4.8029    6.1485 H   0  0  0  0  0  0  0  0  0  0  0  0
    3.2266    0.2381    2.1101 H   0  0  0  0  0  0  0  0  0  0  0  0
    1.3410   -0.3910    0.7694 H   0  0  0  0  0  0  0  0  0  0  0  0
    1.6487    0.4738    4.1281 H   0  0  0  0  0  0  0  0  0  0  0  0
    0.5598   -1.9398    3.7518 H   0  0  0  0  0  0  0  0  0  0  0  0
  1  2  1  0
  1 41  1  0
  1 42  1  0
  1 43  1  0
  2 40  1  0
  2  3  1  0
  2  4  1  0
  3 44  1  0
  3 45  1  0
  3 46  1  0
  4  5  1  0
  4 47  1  0
  4 48  1  0
  5  6  1  0
  5 49  1  0
  5 50  1  0
  6 39  1  0
  6  7  1  6
  6  8  1  0
  7 51  1  0
  7 52  1  0
  7 53  1  0
  9  8  1  6
  8 54  1  0
  8 55  1  0
  9 35  1  0
  9 40  1  0
  9 10  1  0
 10 11  1  0
 11 13  1  0
 11 12  1  6
 11 37  1  0
 13 12  1  6
 12 56  1  0
 12 57  1  0
 13 19  1  0
 13 14  1  0
 14 15  1  0
 14 16  1  0
 14 58  1  6
 15 59  1  0
 16 17  1  0
 16 18  1  0
 16 60  1  6
 17 61  1  0
 18 19  1  0
 19 20  1  0
 19 62  1  1
 20 21  1  0
 20 22  1  0
 20 63  1  6
 21 64  1  0
 22 35  1  0
 22 23  1  0
 22 65  1  1
 23 32  1  0
 23 24  1  1
 23 25  1  0
 24 66  1  0
 24 67  1  0
 24 68  1  0
 25 26  1  0
 25 69  1  0
 25 70  1  0
 26 27  1  0
 26 71  1  0
 26 72  1  0
 27 28  1  0
 27 29  1  0
 27 73  1  6
 28 74  1  0
 29 30  1  0
 29 31  1  0
 29 32  1  0
 30 75  1  0
 30 76  1  0
 30 77  1  0
 31 78  1  0
 31 79  1  0
 31 80  1  0
 32 33  1  0
 32 81  1  1
 33 34  1  0
 33 82  1  0
 33 83  1  0
 34 35  1  0
 34 84  1  0
 34 85  1  0
 35 36  1  1
 36 86  1  0
 36 87  1  0
 36 88  1  0
 37 38  1  0
 37 39  1  0
 37 89  1  1
 38 90  1  0
 39 40  1  0
 39 91  1  6
 40 92  1  6
M  END
>  <i_m_ct_stereo_status>  (387) 
1

>  <s_m_source_file>  (387) 
/var/tmp/pbs.5076255.sched01/tmp9yj1qf5s/135tauqa2n_.sdf

>  <i_m_source_file_index>  (387) 
12

>  <i_lp_mmshare_version>  (387) 
48012

>  <i_f3d_flags>  (387) 
0

>  <s_epik_input>  (387) 
W0NIM11DKFtDSDNdKShbQ0BIXTEyKVtDSDJdW0NIMl1bQ0BAXShbQ0gzXSkoW0NIMl0zKVtDQEhdMltDQEhdKFtPSF0pW0NAQF0oTzQpKFtDSDJdNSlbQ0BAXTUoW0NAQEhdKFtPSF0pW0NASF0oTzYpW09IXSlbQ0BIXTZbQ0BASF0oW09IXSlbQ0BASF0oW0NAXTcoW0NAQF0xMzQpW0NIM10pW0NAQF04KFtDSDNdKVtDQEBIXShbQ0gyXVtDSDJdNylDKFtDSDNdKShbQ0gzXSlbQ0BIXShbT0hdKVtDSDJdW0NIMl04

>  <s_epik_cmdline>  (387) 
J2VwaWtfcHl0aG9uJywgJy1waHQnLCAnMi4wJywgJy1waCcsICc3LjAnLCAnLXRuJywgJzgnLCAnLW1hJywgJzIwMCcsICctaW1hZScsICc8aW5maWxlLm1hZT4nLCAnLW9tYWUnLCAnPG91dGZpbGUubWFlPic=

>  <r_lp_tautomer_probability>  (387) 
1

>  <r_epik_Ionization_Penalty>  (387) 
4.28573e-06

>  <r_epik_Ionization_Penalty_Charging>  (387) 
0

>  <r_epik_Ionization_Penalty_Neutral>  (387) 
4.28573e-06

>  <r_epik_State_Penalty>  (387) 
-0

>  <r_epik_Charging_Adjusted_Penalty>  (387) 
0

>  <i_epik_Tot_Q>  (387) 
0

>  <i_epik_Tot_abs_Q>  (387) 
0

>  <s_epik_Chemistry_Notes>  (387) 
This compound contains an acetal/aminal-like group ( X-CH(R)-Y where X, Y are N, S, or O) that may be acid/base labile, releasing an aldehyde.

>  <s_lp_Force_Field>  (387) 
OPLS3e

>  <r_lp_Energy>  (387) 
167.288

>  <b_lp_Chiralities_Consistent>  (387) 
1

>  <s_lp_Variant>  (387) 
87:0-1

>  <s_i_glide_gridfile>  (387) 
pfpi4k_grid

>  <i_i_glide_lignum>  (387) 
12

>  <i_i_glide_rotatable_bonds>  (387) 
5

>  <r_i_docking_score>  (387) 
-2.66773

>  <r_i_glide_ligand_efficiency>  (387) 
-0.0666933

>  <r_i_glide_ligand_efficiency_sa>  (387) 
-0.228088

>  <r_i_glide_ligand_efficiency_ln>  (387) 
-0.568949

>  <r_i_glide_gscore>  (387) 
-2.66773

>  <r_i_glide_lipo>  (387) 
-0.234216

>  <r_i_glide_hbond>  (387) 
0

>  <r_i_glide_metal>  (387) 
-0

>  <r_i_glide_rewards>  (387) 
-0.0587954

>  <r_i_glide_evdw>  (387) 
-34.9452

>  <r_i_glide_ecoul>  (387) 
-4.18307

>  <r_i_glide_erotb>  (387) 
0

>  <r_i_glide_esite>  (387) 
0

>  <r_i_glide_emodel>  (387) 
-45.6974

>  <r_i_glide_energy>  (387) 
-39.1283

>  <r_i_glide_einternal>  (387) 
1.34286

>  <r_i_glide_intrahb_reward>  (387) 
-0

>  <i_i_glide_confnum>  (387) 
2

>  <i_i_glide_posenum>  (387) 
18

>  <r_i_glide_eff_state_penalty>  (387) 
0

>  <ligand_id>  (387) 
87

>  <original_smiles>  (387) 
CC1(C)CCC2(C)CC34OC5(CC56C(O)C(O)OC6C(O)C5C6(C)CCC(O)C(C)(C)C6CCC53C)C(O)C2C14

>  <smiles>  (387) 
[H]OC1([H])OC2([H])C([H])(O[H])C3([H])C4(C([H])([H])[H])C([H])([H])C([H])([H])C([H])(O[H])C(C([H])([H])[H])(C([H])([H])[H])C4([H])C([H])([H])C([H])([H])C3(C([H])([H])[H])C34OC5(C([H])([H])C25C1([H])O[H])C([H])(O[H])C1([H])C3([H])C(C([H])([H])[H])(C([H])([H])[H])C([H])([H])C([H])([H])C1(C([H])([H])[H])C4([H])[H]

$$$$
90:0:0
     RDKit          3D

 53 61  0  0  1  0  0  0  0  0999 V2000
    3.6117   -7.6519    1.2614 C   0  0  0  0  0  0  0  0  0  0  0  0
    3.6151   -6.4801    0.4581 O   0  0  0  0  0  0  0  0  0  0  0  0
    3.3197   -5.2845    1.0748 C   0  0  0  0  0  0  0  0  0  0  0  0
    3.0416   -5.1485    2.4561 C   0  0  0  0  0  0  0  0  0  0  0  0
    2.7541   -3.9073    3.0126 C   0  0  0  0  0  0  0  0  0  0  0  0
    2.7572   -2.7097    2.2238 C   0  0  0  0  0  0  0  0  0  0  0  0
    2.5067   -1.3842    2.9421 C   0  0  2  0  0  0  0  0  0  0  0  0
    2.6266   -1.3967    4.4708 C   0  0  1  0  0  0  0  0  0  0  0  0
    3.7580   -2.0678    5.0402 O   0  0  0  0  0  0  0  0  0  0  0  0
    5.0405   -1.7194    4.5363 C   0  0  0  0  0  0  0  0  0  0  0  0
    2.6486    0.0953    4.7808 C   0  0  2  0  0  0  0  0  0  0  0  0
    1.3413    0.8202    4.3836 C   0  0  2  0  0  0  0  0  0  0  0  0
    0.5194    0.3865    3.2043 C   0  0  2  0  0  0  0  0  0  0  0  0
    1.5351   -0.3811    2.3137 C   0  0  1  0  0  0  0  0  0  0  0  0
    3.0444   -0.0446    2.4699 C   0  0  1  0  0  0  0  0  0  0  0  0
    3.3253    0.8883    3.6514 C   0  0  1  0  0  0  0  0  0  0  0  0
    2.2424    1.9212    3.9035 C   0  0  1  0  0  0  0  0  0  0  0  0
    2.1821    2.3270    2.4959 O   0  0  0  0  0  0  0  0  0  0  0  0
    0.9434    2.9315    2.7772 C   0  0  1  0  0  0  0  0  0  0  0  0
    0.1502    4.0464    3.4240 C   0  0  2  0  0  0  0  0  0  0  0  0
    0.7166    3.8268    4.7413 O   0  0  0  0  0  0  0  0  0  0  0  0
    1.8575    3.3481    4.0512 C   0  0  1  0  0  0  0  0  0  0  0  0
    2.9741    4.2681    3.9686 O   0  0  0  0  0  0  0  0  0  0  0  0
    2.9175    5.3247    3.0260 C   0  0  0  0  0  0  0  0  0  0  0  0
   -1.2422    3.5624    3.3984 C   0  0  0  0  0  0  0  0  0  0  0  0
   -2.2647    4.2425    3.5293 O   0  0  0  0  0  0  0  0  0  0  0  0
   -1.2380    2.2215    3.1351 O   0  0  0  0  0  0  0  0  0  0  0  0
   -0.0273    1.7151    2.5610 C   0  0  2  0  0  0  0  0  0  0  0  0
    3.0068   -2.8438    0.8286 C   0  0  0  0  0  0  0  0  0  0  0  0
    3.0413   -1.7944   -0.0526 O   0  0  0  0  0  0  0  0  0  0  0  0
    3.2842   -4.1219    0.2759 C   0  0  0  0  0  0  0  0  0  0  0  0
    3.8295   -8.5629    0.6952 H   0  0  0  0  0  0  0  0  0  0  0  0
    2.6429   -7.7961    1.7379 H   0  0  0  0  0  0  0  0  0  0  0  0
    4.3707   -7.5649    2.0345 H   0  0  0  0  0  0  0  0  0  0  0  0
    3.0506   -5.9576    3.1645 H   0  0  0  0  0  0  0  0  0  0  0  0
    2.5693   -3.9315    4.0697 H   0  0  0  0  0  0  0  0  0  0  0  0
    1.7280   -1.8572    4.8873 H   0  0  0  0  0  0  0  0  0  0  0  0
    5.8172   -2.3187    5.0069 H   0  0  0  0  0  0  0  0  0  0  0  0
    5.2804   -0.6869    4.7704 H   0  0  0  0  0  0  0  0  0  0  0  0
    5.1080   -1.8648    3.4577 H   0  0  0  0  0  0  0  0  0  0  0  0
    2.9526    0.4124    5.7731 H   0  0  0  0  0  0  0  0  0  0  0  0
    0.8196    1.2257    5.2337 H   0  0  0  0  0  0  0  0  0  0  0  0
   -0.2822   -0.2888    3.5065 H   0  0  0  0  0  0  0  0  0  0  0  0
    1.1760   -0.5641    1.3134 H   0  0  0  0  0  0  0  0  0  0  0  0
    3.7347   -0.0312    1.6388 H   0  0  0  0  0  0  0  0  0  0  0  0
    4.3436    1.2499    3.8388 H   0  0  0  0  0  0  0  0  0  0  0  0
    0.2887    5.0255    2.9751 H   0  0  0  0  0  0  0  0  0  0  0  0
    3.8398    5.9122    3.0441 H   0  0  0  0  0  0  0  0  0  0  0  0
    2.1117    6.0223    3.2504 H   0  0  0  0  0  0  0  0  0  0  0  0
    2.7970    4.9173    2.0245 H   0  0  0  0  0  0  0  0  0  0  0  0
   -0.1938    1.5488    1.4916 H   0  0  0  0  0  0  0  0  0  0  0  0
    2.1456   -1.4718   -0.2677 H   0  0  0  0  0  0  0  0  0  0  0  0
    3.4757   -4.2016   -0.7854 H   0  0  0  0  0  0  0  0  0  0  0  0
  1  2  1  0
  1 32  1  0
  1 33  1  0
  1 34  1  0
  2  3  1  0
  3 31  2  0
  3  4  1  0
  4  5  2  0
  4 35  1  0
  5  6  1  0
  5 36  1  0
  7  6  1  6
  6 29  2  0
  7 14  1  0
  7 15  1  0
  7  8  1  0
  8  9  1  0
  8 11  1  0
  8 37  1  1
  9 10  1  0
 10 38  1  0
 10 39  1  0
 10 40  1  0
 11 16  1  0
 11 12  1  0
 11 41  1  1
 12 17  1  0
 12 13  1  0
 12 42  1  1
 13 28  1  0
 13 14  1  0
 13 43  1  1
 14 15  1  0
 14 44  1  6
 15 16  1  0
 15 45  1  6
 16 17  1  0
 16 46  1  1
 17 22  1  0
 17 18  1  6
 19 18  1  6
 19 22  1  0
 19 28  1  0
 19 20  1  0
 20 21  1  0
 20 25  1  0
 20 47  1  6
 21 22  1  0
 22 23  1  6
 23 24  1  0
 24 48  1  0
 24 49  1  0
 24 50  1  0
 25 26  2  0
 25 27  1  0
 27 28  1  0
 28 51  1  6
 29 30  1  0
 29 31  1  0
 30 52  1  0
 31 53  1  0
M  END
>  <i_m_ct_stereo_status>  (388) 
1

>  <s_m_source_file>  (388) 
/var/tmp/pbs.5076255.sched01/tmp9yj1qf5s/135tauqa2n_.sdf

>  <i_m_source_file_index>  (388) 
15

>  <i_lp_mmshare_version>  (388) 
48012

>  <i_f3d_flags>  (388) 
2

>  <s_epik_input>  (388) 
W0NIM11PYzFbY0hdW2NIXWMoYyhbT0hdKVtjSF0xKVtDQEBdKFtDQEhdMk9bQ0gzXSkoW0NAQEhdM1tDQEBIXTRbQ0BIXTJbQ0BIXTVDNDY3KVtDQEhdM1tDQEBIXTVbQ0BIXThbQ0BAXTkoTzYpW0NASF0oQyg9TylPOClPW0NAXTc5T1tDSDNd

>  <s_epik_cmdline>  (388) 
J2VwaWtfcHl0aG9uJywgJy1waHQnLCAnMi4wJywgJy1waCcsICc3LjAnLCAnLXRuJywgJzgnLCAnLW1hJywgJzIwMCcsICctaW1hZScsICc8aW5maWxlLm1hZT4nLCAnLW9tYWUnLCAnPG91dGZpbGUubWFlPic=

>  <r_lp_tautomer_probability>  (388) 
1

>  <r_epik_Ionization_Penalty>  (388) 
0.000207278

>  <r_epik_Ionization_Penalty_Charging>  (388) 
0

>  <r_epik_Ionization_Penalty_Neutral>  (388) 
0.000207278

>  <r_epik_State_Penalty>  (388) 
-0

>  <r_epik_Charging_Adjusted_Penalty>  (388) 
0

>  <i_epik_Tot_Q>  (388) 
0

>  <i_epik_Tot_abs_Q>  (388) 
0

>  <s_epik_Chemistry_Notes>  (388) 
This compound has an ester and may undergo hydrolysis at high or low pH.

>  <s_lp_Force_Field>  (388) 
OPLS3e

>  <r_lp_Energy>  (388) 
205.857

>  <b_lp_Chiralities_Consistent>  (388) 
0

>  <s_lp_Variant>  (388) 
90:0-1

>  <s_i_glide_gridfile>  (388) 
pfpi4k_grid

>  <i_i_glide_lignum>  (388) 
15

>  <i_i_glide_rotatable_bonds>  (388) 
5

>  <r_i_docking_score>  (388) 
-3.61882

>  <r_i_glide_ligand_efficiency>  (388) 
-0.116736

>  <r_i_glide_ligand_efficiency_sa>  (388) 
-0.366713

>  <r_i_glide_ligand_efficiency_ln>  (388) 
-0.816155

>  <r_i_glide_gscore>  (388) 
-3.61882

>  <r_i_glide_lipo>  (388) 
-0.138476

>  <r_i_glide_hbond>  (388) 
-0.285862

>  <r_i_glide_metal>  (388) 
-0

>  <r_i_glide_rewards>  (388) 
-0.501709

>  <r_i_glide_evdw>  (388) 
-22.7976

>  <r_i_glide_ecoul>  (388) 
-10.3238

>  <r_i_glide_erotb>  (388) 
0.109145

>  <r_i_glide_esite>  (388) 
-0.113458

>  <r_i_glide_emodel>  (388) 
-32.3775

>  <r_i_glide_energy>  (388) 
-33.1215

>  <r_i_glide_einternal>  (388) 
17.5219

>  <r_i_glide_intrahb_reward>  (388) 
-0

>  <i_i_glide_confnum>  (388) 
3

>  <i_i_glide_posenum>  (388) 
34

>  <r_i_glide_eff_state_penalty>  (388) 
0

>  <ligand_id>  (388) 
90

>  <original_smiles>  (388) 
COc1ccc(C23C(OC)C4C5C6C2C3C4C52OC34C(OC32OC)C(=O)OC64)c(O)c1

>  <smiles>  (388) 
[H]Oc1c([H])c(OC([H])([H])[H])c([H])c([H])c1C12C([H])(OC([H])([H])[H])C3([H])C4([H])C5([H])C6([H])OC(=O)C7([H])OC8(OC([H])([H])[H])C76OC84C3([H])C1([H])C52[H]

$$$$
90:0:1
     RDKit          3D

 53 61  0  0  1  0  0  0  0  0999 V2000
    4.5378   -6.2885    0.1484 C   0  0  0  0  0  0  0  0  0  0  0  0
    3.5687   -6.2217    1.1778 O   0  0  0  0  0  0  0  0  0  0  0  0
    3.2125   -4.9703    1.6421 C   0  0  0  0  0  0  0  0  0  0  0  0
    2.4914   -4.9170    2.8438 C   0  0  0  0  0  0  0  0  0  0  0  0
    2.0876   -3.6854    3.3892 C   0  0  0  0  0  0  0  0  0  0  0  0
    2.3941   -2.4612    2.7533 C   0  0  0  0  0  0  0  0  0  0  0  0
    1.9506   -1.1469    3.3950 C   0  0  2  0  0  0  0  0  0  0  0  0
    1.6522   -1.1778    4.9040 C   0  0  1  0  0  0  0  0  0  0  0  0
    2.6690   -1.8514    5.6410 O   0  0  0  0  0  0  0  0  0  0  0  0
    2.2776   -2.2138    6.9572 C   0  0  0  0  0  0  0  0  0  0  0  0
    1.6241    0.3216    5.2531 C   0  0  2  0  0  0  0  0  0  0  0  0
    0.4675    1.0767    4.5532 C   0  0  2  0  0  0  0  0  0  0  0  0
   -0.0467    0.6268    3.2037 C   0  0  2  0  0  0  0  0  0  0  0  0
    1.1684   -0.1260    2.5614 C   0  0  1  0  0  0  0  0  0  0  0  0
    2.5954    0.1958    3.0999 C   0  0  1  0  0  0  0  0  0  0  0  0
    2.5761    1.1046    4.3393 C   0  0  1  0  0  0  0  0  0  0  0  0
    1.4790    2.1647    4.2506 C   0  0  1  0  0  0  0  0  0  0  0  0
    1.7320    2.6106    2.8677 O   0  0  0  0  0  0  0  0  0  0  0  0
    0.4245    3.1725    2.9070 C   0  0  1  0  0  0  0  0  0  0  0  0
   -0.4885    4.2974    3.3456 C   0  0  2  0  0  0  0  0  0  0  0  0
   -0.2494    4.0408    4.7530 O   0  0  0  0  0  0  0  0  0  0  0  0
    1.0519    3.5894    4.3667 C   0  0  1  0  0  0  0  0  0  0  0  0
    2.1148    4.5302    4.5448 O   0  0  0  0  0  0  0  0  0  0  0  0
    2.2541    5.5695    3.5916 C   0  0  0  0  0  0  0  0  0  0  0  0
   -1.8554    3.7883    3.0164 C   0  0  0  0  0  0  0  0  0  0  0  0
   -2.8862    4.4534    2.9119 O   0  0  0  0  0  0  0  0  0  0  0  0
   -1.7761    2.4376    2.7810 O   0  0  0  0  0  0  0  0  0  0  0  0
   -0.4573    1.9583    2.4789 C   0  0  2  0  0  0  0  0  0  0  0  0
    3.0837   -2.5244    1.5141 C   0  0  0  0  0  0  0  0  0  0  0  0
    3.3700   -1.4350    0.7485 O   0  0  0  0  0  0  0  0  0  0  0  0
    3.5029   -3.7612    0.9807 C   0  0  0  0  0  0  0  0  0  0  0  0
    4.6886   -7.3329   -0.1203 H   0  0  0  0  0  0  0  0  0  0  0  0
    5.4936   -5.8771    0.4744 H   0  0  0  0  0  0  0  0  0  0  0  0
    4.2190   -5.7644   -0.7472 H   0  0  0  0  0  0  0  0  0  0  0  0
    2.2586   -5.8361    3.3631 H   0  0  0  0  0  0  0  0  0  0  0  0
    1.5424   -3.7169    4.3207 H   0  0  0  0  0  0  0  0  0  0  0  0
    0.6731   -1.6443    5.0657 H   0  0  0  0  0  0  0  0  0  0  0  0
    3.0949   -2.7518    7.4360 H   0  0  0  0  0  0  0  0  0  0  0  0
    1.4085   -2.8726    6.9454 H   0  0  0  0  0  0  0  0  0  0  0  0
    2.0460   -1.3439    7.5722 H   0  0  0  0  0  0  0  0  0  0  0  0
    1.7088    0.6086    6.3032 H   0  0  0  0  0  0  0  0  0  0  0  0
   -0.2786    1.4516    5.2516 H   0  0  0  0  0  0  0  0  0  0  0  0
   -0.8968   -0.0494    3.3060 H   0  0  0  0  0  0  0  0  0  0  0  0
    1.0558   -0.3198    1.5011 H   0  0  0  0  0  0  0  0  0  0  0  0
    3.4435    0.2958    2.4371 H   0  0  0  0  0  0  0  0  0  0  0  0
    3.5370    1.3822    4.7834 H   0  0  0  0  0  0  0  0  0  0  0  0
   -0.2550    5.2990    2.9822 H   0  0  0  0  0  0  0  0  0  0  0  0
    3.1304    6.1671    3.8372 H   0  0  0  0  0  0  0  0  0  0  0  0
    1.3986    6.2331    3.5864 H   0  0  0  0  0  0  0  0  0  0  0  0
    2.4076    5.1575    2.5961 H   0  0  0  0  0  0  0  0  0  0  0  0
   -0.3934    1.8130    1.3998 H   0  0  0  0  0  0  0  0  0  0  0  0
    2.7961   -0.6994    0.9197 H   0  0  0  0  0  0  0  0  0  0  0  0
    4.0273   -3.7414    0.0363 H   0  0  0  0  0  0  0  0  0  0  0  0
  1  2  1  0
  1 32  1  0
  1 33  1  0
  1 34  1  0
  2  3  1  0
  3 31  2  0
  3  4  1  0
  4  5  2  0
  4 35  1  0
  5  6  1  0
  5 36  1  0
  7  6  1  6
  6 29  2  0
  7 14  1  0
  7 15  1  0
  7  8  1  0
  8  9  1  0
  8 11  1  0
  8 37  1  6
  9 10  1  0
 10 38  1  0
 10 39  1  0
 10 40  1  0
 11 16  1  0
 11 12  1  0
 11 41  1  1
 12 17  1  0
 12 13  1  0
 12 42  1  1
 13 28  1  0
 13 14  1  0
 13 43  1  1
 14 15  1  0
 14 44  1  6
 15 16  1  0
 15 45  1  6
 16 17  1  0
 16 46  1  1
 17 22  1  0
 17 18  1  6
 19 18  1  6
 19 22  1  0
 19 28  1  0
 19 20  1  0
 20 21  1  0
 20 25  1  0
 20 47  1  6
 21 22  1  0
 22 23  1  6
 23 24  1  0
 24 48  1  0
 24 49  1  0
 24 50  1  0
 25 26  2  0
 25 27  1  0
 27 28  1  0
 28 51  1  6
 29 30  1  0
 29 31  1  0
 30 52  1  0
 31 53  1  0
M  END
>  <i_m_ct_stereo_status>  (389) 
1

>  <s_m_source_file>  (389) 
/var/tmp/pbs.5076255.sched01/tmp9yj1qf5s/135tauqa2n_.sdf

>  <i_m_source_file_index>  (389) 
15

>  <i_lp_mmshare_version>  (389) 
48012

>  <i_f3d_flags>  (389) 
2

>  <s_epik_input>  (389) 
W0NIM11PYzFbY0hdW2NIXWMoYyhbT0hdKVtjSF0xKVtDQEBdKFtDQEhdMk9bQ0gzXSkoW0NAQEhdM1tDQEBIXTRbQ0BIXTJbQ0BIXTVDNDY3KVtDQEhdM1tDQEBIXTVbQ0BIXThbQ0BAXTkoTzYpW0NASF0oQyg9TylPOClPW0NAXTc5T1tDSDNd

>  <s_epik_cmdline>  (389) 
J2VwaWtfcHl0aG9uJywgJy1waHQnLCAnMi4wJywgJy1waCcsICc3LjAnLCAnLXRuJywgJzgnLCAnLW1hJywgJzIwMCcsICctaW1hZScsICc8aW5maWxlLm1hZT4nLCAnLW9tYWUnLCAnPG91dGZpbGUubWFlPic=

>  <r_lp_tautomer_probability>  (389) 
1

>  <r_epik_Ionization_Penalty>  (389) 
0.000207278

>  <r_epik_Ionization_Penalty_Charging>  (389) 
0

>  <r_epik_Ionization_Penalty_Neutral>  (389) 
0.000207278

>  <r_epik_State_Penalty>  (389) 
-0

>  <r_epik_Charging_Adjusted_Penalty>  (389) 
0

>  <i_epik_Tot_Q>  (389) 
0

>  <i_epik_Tot_abs_Q>  (389) 
0

>  <s_epik_Chemistry_Notes>  (389) 
This compound has an ester and may undergo hydrolysis at high or low pH.

>  <s_lp_Force_Field>  (389) 
OPLS3e

>  <r_lp_Energy>  (389) 
205.857

>  <b_lp_Chiralities_Consistent>  (389) 
0

>  <s_lp_Variant>  (389) 
90:0-1

>  <s_i_glide_gridfile>  (389) 
pfpi4k_grid

>  <i_i_glide_lignum>  (389) 
15

>  <i_i_glide_rotatable_bonds>  (389) 
5

>  <r_i_docking_score>  (389) 
-2.59208

>  <r_i_glide_ligand_efficiency>  (389) 
-0.0836155

>  <r_i_glide_ligand_efficiency_sa>  (389) 
-0.262668

>  <r_i_glide_ligand_efficiency_ln>  (389) 
-0.584594

>  <r_i_glide_gscore>  (389) 
-2.59208

>  <r_i_glide_lipo>  (389) 
-0.0977119

>  <r_i_glide_hbond>  (389) 
-0.116702

>  <r_i_glide_metal>  (389) 
-0

>  <r_i_glide_rewards>  (389) 
-0.501709

>  <r_i_glide_evdw>  (389) 
-22.2402

>  <r_i_glide_ecoul>  (389) 
-4.9905

>  <r_i_glide_erotb>  (389) 
0.109145

>  <r_i_glide_esite>  (389) 
-0.124517

>  <r_i_glide_emodel>  (389) 
-27.9774

>  <r_i_glide_energy>  (389) 
-27.2307

>  <r_i_glide_einternal>  (389) 
9.26707

>  <r_i_glide_intrahb_reward>  (389) 
-0

>  <i_i_glide_confnum>  (389) 
3

>  <i_i_glide_posenum>  (389) 
13

>  <r_i_glide_eff_state_penalty>  (389) 
0

>  <ligand_id>  (389) 
90

>  <original_smiles>  (389) 
COc1ccc(C23C(OC)C4C5C6C2C3C4C52OC34C(OC32OC)C(=O)OC64)c(O)c1

>  <smiles>  (389) 
[H]Oc1c([H])c(OC([H])([H])[H])c([H])c([H])c1C12C([H])(OC([H])([H])[H])C3([H])C4([H])C5([H])C6([H])OC(=O)C7([H])OC8(OC([H])([H])[H])C76OC84C3([H])C1([H])C52[H]

$$$$
90:0:2
     RDKit          3D

 53 61  0  0  1  0  0  0  0  0999 V2000
   -3.6013    3.1432   10.5309 C   0  0  0  0  0  0  0  0  0  0  0  0
   -3.7115    3.2465    9.1101 O   0  0  0  0  0  0  0  0  0  0  0  0
   -2.5624    2.9693    8.3830 C   0  0  0  0  0  0  0  0  0  0  0  0
   -1.3633    2.4682    8.9582 C   0  0  0  0  0  0  0  0  0  0  0  0
   -0.2346    2.2345    8.1682 C   0  0  0  0  0  0  0  0  0  0  0  0
   -0.2343    2.4717    6.7850 C   0  0  0  0  0  0  0  0  0  0  0  0
    1.0007    2.1526    6.0006 C   0  0  2  0  0  0  0  0  0  0  0  0
    1.7243    3.3507    5.3947 C   0  0  1  0  0  0  0  0  0  0  0  0
    1.8427    4.4324    6.3123 O   0  0  0  0  0  0  0  0  0  0  0  0
    2.2536    5.6401    5.6885 C   0  0  0  0  0  0  0  0  0  0  0  0
    3.0898    2.7104    5.0753 C   0  0  2  0  0  0  0  0  0  0  0  0
    2.9931    1.5762    4.0259 C   0  0  2  0  0  0  0  0  0  0  0  0
    1.7632    0.7181    3.8891 C   0  0  2  0  0  0  0  0  0  0  0  0
    1.1261    0.7925    5.3098 C   0  0  1  0  0  0  0  0  0  0  0  0
    2.0345    1.1682    6.5101 C   0  0  1  0  0  0  0  0  0  0  0  0
    3.4402    1.6127    6.0834 C   0  0  1  0  0  0  0  0  0  0  0  0
    3.9329    0.7949    4.9035 C   0  0  1  0  0  0  0  0  0  0  0  0
    3.6256   -0.5580    5.3850 O   0  0  0  0  0  0  0  0  0  0  0  0
    3.7720   -0.9159    4.0207 C   0  0  1  0  0  0  0  0  0  0  0  0
    4.6965   -1.3679    2.9180 C   0  0  2  0  0  0  0  0  0  0  0  0
    5.2904   -0.0492    2.7818 O   0  0  0  0  0  0  0  0  0  0  0  0
    5.0489    0.1213    4.1977 C   0  0  1  0  0  0  0  0  0  0  0  0
    6.1029   -0.2425    5.0359 O   0  0  0  0  0  0  0  0  0  0  0  0
    7.0766    0.7990    5.0994 C   0  0  0  0  0  0  0  0  0  0  0  0
    3.7477   -1.5300    1.7577 C   0  0  0  0  0  0  0  0  0  0  0  0
    3.9379   -2.1126    0.6774 O   0  0  0  0  0  0  0  0  0  0  0  0
    2.5558   -0.9268    2.0907 O   0  0  0  0  0  0  0  0  0  0  0  0
    2.3401   -0.6828    3.4848 C   0  0  2  0  0  0  0  0  0  0  0  0
   -1.4296    2.9437    6.1943 C   0  0  0  0  0  0  0  0  0  0  0  0
   -1.5095    3.1754    4.8436 O   0  0  0  0  0  0  0  0  0  0  0  0
   -2.5713    3.1828    6.9870 C   0  0  0  0  0  0  0  0  0  0  0  0
   -4.5331    3.3445   11.0629 H   0  0  0  0  0  0  0  0  0  0  0  0
   -2.8558    3.8458   10.9146 H   0  0  0  0  0  0  0  0  0  0  0  0
   -3.3144    2.1405   10.8484 H   0  0  0  0  0  0  0  0  0  0  0  0
   -1.2554    2.2513   10.0086 H   0  0  0  0  0  0  0  0  0  0  0  0
    0.6357    1.8607    8.6870 H   0  0  0  0  0  0  0  0  0  0  0  0
    1.2090    3.6634    4.4826 H   0  0  0  0  0  0  0  0  0  0  0  0
    2.3160    6.4260    6.4388 H   0  0  0  0  0  0  0  0  0  0  0  0
    1.5316    5.9521    4.9346 H   0  0  0  0  0  0  0  0  0  0  0  0
    3.2317    5.5646    5.2129 H   0  0  0  0  0  0  0  0  0  0  0  0
    3.9426    3.3665    4.8569 H   0  0  0  0  0  0  0  0  0  0  0  0
    3.4727    1.8482    3.0912 H   0  0  0  0  0  0  0  0  0  0  0  0
    1.0749    1.1243    3.1472 H   0  0  0  0  0  0  0  0  0  0  0  0
    0.3491    0.0650    5.5075 H   0  0  0  0  0  0  0  0  0  0  0  0
    1.9153    0.6348    7.4414 H   0  0  0  0  0  0  0  0  0  0  0  0
    4.1620    1.8897    6.8523 H   0  0  0  0  0  0  0  0  0  0  0  0
    5.3740   -2.1806    3.1411 H   0  0  0  0  0  0  0  0  0  0  0  0
    7.9715    0.4926    5.6405 H   0  0  0  0  0  0  0  0  0  0  0  0
    6.6694    1.6787    5.6041 H   0  0  0  0  0  0  0  0  0  0  0  0
    7.4064    1.0950    4.1048 H   0  0  0  0  0  0  0  0  0  0  0  0
    1.6475   -1.4514    3.8150 H   0  0  0  0  0  0  0  0  0  0  0  0
   -0.7145    2.9468    4.3719 H   0  0  0  0  0  0  0  0  0  0  0  0
   -3.4599    3.5495    6.4874 H   0  0  0  0  0  0  0  0  0  0  0  0
  1  2  1  0
  1 32  1  0
  1 33  1  0
  1 34  1  0
  2  3  1  0
  3 31  2  0
  3  4  1  0
  4  5  2  0
  4 35  1  0
  5  6  1  0
  5 36  1  0
  7  6  1  1
  6 29  2  0
  7 14  1  0
  7 15  1  0
  7  8  1  0
  8  9  1  0
  8 11  1  0
  8 37  1  6
  9 10  1  0
 10 38  1  0
 10 39  1  0
 10 40  1  0
 11 16  1  0
 11 12  1  0
 11 41  1  6
 12 17  1  0
 12 13  1  0
 12 42  1  6
 13 28  1  0
 13 14  1  0
 13 43  1  6
 14 15  1  0
 14 44  1  1
 15 16  1  0
 15 45  1  1
 16 17  1  0
 16 46  1  1
 17 22  1  0
 17 18  1  1
 19 18  1  1
 19 22  1  0
 19 28  1  0
 19 20  1  0
 20 21  1  0
 20 25  1  0
 20 47  1  1
 21 22  1  0
 22 23  1  1
 23 24  1  0
 24 48  1  0
 24 49  1  0
 24 50  1  0
 25 26  2  0
 25 27  1  0
 27 28  1  0
 28 51  1  1
 29 30  1  0
 29 31  1  0
 30 52  1  0
 31 53  1  0
M  END
>  <i_m_ct_stereo_status>  (390) 
1

>  <s_m_source_file>  (390) 
/var/tmp/pbs.5076255.sched01/tmp9yj1qf5s/135tauqa2n_.sdf

>  <i_m_source_file_index>  (390) 
15

>  <i_lp_mmshare_version>  (390) 
48012

>  <i_f3d_flags>  (390) 
2

>  <s_epik_input>  (390) 
W0NIM11PYzFbY0hdW2NIXWMoYyhbT0hdKVtjSF0xKVtDQEBdKFtDQEhdMk9bQ0gzXSkoW0NAQEhdM1tDQEBIXTRbQ0BIXTJbQ0BIXTVDNDY3KVtDQEhdM1tDQEBIXTVbQ0BIXThbQ0BAXTkoTzYpW0NASF0oQyg9TylPOClPW0NAXTc5T1tDSDNd

>  <s_epik_cmdline>  (390) 
J2VwaWtfcHl0aG9uJywgJy1waHQnLCAnMi4wJywgJy1waCcsICc3LjAnLCAnLXRuJywgJzgnLCAnLW1hJywgJzIwMCcsICctaW1hZScsICc8aW5maWxlLm1hZT4nLCAnLW9tYWUnLCAnPG91dGZpbGUubWFlPic=

>  <r_lp_tautomer_probability>  (390) 
1

>  <r_epik_Ionization_Penalty>  (390) 
0.000207278

>  <r_epik_Ionization_Penalty_Charging>  (390) 
0

>  <r_epik_Ionization_Penalty_Neutral>  (390) 
0.000207278

>  <r_epik_State_Penalty>  (390) 
-0

>  <r_epik_Charging_Adjusted_Penalty>  (390) 
0

>  <i_epik_Tot_Q>  (390) 
0

>  <i_epik_Tot_abs_Q>  (390) 
0

>  <s_epik_Chemistry_Notes>  (390) 
This compound has an ester and may undergo hydrolysis at high or low pH.

>  <s_lp_Force_Field>  (390) 
OPLS3e

>  <r_lp_Energy>  (390) 
205.857

>  <b_lp_Chiralities_Consistent>  (390) 
0

>  <s_lp_Variant>  (390) 
90:0-1

>  <s_i_glide_gridfile>  (390) 
pfpi4k_grid

>  <i_i_glide_lignum>  (390) 
15

>  <i_i_glide_rotatable_bonds>  (390) 
5

>  <r_i_docking_score>  (390) 
-2.54589

>  <r_i_glide_ligand_efficiency>  (390) 
-0.0821255

>  <r_i_glide_ligand_efficiency_sa>  (390) 
-0.257987

>  <r_i_glide_ligand_efficiency_ln>  (390) 
-0.574176

>  <r_i_glide_gscore>  (390) 
-2.54589

>  <r_i_glide_lipo>  (390) 
-0.50962

>  <r_i_glide_hbond>  (390) 
-0.134633

>  <r_i_glide_metal>  (390) 
-0

>  <r_i_glide_rewards>  (390) 
-0.620362

>  <r_i_glide_evdw>  (390) 
-20.2176

>  <r_i_glide_ecoul>  (390) 
-2.46481

>  <r_i_glide_erotb>  (390) 
0.109145

>  <r_i_glide_esite>  (390) 
-0.00981752

>  <r_i_glide_emodel>  (390) 
-26.4581

>  <r_i_glide_energy>  (390) 
-22.6824

>  <r_i_glide_einternal>  (390) 
3.74596

>  <r_i_glide_intrahb_reward>  (390) 
-0

>  <i_i_glide_confnum>  (390) 
4

>  <i_i_glide_posenum>  (390) 
1

>  <r_i_glide_eff_state_penalty>  (390) 
0

>  <ligand_id>  (390) 
90

>  <original_smiles>  (390) 
COc1ccc(C23C(OC)C4C5C6C2C3C4C52OC34C(OC32OC)C(=O)OC64)c(O)c1

>  <smiles>  (390) 
[H]Oc1c([H])c(OC([H])([H])[H])c([H])c([H])c1C12C([H])(OC([H])([H])[H])C3([H])C4([H])C5([H])C6([H])OC(=O)C7([H])OC8(OC([H])([H])[H])C76OC84C3([H])C1([H])C52[H]

$$$$
91:0:0
     RDKit          3D

 18 22  0  0  1  0  0  0  0  0999 V2000
   -4.4946   -7.2846   -5.1679 O   0  0  0  0  0  0  0  0  0  0  0  0
   -5.4254   -6.4556   -5.1249 C   0  0  0  0  0  0  0  0  0  0  0  0
   -7.0509   -6.7254   -5.0079 C   0  0  1  0  0  0  0  0  0  0  0  0
   -6.8413   -5.6349   -4.3067 C   0  0  1  0  0  0  0  0  0  0  0  0
   -6.4642   -5.1674   -5.8089 C   0  0  2  0  0  0  0  0  0  0  0  0
   -5.3291   -4.8171   -5.2021 C   0  0  1  0  0  0  0  0  0  0  0  0
   -6.6153   -3.8651   -4.7244 C   0  0  2  0  0  0  0  0  0  0  0  0
   -7.8276   -4.6526   -4.1689 C   0  0  1  0  0  0  0  0  0  0  0  0
   -8.1675   -5.4984   -5.3852 C   0  0  1  0  0  0  0  0  0  0  0  0
   -7.4666   -4.2126   -5.9258 C   0  0  2  0  0  0  0  0  0  0  0  0
   -7.3880   -7.4777   -4.3180 H   0  0  0  0  0  0  0  0  0  0  0  0
   -6.3284   -5.6598   -3.3031 H   0  0  0  0  0  0  0  0  0  0  0  0
   -6.5280   -5.6462   -6.8413 H   0  0  0  0  0  0  0  0  0  0  0  0
   -4.6708   -4.3520   -5.9240 H   0  0  0  0  0  0  0  0  0  0  0  0
   -6.4896   -2.8086   -4.5025 H   0  0  0  0  0  0  0  0  0  0  0  0
   -8.1336   -4.6779   -3.1325 H   0  0  0  0  0  0  0  0  0  0  0  0
   -9.2365   -5.6718   -5.5022 H   0  0  0  0  0  0  0  0  0  0  0  0
   -7.4283   -3.8247   -6.9470 H   0  0  0  0  0  0  0  0  0  0  0  0
  1  2  2  0
  2  6  1  0
  2  3  1  0
  3  9  1  0
  3  4  1  0
  3 11  1  1
  4  8  1  0
  4  5  1  0
  4 12  1  1
  5 10  1  0
  5  6  1  0
  5 13  1  6
  6  7  1  0
  6 14  1  6
  7 10  1  0
  7  8  1  0
  7 15  1  1
  8  9  1  0
  8 16  1  1
  9 10  1  0
  9 17  1  6
 10 18  1  6
M  END
>  <i_m_ct_stereo_status>  (391) 
1

>  <s_m_source_file>  (391) 
/var/tmp/pbs.5076255.sched01/tmp9yj1qf5s/135tauqa2n_.sdf

>  <i_m_source_file_index>  (391) 
16

>  <i_lp_mmshare_version>  (391) 
48012

>  <i_f3d_flags>  (391) 
0

>  <s_epik_input>  (391) 
W0NAQEhdMTJbQ0BIXTNbQ0BASF00W0NASF0oQzE9TylbQ0BASF01W0NASF0zW0NASF0yW0NASF00NQ==

>  <s_epik_cmdline>  (391) 
J2VwaWtfcHl0aG9uJywgJy1waHQnLCAnMi4wJywgJy1waCcsICc3LjAnLCAnLXRuJywgJzgnLCAnLW1hJywgJzIwMCcsICctaW1hZScsICc8aW5maWxlLm1hZT4nLCAnLW9tYWUnLCAnPG91dGZpbGUubWFlPic=

>  <r_lp_tautomer_probability>  (391) 
1

>  <r_epik_Ionization_Penalty>  (391) 
2.13124e-14

>  <r_epik_Ionization_Penalty_Charging>  (391) 
0

>  <r_epik_Ionization_Penalty_Neutral>  (391) 
2.13124e-14

>  <r_epik_State_Penalty>  (391) 
-0

>  <r_epik_Charging_Adjusted_Penalty>  (391) 
0

>  <i_epik_Tot_Q>  (391) 
0

>  <i_epik_Tot_abs_Q>  (391) 
0

>  <s_lp_Force_Field>  (391) 
OPLS3e

>  <r_lp_Energy>  (391) 
362.927

>  <b_lp_Chiralities_Consistent>  (391) 
1

>  <s_lp_Variant>  (391) 
91:0-1

>  <s_i_glide_gridfile>  (391) 
pfpi4k_grid

>  <i_i_glide_lignum>  (391) 
16

>  <i_i_glide_rotatable_bonds>  (391) 
0

>  <r_i_docking_score>  (391) 
-5.15439

>  <r_i_glide_ligand_efficiency>  (391) 
-0.515439

>  <r_i_glide_ligand_efficiency_sa>  (391) 
-1.11048

>  <r_i_glide_ligand_efficiency_ln>  (391) 
-1.56071

>  <r_i_glide_gscore>  (391) 
-5.15439

>  <r_i_glide_lipo>  (391) 
-1.80493

>  <r_i_glide_hbond>  (391) 
-0.124801

>  <r_i_glide_metal>  (391) 
-0

>  <r_i_glide_rewards>  (391) 
-3.03481

>  <r_i_glide_evdw>  (391) 
-4.05832

>  <r_i_glide_ecoul>  (391) 
0.0871988

>  <r_i_glide_erotb>  (391) 
0

>  <r_i_glide_esite>  (391) 
0

>  <r_i_glide_emodel>  (391) 
-6.73276

>  <r_i_glide_energy>  (391) 
-3.97112

>  <r_i_glide_einternal>  (391) 
0

>  <r_i_glide_intrahb_reward>  (391) 
-0

>  <i_i_glide_confnum>  (391) 
2

>  <i_i_glide_posenum>  (391) 
24

>  <r_i_glide_eff_state_penalty>  (391) 
0

>  <ligand_id>  (391) 
91

>  <original_smiles>  (391) 
O=C1C2C3C4C1C1C3C2C41

>  <smiles>  (391) 
[H]C12C(=O)C3([H])C4([H])C1([H])C1([H])C2([H])C4([H])C31[H]

$$$$
91:0:1
     RDKit          3D

 18 22  0  0  1  0  0  0  0  0999 V2000
   -8.3277   -5.4526   -5.7414 O   0  0  0  0  0  0  0  0  0  0  0  0
   -7.3700   -6.2636   -5.7458 C   0  0  0  0  0  0  0  0  0  0  0  0
   -7.3835   -7.8793   -6.1381 C   0  0  1  0  0  0  0  0  0  0  0  0
   -6.2308   -7.4298   -6.5558 C   0  0  1  0  0  0  0  0  0  0  0  0
   -6.0414   -7.2092   -4.9509 C   0  0  2  0  0  0  0  0  0  0  0  0
   -5.7999   -5.9782   -5.3338 C   0  0  1  0  0  0  0  0  0  0  0  0
   -4.5992   -7.0661   -5.8276 C   0  0  2  0  0  0  0  0  0  0  0  0
   -5.1340   -8.2899   -6.6723 C   0  0  1  0  0  0  0  0  0  0  0  0
   -6.1000   -8.8730   -5.6665 C   0  0  1  0  0  0  0  0  0  0  0  0
   -4.9980   -8.1237   -4.8330 C   0  0  2  0  0  0  0  0  0  0  0  0
   -7.9281   -8.2032   -7.0291 H   0  0  0  0  0  0  0  0  0  0  0  0
   -6.1903   -6.7927   -7.4828 H   0  0  0  0  0  0  0  0  0  0  0  0
   -6.6621   -7.3675   -4.0335 H   0  0  0  0  0  0  0  0  0  0  0  0
   -5.6057   -5.4060   -4.4235 H   0  0  0  0  0  0  0  0  0  0  0  0
   -3.5460   -6.8280   -5.7344 H   0  0  0  0  0  0  0  0  0  0  0  0
   -5.0513   -8.5021   -7.7478 H   0  0  0  0  0  0  0  0  0  0  0  0
   -6.1389   -9.9706   -5.7105 H   0  0  0  0  0  0  0  0  0  0  0  0
   -4.7562   -8.2403   -3.7760 H   0  0  0  0  0  0  0  0  0  0  0  0
  1  2  2  0
  2  6  1  0
  2  3  1  0
  3  9  1  0
  3  4  1  0
  3 11  1  6
  4  8  1  0
  4  5  1  0
  4 12  1  6
  5 10  1  0
  5  6  1  0
  5 13  1  1
  6  7  1  0
  6 14  1  1
  7 10  1  0
  7  8  1  0
  7 15  1  6
  8  9  1  0
  8 16  1  6
  9 10  1  0
  9 17  1  1
 10 18  1  1
M  END
>  <i_m_ct_stereo_status>  (392) 
1

>  <s_m_source_file>  (392) 
/var/tmp/pbs.5076255.sched01/tmp9yj1qf5s/135tauqa2n_.sdf

>  <i_m_source_file_index>  (392) 
16

>  <i_lp_mmshare_version>  (392) 
48012

>  <i_f3d_flags>  (392) 
0

>  <s_epik_input>  (392) 
W0NAQEhdMTJbQ0BIXTNbQ0BASF00W0NASF0oQzE9TylbQ0BASF01W0NASF0zW0NASF0yW0NASF00NQ==

>  <s_epik_cmdline>  (392) 
J2VwaWtfcHl0aG9uJywgJy1waHQnLCAnMi4wJywgJy1waCcsICc3LjAnLCAnLXRuJywgJzgnLCAnLW1hJywgJzIwMCcsICctaW1hZScsICc8aW5maWxlLm1hZT4nLCAnLW9tYWUnLCAnPG91dGZpbGUubWFlPic=

>  <r_lp_tautomer_probability>  (392) 
1

>  <r_epik_Ionization_Penalty>  (392) 
2.13124e-14

>  <r_epik_Ionization_Penalty_Charging>  (392) 
0

>  <r_epik_Ionization_Penalty_Neutral>  (392) 
2.13124e-14

>  <r_epik_State_Penalty>  (392) 
-0

>  <r_epik_Charging_Adjusted_Penalty>  (392) 
0

>  <i_epik_Tot_Q>  (392) 
0

>  <i_epik_Tot_abs_Q>  (392) 
0

>  <s_lp_Force_Field>  (392) 
OPLS3e

>  <r_lp_Energy>  (392) 
362.927

>  <b_lp_Chiralities_Consistent>  (392) 
1

>  <s_lp_Variant>  (392) 
91:0-1

>  <s_i_glide_gridfile>  (392) 
pfpi4k_grid

>  <i_i_glide_lignum>  (392) 
16

>  <i_i_glide_rotatable_bonds>  (392) 
0

>  <r_i_docking_score>  (392) 
-4.94028

>  <r_i_glide_ligand_efficiency>  (392) 
-0.494028

>  <r_i_glide_ligand_efficiency_sa>  (392) 
-1.06435

>  <r_i_glide_ligand_efficiency_ln>  (392) 
-1.49588

>  <r_i_glide_gscore>  (392) 
-4.94028

>  <r_i_glide_lipo>  (392) 
-1.87769

>  <r_i_glide_hbond>  (392) 
0

>  <r_i_glide_metal>  (392) 
-0

>  <r_i_glide_rewards>  (392) 
-2.63592

>  <r_i_glide_evdw>  (392) 
-8.82867

>  <r_i_glide_ecoul>  (392) 
0.0984246

>  <r_i_glide_erotb>  (392) 
0

>  <r_i_glide_esite>  (392) 
0

>  <r_i_glide_emodel>  (392) 
-11.8575

>  <r_i_glide_energy>  (392) 
-8.73024

>  <r_i_glide_einternal>  (392) 
0

>  <r_i_glide_intrahb_reward>  (392) 
-0

>  <i_i_glide_confnum>  (392) 
1

>  <i_i_glide_posenum>  (392) 
2

>  <r_i_glide_eff_state_penalty>  (392) 
0

>  <ligand_id>  (392) 
91

>  <original_smiles>  (392) 
O=C1C2C3C4C1C1C3C2C41

>  <smiles>  (392) 
[H]C12C(=O)C3([H])C4([H])C1([H])C1([H])C2([H])C4([H])C31[H]

$$$$
91:0:2
     RDKit          3D

 18 22  0  0  1  0  0  0  0  0999 V2000
   -6.4885   -8.4741   -5.7650 O   0  0  0  0  0  0  0  0  0  0  0  0
   -6.6615   -7.2628   -5.5348 C   0  0  0  0  0  0  0  0  0  0  0  0
   -7.2891   -6.1204   -6.5474 C   0  0  1  0  0  0  0  0  0  0  0  0
   -7.6461   -5.7746   -5.3385 C   0  0  1  0  0  0  0  0  0  0  0  0
   -6.0228   -5.6151   -5.1436 C   0  0  2  0  0  0  0  0  0  0  0  0
   -6.2969   -6.4148   -4.1572 C   0  0  1  0  0  0  0  0  0  0  0  0
   -6.9788   -4.8766   -3.9181 C   0  0  2  0  0  0  0  0  0  0  0  0
   -7.9527   -4.4432   -5.0675 C   0  0  1  0  0  0  0  0  0  0  0  0
   -6.9850   -4.4853   -6.2313 C   0  0  1  0  0  0  0  0  0  0  0  0
   -6.0852   -4.2454   -4.9674 C   0  0  2  0  0  0  0  0  0  0  0  0
   -8.1985   -6.3589   -7.0919 H   0  0  0  0  0  0  0  0  0  0  0  0
   -8.4958   -6.3119   -4.8103 H   0  0  0  0  0  0  0  0  0  0  0  0
   -5.1001   -5.7695   -5.7833 H   0  0  0  0  0  0  0  0  0  0  0  0
   -5.3568   -6.6087   -3.6640 H   0  0  0  0  0  0  0  0  0  0  0  0
   -6.9016   -4.3523   -2.9549 H   0  0  0  0  0  0  0  0  0  0  0  0
   -9.0409   -4.3472   -5.0737 H   0  0  0  0  0  0  0  0  0  0  0  0
   -7.2239   -3.7106   -6.9739 H   0  0  0  0  0  0  0  0  0  0  0  0
   -5.0437   -3.9192   -4.8837 H   0  0  0  0  0  0  0  0  0  0  0  0
  1  2  2  0
  2  6  1  0
  2  3  1  0
  3  9  1  0
  3  4  1  0
  3 11  1  6
  4  8  1  0
  4  5  1  0
  4 12  1  1
  5 10  1  0
  5  6  1  0
  5 13  1  6
  6  7  1  0
  6 14  1  1
  7 10  1  0
  7  8  1  0
  7 15  1  1
  8  9  1  0
  8 16  1  1
  9 10  1  0
  9 17  1  6
 10 18  1  1
M  END
>  <i_m_ct_stereo_status>  (393) 
1

>  <s_m_source_file>  (393) 
/var/tmp/pbs.5076255.sched01/tmp9yj1qf5s/135tauqa2n_.sdf

>  <i_m_source_file_index>  (393) 
16

>  <i_lp_mmshare_version>  (393) 
48012

>  <i_f3d_flags>  (393) 
0

>  <s_epik_input>  (393) 
W0NAQEhdMTJbQ0BIXTNbQ0BASF00W0NASF0oQzE9TylbQ0BASF01W0NASF0zW0NASF0yW0NASF00NQ==

>  <s_epik_cmdline>  (393) 
J2VwaWtfcHl0aG9uJywgJy1waHQnLCAnMi4wJywgJy1waCcsICc3LjAnLCAnLXRuJywgJzgnLCAnLW1hJywgJzIwMCcsICctaW1hZScsICc8aW5maWxlLm1hZT4nLCAnLW9tYWUnLCAnPG91dGZpbGUubWFlPic=

>  <r_lp_tautomer_probability>  (393) 
1

>  <r_epik_Ionization_Penalty>  (393) 
2.13124e-14

>  <r_epik_Ionization_Penalty_Charging>  (393) 
0

>  <r_epik_Ionization_Penalty_Neutral>  (393) 
2.13124e-14

>  <r_epik_State_Penalty>  (393) 
-0

>  <r_epik_Charging_Adjusted_Penalty>  (393) 
0

>  <i_epik_Tot_Q>  (393) 
0

>  <i_epik_Tot_abs_Q>  (393) 
0

>  <s_lp_Force_Field>  (393) 
OPLS3e

>  <r_lp_Energy>  (393) 
362.927

>  <b_lp_Chiralities_Consistent>  (393) 
1

>  <s_lp_Variant>  (393) 
91:0-1

>  <s_i_glide_gridfile>  (393) 
pfpi4k_grid

>  <i_i_glide_lignum>  (393) 
16

>  <i_i_glide_rotatable_bonds>  (393) 
0

>  <r_i_docking_score>  (393) 
-4.81839

>  <r_i_glide_ligand_efficiency>  (393) 
-0.481839

>  <r_i_glide_ligand_efficiency_sa>  (393) 
-1.03809

>  <r_i_glide_ligand_efficiency_ln>  (393) 
-1.45898

>  <r_i_glide_gscore>  (393) 
-4.81839

>  <r_i_glide_lipo>  (393) 
-2.18553

>  <r_i_glide_hbond>  (393) 
0

>  <r_i_glide_metal>  (393) 
-0

>  <r_i_glide_rewards>  (393) 
-2.04475

>  <r_i_glide_evdw>  (393) 
-12.9369

>  <r_i_glide_ecoul>  (393) 
0.391597

>  <r_i_glide_erotb>  (393) 
0

>  <r_i_glide_esite>  (393) 
0

>  <r_i_glide_emodel>  (393) 
-15.608

>  <r_i_glide_energy>  (393) 
-12.5454

>  <r_i_glide_einternal>  (393) 
0

>  <r_i_glide_intrahb_reward>  (393) 
-0

>  <i_i_glide_confnum>  (393) 
1

>  <i_i_glide_posenum>  (393) 
16

>  <r_i_glide_eff_state_penalty>  (393) 
0

>  <ligand_id>  (393) 
91

>  <original_smiles>  (393) 
O=C1C2C3C4C1C1C3C2C41

>  <smiles>  (393) 
[H]C12C(=O)C3([H])C4([H])C1([H])C1([H])C2([H])C4([H])C31[H]

$$$$
92:0:0
     RDKit          3D

 33 35  0  0  1  0  0  0  0  0999 V2000
    2.2878   -3.5771    3.3907 O   0  0  0  0  0  0  0  0  0  0  0  0
    2.0446   -2.5140    2.4908 C   0  0  2  0  0  0  0  0  0  0  0  0
    2.9739   -2.5809    1.2787 C   0  0  0  0  0  0  0  0  0  0  0  0
    3.0233   -1.1975    0.7579 N   0  0  2  0  0  0  0  0  0  0  0  0
    4.2010   -0.9243   -0.1042 C   0  0  0  0  0  0  0  0  0  0  0  0
    4.1626   -1.6576   -1.4324 C   0  0  0  0  0  0  0  0  0  0  0  0
    4.9067   -2.8428   -1.6207 C   0  0  0  0  0  0  0  0  0  0  0  0
    4.8565   -3.4687   -2.8795 C   0  0  0  0  0  0  0  0  0  0  0  0
    4.1444   -2.9947   -3.9229 N   0  0  0  0  0  0  0  0  0  0  0  0
    3.4262   -1.8748   -3.7326 C   0  0  0  0  0  0  0  0  0  0  0  0
    3.4115   -1.1610   -2.5163 C   0  0  0  0  0  0  0  0  0  0  0  0
    2.9814   -0.3327    1.9628 C   0  0  1  0  0  0  0  0  0  0  0  0
    2.1451    0.9318    1.8070 C   0  0  0  0  0  0  0  0  0  0  0  0
    1.3928    0.9787    3.1318 C   0  0  0  0  0  0  0  0  0  0  0  0
    1.1261   -0.3934    3.3821 O   0  0  0  0  0  0  0  0  0  0  0  0
    2.3078   -1.1255    3.0866 C   0  0  1  0  0  0  0  0  0  0  0  0
    3.1778   -3.5217    3.7084 H   0  0  0  0  0  0  0  0  0  0  0  0
    1.0181   -2.5643    2.1437 H   0  0  0  0  0  0  0  0  0  0  0  0
    3.9732   -2.8604    1.6185 H   0  0  0  0  0  0  0  0  0  0  0  0
    2.6583   -3.3064    0.5259 H   0  0  0  0  0  0  0  0  0  0  0  0
    4.2559    0.1418   -0.3006 H   0  0  0  0  0  0  0  0  0  0  0  0
    5.1272   -1.1721    0.4212 H   0  0  0  0  0  0  0  0  0  0  0  0
    5.5067   -3.2673   -0.8273 H   0  0  0  0  0  0  0  0  0  0  0  0
    5.4110   -4.3796   -3.0581 H   0  0  0  0  0  0  0  0  0  0  0  0
    2.8619   -1.5223   -4.5783 H   0  0  0  0  0  0  0  0  0  0  0  0
    2.8109   -0.2669   -2.4406 H   0  0  0  0  0  0  0  0  0  0  0  0
    3.9937   -0.0896    2.2911 H   0  0  0  0  0  0  0  0  0  0  0  0
    2.7696    1.8161    1.6738 H   0  0  0  0  0  0  0  0  0  0  0  0
    1.4304    0.8668    0.9762 H   0  0  0  0  0  0  0  0  0  0  0  0
    2.0140    1.4134    3.9235 H   0  0  0  0  0  0  0  0  0  0  0  0
    0.4747    1.5599    3.0577 H   0  0  0  0  0  0  0  0  0  0  0  0
    2.9630   -1.1624    3.9565 H   0  0  0  0  0  0  0  0  0  0  0  0
    2.1510   -1.0529    0.2321 H   0  0  0  0  0  0  0  0  0  0  0  0
  1  2  1  0
  1 17  1  0
  2 16  1  0
  2  3  1  0
  2 18  1  6
  3  4  1  0
  3 19  1  0
  3 20  1  0
  4  5  1  0
  4 12  1  0
  4 33  1  6
  5  6  1  0
  5 21  1  0
  5 22  1  0
  6 11  1  0
  6  7  2  0
  7  8  1  0
  7 23  1  0
  8  9  2  0
  8 24  1  0
  9 10  1  0
 10 11  2  0
 10 25  1  0
 11 26  1  0
 12 16  1  0
 12 13  1  0
 12 27  1  1
 13 14  1  0
 13 28  1  0
 13 29  1  0
 14 15  1  0
 14 30  1  0
 14 31  1  0
 15 16  1  0
 16 32  1  1
M  CHG  1   4   1
M  END
>  <i_m_ct_stereo_status>  (394) 
1

>  <s_m_source_file>  (394) 
/var/tmp/pbs.5076255.sched01/tmp9yj1qf5s/135tauqa2n_.sdf

>  <i_m_source_file_index>  (394) 
17

>  <i_lp_mmshare_version>  (394) 
48012

>  <i_f3d_flags>  (394) 
0

>  <s_epik_input>  (394) 
W0NIMl0xW0NIMl1PW0NASF0oW0NASF0xMilbQ0BIXShbT0hdKVtDSDJdTjJbQ0gyXWMzW2NIXVtjSF1uW2NIXVtjSF0z

>  <s_epik_cmdline>  (394) 
J2VwaWtfcHl0aG9uJywgJy1waHQnLCAnMi4wJywgJy1waCcsICc3LjAnLCAnLXRuJywgJzgnLCAnLW1hJywgJzIwMCcsICctaW1hZScsICc8aW5maWxlLm1hZT4nLCAnLW9tYWUnLCAnPG91dGZpbGUubWFlPic=

>  <r_epik_Ionization_Penalty>  (394) 
0.0549143

>  <r_epik_Ionization_Penalty_Charging>  (394) 
0.0547581

>  <r_epik_Ionization_Penalty_Neutral>  (394) 
0.000156236

>  <r_epik_State_Penalty>  (394) 
0.0471265

>  <r_epik_Charging_Adjusted_Penalty>  (394) 
0.101885

>  <i_epik_Tot_Q>  (394) 
1

>  <i_epik_Tot_abs_Q>  (394) 
1

>  <s_lp_Force_Field>  (394) 
OPLS3e

>  <r_lp_Energy>  (394) 
17.6085

>  <b_lp_Chiralities_Consistent>  (394) 
1

>  <s_lp_Variant>  (394) 
92:0-1

>  <s_i_glide_gridfile>  (394) 
pfpi4k_grid

>  <i_i_glide_lignum>  (394) 
17

>  <i_i_glide_rotatable_bonds>  (394) 
3

>  <r_i_docking_score>  (394) 
-4.0748

>  <r_i_glide_ligand_efficiency>  (394) 
-0.254675

>  <r_i_glide_ligand_efficiency_sa>  (394) 
-0.641741

>  <r_i_glide_ligand_efficiency_ln>  (394) 
-1.08011

>  <r_i_glide_gscore>  (394) 
-4.0748

>  <r_i_glide_lipo>  (394) 
-0.310064

>  <r_i_glide_hbond>  (394) 
-0.29626

>  <r_i_glide_metal>  (394) 
-0

>  <r_i_glide_rewards>  (394) 
-1.90039

>  <r_i_glide_evdw>  (394) 
-21.2968

>  <r_i_glide_ecoul>  (394) 
-7.47859

>  <r_i_glide_erotb>  (394) 
0.689263

>  <r_i_glide_esite>  (394) 
-0.070721

>  <r_i_glide_emodel>  (394) 
-36.9535

>  <r_i_glide_energy>  (394) 
-28.7754

>  <r_i_glide_einternal>  (394) 
0.719861

>  <r_i_glide_intrahb_reward>  (394) 
-0

>  <i_i_glide_confnum>  (394) 
1

>  <i_i_glide_posenum>  (394) 
35

>  <r_i_glide_eff_state_penalty>  (394) 
0

>  <ligand_id>  (394) 
92

>  <original_smiles>  (394) 
OC1CN(Cc2ccncc2)C2CCOC12

>  <smiles>  (394) 
[H]OC1([H])C2([H])OC([H])([H])C([H])([H])C2([H])[N+]([H])(C([H])([H])c2c([H])c([H])nc([H])c2[H])C1([H])[H]

$$$$
92:0:1
     RDKit          3D

 33 35  0  0  1  0  0  0  0  0999 V2000
    2.1839   -4.6304    2.4815 O   0  0  0  0  0  0  0  0  0  0  0  0
    2.4195   -3.2800    2.1215 C   0  0  2  0  0  0  0  0  0  0  0  0
    3.1655   -3.2050    0.7849 C   0  0  0  0  0  0  0  0  0  0  0  0
    3.8458   -1.8925    0.7977 N   0  0  2  0  0  0  0  0  0  0  0  0
    4.9722   -1.7698   -0.1679 C   0  0  0  0  0  0  0  0  0  0  0  0
    4.5579   -1.9603   -1.6110 C   0  0  0  0  0  0  0  0  0  0  0  0
    4.5394   -3.2456   -2.1886 C   0  0  0  0  0  0  0  0  0  0  0  0
    4.1570   -3.3642   -3.5377 C   0  0  0  0  0  0  0  0  0  0  0  0
    3.8133   -2.3172   -4.3118 N   0  0  0  0  0  0  0  0  0  0  0  0
    3.8304   -1.0890   -3.7515 C   0  0  0  0  0  0  0  0  0  0  0  0
    4.2056   -0.8617   -2.4159 C   0  0  0  0  0  0  0  0  0  0  0  0
    4.2660   -1.6900    2.2085 C   0  0  1  0  0  0  0  0  0  0  0  0
    4.1224   -0.2616    2.7205 C   0  0  0  0  0  0  0  0  0  0  0  0
    3.5386   -0.4863    4.1106 C   0  0  0  0  0  0  0  0  0  0  0  0
    2.6687   -1.5885    3.9061 O   0  0  0  0  0  0  0  0  0  0  0  0
    3.3453   -2.5352    3.0930 C   0  0  1  0  0  0  0  0  0  0  0  0
    3.0107   -5.0782    2.6020 H   0  0  0  0  0  0  0  0  0  0  0  0
    1.4681   -2.7484    2.0372 H   0  0  0  0  0  0  0  0  0  0  0  0
    3.9306   -3.9852    0.7531 H   0  0  0  0  0  0  0  0  0  0  0  0
    2.5080   -3.3317   -0.0794 H   0  0  0  0  0  0  0  0  0  0  0  0
    5.4291   -0.7835   -0.0467 H   0  0  0  0  0  0  0  0  0  0  0  0
    5.7548   -2.4956    0.0740 H   0  0  0  0  0  0  0  0  0  0  0  0
    4.8031   -4.1276   -1.6274 H   0  0  0  0  0  0  0  0  0  0  0  0
    4.1304   -4.3361   -4.0119 H   0  0  0  0  0  0  0  0  0  0  0  0
    3.5604   -0.2702   -4.4004 H   0  0  0  0  0  0  0  0  0  0  0  0
    4.2157    0.1462   -2.0281 H   0  0  0  0  0  0  0  0  0  0  0  0
    5.2854   -2.0482    2.3534 H   0  0  0  0  0  0  0  0  0  0  0  0
    5.0860    0.2525    2.7672 H   0  0  0  0  0  0  0  0  0  0  0  0
    3.4300    0.3398    2.1181 H   0  0  0  0  0  0  0  0  0  0  0  0
    4.3230   -0.7344    4.8328 H   0  0  0  0  0  0  0  0  0  0  0  0
    2.9981    0.3849    4.4753 H   0  0  0  0  0  0  0  0  0  0  0  0
    3.9427   -3.2067    3.7070 H   0  0  0  0  0  0  0  0  0  0  0  0
    3.1226   -1.2177    0.5683 H   0  0  0  0  0  0  0  0  0  0  0  0
  1  2  1  0
  1 17  1  0
  2 16  1  0
  2  3  1  0
  2 18  1  6
  3  4  1  0
  3 19  1  0
  3 20  1  0
  4  5  1  0
  4 12  1  0
  4 33  1  6
  5  6  1  0
  5 21  1  0
  5 22  1  0
  6 11  1  0
  6  7  2  0
  7  8  1  0
  7 23  1  0
  8  9  2  0
  8 24  1  0
  9 10  1  0
 10 11  2  0
 10 25  1  0
 11 26  1  0
 12 16  1  0
 12 13  1  0
 12 27  1  6
 13 14  1  0
 13 28  1  0
 13 29  1  0
 14 15  1  0
 14 30  1  0
 14 31  1  0
 15 16  1  0
 16 32  1  1
M  CHG  1   4   1
M  END
>  <i_m_ct_stereo_status>  (395) 
1

>  <s_m_source_file>  (395) 
/var/tmp/pbs.5076255.sched01/tmp9yj1qf5s/135tauqa2n_.sdf

>  <i_m_source_file_index>  (395) 
17

>  <i_lp_mmshare_version>  (395) 
48012

>  <i_f3d_flags>  (395) 
0

>  <s_epik_input>  (395) 
W0NIMl0xW0NIMl1PW0NASF0oW0NASF0xMilbQ0BIXShbT0hdKVtDSDJdTjJbQ0gyXWMzW2NIXVtjSF1uW2NIXVtjSF0z

>  <s_epik_cmdline>  (395) 
J2VwaWtfcHl0aG9uJywgJy1waHQnLCAnMi4wJywgJy1waCcsICc3LjAnLCAnLXRuJywgJzgnLCAnLW1hJywgJzIwMCcsICctaW1hZScsICc8aW5maWxlLm1hZT4nLCAnLW9tYWUnLCAnPG91dGZpbGUubWFlPic=

>  <r_epik_Ionization_Penalty>  (395) 
0.0549143

>  <r_epik_Ionization_Penalty_Charging>  (395) 
0.0547581

>  <r_epik_Ionization_Penalty_Neutral>  (395) 
0.000156236

>  <r_epik_State_Penalty>  (395) 
0.0471265

>  <r_epik_Charging_Adjusted_Penalty>  (395) 
0.101885

>  <i_epik_Tot_Q>  (395) 
1

>  <i_epik_Tot_abs_Q>  (395) 
1

>  <s_lp_Force_Field>  (395) 
OPLS3e

>  <r_lp_Energy>  (395) 
17.6085

>  <b_lp_Chiralities_Consistent>  (395) 
1

>  <s_lp_Variant>  (395) 
92:0-1

>  <s_i_glide_gridfile>  (395) 
pfpi4k_grid

>  <i_i_glide_lignum>  (395) 
17

>  <i_i_glide_rotatable_bonds>  (395) 
3

>  <r_i_docking_score>  (395) 
-3.93259

>  <r_i_glide_ligand_efficiency>  (395) 
-0.245787

>  <r_i_glide_ligand_efficiency_sa>  (395) 
-0.619344

>  <r_i_glide_ligand_efficiency_ln>  (395) 
-1.04241

>  <r_i_glide_gscore>  (395) 
-3.93259

>  <r_i_glide_lipo>  (395) 
-0.457679

>  <r_i_glide_hbond>  (395) 
-0.32

>  <r_i_glide_metal>  (395) 
-0

>  <r_i_glide_rewards>  (395) 
-1.90039

>  <r_i_glide_evdw>  (395) 
-19.7006

>  <r_i_glide_ecoul>  (395) 
-6.2437

>  <r_i_glide_erotb>  (395) 
0.689263

>  <r_i_glide_esite>  (395) 
-0.0221948

>  <r_i_glide_emodel>  (395) 
-33.8982

>  <r_i_glide_energy>  (395) 
-25.9443

>  <r_i_glide_einternal>  (395) 
0.54265

>  <r_i_glide_intrahb_reward>  (395) 
-0

>  <i_i_glide_confnum>  (395) 
1

>  <i_i_glide_posenum>  (395) 
38

>  <r_i_glide_eff_state_penalty>  (395) 
0

>  <ligand_id>  (395) 
92

>  <original_smiles>  (395) 
OC1CN(Cc2ccncc2)C2CCOC12

>  <smiles>  (395) 
[H]OC1([H])C2([H])OC([H])([H])C([H])([H])C2([H])[N+]([H])(C([H])([H])c2c([H])c([H])nc([H])c2[H])C1([H])[H]

$$$$
92:0:2
     RDKit          3D

 33 35  0  0  1  0  0  0  0  0999 V2000
    4.6981   -0.0690    0.8405 O   0  0  0  0  0  0  0  0  0  0  0  0
    3.9574   -0.9878    0.0601 C   0  0  2  0  0  0  0  0  0  0  0  0
    3.7706   -2.3017    0.8096 C   0  0  0  0  0  0  0  0  0  0  0  0
    3.5909   -3.3084   -0.2505 N   0  0  2  0  0  0  0  0  0  0  0  0
    3.8048   -4.7122    0.1911 C   0  0  0  0  0  0  0  0  0  0  0  0
    2.6719   -5.2479    1.0516 C   0  0  0  0  0  0  0  0  0  0  0  0
    1.6409   -6.0289    0.4853 C   0  0  0  0  0  0  0  0  0  0  0  0
    0.6569   -6.5837    1.3413 C   0  0  0  0  0  0  0  0  0  0  0  0
    0.5911   -6.2991    2.6556 N   0  0  0  0  0  0  0  0  0  0  0  0
    1.5780   -5.5559    3.1965 C   0  0  0  0  0  0  0  0  0  0  0  0
    2.6418   -5.0069    2.4365 C   0  0  0  0  0  0  0  0  0  0  0  0
    4.4831   -2.9031   -1.3570 C   0  0  1  0  0  0  0  0  0  0  0  0
    3.8831   -3.0524   -2.7465 C   0  0  0  0  0  0  0  0  0  0  0  0
    3.3252   -1.6713   -3.0389 C   0  0  0  0  0  0  0  0  0  0  0  0
    4.2228   -0.7989   -2.3813 O   0  0  0  0  0  0  0  0  0  0  0  0
    4.7189   -1.4051   -1.1996 C   0  0  1  0  0  0  0  0  0  0  0  0
    4.8246    0.7242    0.3356 H   0  0  0  0  0  0  0  0  0  0  0  0
    2.9722   -0.5941   -0.1829 H   0  0  0  0  0  0  0  0  0  0  0  0
    4.6826   -2.5366    1.3646 H   0  0  0  0  0  0  0  0  0  0  0  0
    2.9436   -2.2707    1.5210 H   0  0  0  0  0  0  0  0  0  0  0  0
    3.9073   -5.3534   -0.6818 H   0  0  0  0  0  0  0  0  0  0  0  0
    4.7480   -4.8058    0.7332 H   0  0  0  0  0  0  0  0  0  0  0  0
    1.6244   -6.2460   -0.5691 H   0  0  0  0  0  0  0  0  0  0  0  0
   -0.1482   -7.1794    0.9380 H   0  0  0  0  0  0  0  0  0  0  0  0
    1.5297   -5.3857    4.2605 H   0  0  0  0  0  0  0  0  0  0  0  0
    3.4117   -4.4316    2.9298 H   0  0  0  0  0  0  0  0  0  0  0  0
    5.4309   -3.4366   -1.2785 H   0  0  0  0  0  0  0  0  0  0  0  0
    4.6877   -3.2645   -3.4497 H   0  0  0  0  0  0  0  0  0  0  0  0
    3.1411   -3.8481   -2.8476 H   0  0  0  0  0  0  0  0  0  0  0  0
    3.2874   -1.4575   -4.1020 H   0  0  0  0  0  0  0  0  0  0  0  0
    2.3315   -1.5573   -2.6214 H   0  0  0  0  0  0  0  0  0  0  0  0
    5.7803   -1.1976   -1.1135 H   0  0  0  0  0  0  0  0  0  0  0  0
    2.6366   -3.1979   -0.5828 H   0  0  0  0  0  0  0  0  0  0  0  0
  1  2  1  0
  1 17  1  0
  2 16  1  0
  2  3  1  0
  2 18  1  6
  3  4  1  0
  3 19  1  0
  3 20  1  0
  4  5  1  0
  4 12  1  0
  4 33  1  6
  5  6  1  0
  5 21  1  0
  5 22  1  0
  6 11  1  0
  6  7  2  0
  7  8  1  0
  7 23  1  0
  8  9  2  0
  8 24  1  0
  9 10  1  0
 10 11  2  0
 10 25  1  0
 11 26  1  0
 12 16  1  0
 12 13  1  0
 12 27  1  6
 13 14  1  0
 13 28  1  0
 13 29  1  0
 14 15  1  0
 14 30  1  0
 14 31  1  0
 15 16  1  0
 16 32  1  1
M  CHG  1   4   1
M  END
>  <i_m_ct_stereo_status>  (396) 
1

>  <s_m_source_file>  (396) 
/var/tmp/pbs.5076255.sched01/tmp9yj1qf5s/135tauqa2n_.sdf

>  <i_m_source_file_index>  (396) 
17

>  <i_lp_mmshare_version>  (396) 
48012

>  <i_f3d_flags>  (396) 
0

>  <s_epik_input>  (396) 
W0NIMl0xW0NIMl1PW0NASF0oW0NASF0xMilbQ0BIXShbT0hdKVtDSDJdTjJbQ0gyXWMzW2NIXVtjSF1uW2NIXVtjSF0z

>  <s_epik_cmdline>  (396) 
J2VwaWtfcHl0aG9uJywgJy1waHQnLCAnMi4wJywgJy1waCcsICc3LjAnLCAnLXRuJywgJzgnLCAnLW1hJywgJzIwMCcsICctaW1hZScsICc8aW5maWxlLm1hZT4nLCAnLW9tYWUnLCAnPG91dGZpbGUubWFlPic=

>  <r_epik_Ionization_Penalty>  (396) 
0.0549143

>  <r_epik_Ionization_Penalty_Charging>  (396) 
0.0547581

>  <r_epik_Ionization_Penalty_Neutral>  (396) 
0.000156236

>  <r_epik_State_Penalty>  (396) 
0.0471265

>  <r_epik_Charging_Adjusted_Penalty>  (396) 
0.101885

>  <i_epik_Tot_Q>  (396) 
1

>  <i_epik_Tot_abs_Q>  (396) 
1

>  <s_lp_Force_Field>  (396) 
OPLS3e

>  <r_lp_Energy>  (396) 
17.6085

>  <b_lp_Chiralities_Consistent>  (396) 
1

>  <s_lp_Variant>  (396) 
92:0-1

>  <s_i_glide_gridfile>  (396) 
pfpi4k_grid

>  <i_i_glide_lignum>  (396) 
17

>  <i_i_glide_rotatable_bonds>  (396) 
3

>  <r_i_docking_score>  (396) 
-3.17912

>  <r_i_glide_ligand_efficiency>  (396) 
-0.198695

>  <r_i_glide_ligand_efficiency_sa>  (396) 
-0.50068

>  <r_i_glide_ligand_efficiency_ln>  (396) 
-0.84269

>  <r_i_glide_gscore>  (396) 
-3.17912

>  <r_i_glide_lipo>  (396) 
0

>  <r_i_glide_hbond>  (396) 
-0.027772

>  <r_i_glide_metal>  (396) 
-0

>  <r_i_glide_rewards>  (396) 
-1.90039

>  <r_i_glide_evdw>  (396) 
-20.1881

>  <r_i_glide_ecoul>  (396) 
-6.20544

>  <r_i_glide_erotb>  (396) 
0.689263

>  <r_i_glide_esite>  (396) 
0

>  <r_i_glide_emodel>  (396) 
-32.4932

>  <r_i_glide_energy>  (396) 
-26.3935

>  <r_i_glide_einternal>  (396) 
0.823086

>  <r_i_glide_intrahb_reward>  (396) 
-0

>  <i_i_glide_confnum>  (396) 
5

>  <i_i_glide_posenum>  (396) 
10

>  <r_i_glide_eff_state_penalty>  (396) 
0

>  <ligand_id>  (396) 
92

>  <original_smiles>  (396) 
OC1CN(Cc2ccncc2)C2CCOC12

>  <smiles>  (396) 
[H]OC1([H])C2([H])OC([H])([H])C([H])([H])C2([H])[N+]([H])(C([H])([H])c2c([H])c([H])nc([H])c2[H])C1([H])[H]

$$$$
92:1:0
     RDKit          3D

 32 34  0  0  1  0  0  0  0  0999 V2000
    1.6606   -1.1966    1.6843 O   0  0  0  0  0  0  0  0  0  0  0  0
    2.8086   -2.0235    1.7576 C   0  0  2  0  0  0  0  0  0  0  0  0
    3.9466   -1.4154    0.9328 C   0  0  0  0  0  0  0  0  0  0  0  0
    4.8184   -2.5254    0.5987 N   0  0  0  0  0  0  0  0  0  0  0  0
    5.7811   -2.2436   -0.4692 C   0  0  0  0  0  0  0  0  0  0  0  0
    5.1798   -2.2082   -1.8646 C   0  0  0  0  0  0  0  0  0  0  0  0
    4.5928   -1.0323   -2.3717 C   0  0  0  0  0  0  0  0  0  0  0  0
    3.9107   -1.1033   -3.6017 C   0  0  0  0  0  0  0  0  0  0  0  0
    3.8088   -2.2361   -4.3170 N   0  0  0  0  0  0  0  0  0  0  0  0
    4.3716   -3.3619   -3.8326 C   0  0  0  0  0  0  0  0  0  0  0  0
    5.0860   -3.3909   -2.6246 C   0  0  0  0  0  0  0  0  0  0  0  0
    3.9169   -3.6569    0.3620 C   0  0  1  0  0  0  0  0  0  0  0  0
    4.4022   -5.0239    0.8102 C   0  0  0  0  0  0  0  0  0  0  0  0
    3.1198   -5.6162    1.3840 C   0  0  0  0  0  0  0  0  0  0  0  0
    2.4840   -4.4984    1.9805 O   0  0  0  0  0  0  0  0  0  0  0  0
    2.6210   -3.3957    1.0999 C   0  0  1  0  0  0  0  0  0  0  0  0
    1.4181   -1.0528    0.7504 H   0  0  0  0  0  0  0  0  0  0  0  0
    3.1283   -2.1348    2.7993 H   0  0  0  0  0  0  0  0  0  0  0  0
    3.5365   -0.9655    0.0316 H   0  0  0  0  0  0  0  0  0  0  0  0
    4.4915   -0.6459    1.4789 H   0  0  0  0  0  0  0  0  0  0  0  0
    6.2688   -1.2829   -0.2799 H   0  0  0  0  0  0  0  0  0  0  0  0
    6.5767   -2.9923   -0.4554 H   0  0  0  0  0  0  0  0  0  0  0  0
    4.6139   -0.1094   -1.8155 H   0  0  0  0  0  0  0  0  0  0  0  0
    3.4333   -0.2256   -4.0142 H   0  0  0  0  0  0  0  0  0  0  0  0
    4.2395   -4.2617   -4.4166 H   0  0  0  0  0  0  0  0  0  0  0  0
    5.4681   -4.3310   -2.2521 H   0  0  0  0  0  0  0  0  0  0  0  0
    3.5897   -3.7225   -0.6641 H   0  0  0  0  0  0  0  0  0  0  0  0
    4.7927   -5.6196   -0.0222 H   0  0  0  0  0  0  0  0  0  0  0  0
    5.1729   -4.9574    1.5859 H   0  0  0  0  0  0  0  0  0  0  0  0
    2.4975   -6.0459    0.5984 H   0  0  0  0  0  0  0  0  0  0  0  0
    3.3243   -6.3832    2.1235 H   0  0  0  0  0  0  0  0  0  0  0  0
    1.8202   -3.3854    0.3653 H   0  0  0  0  0  0  0  0  0  0  0  0
  1  2  1  0
  1 17  1  0
  2 16  1  0
  2  3  1  0
  2 18  1  1
  3  4  1  0
  3 19  1  0
  3 20  1  0
  4  5  1  0
  4 12  1  0
  5  6  1  0
  5 21  1  0
  5 22  1  0
  6 11  1  0
  6  7  2  0
  7  8  1  0
  7 23  1  0
  8  9  2  0
  8 24  1  0
  9 10  1  0
 10 11  2  0
 10 25  1  0
 11 26  1  0
 12 16  1  0
 12 13  1  0
 12 27  1  6
 13 14  1  0
 13 28  1  0
 13 29  1  0
 14 15  1  0
 14 30  1  0
 14 31  1  0
 15 16  1  0
 16 32  1  6
M  END
>  <i_m_ct_stereo_status>  (397) 
1

>  <s_m_source_file>  (397) 
/var/tmp/pbs.5076255.sched01/tmp9yj1qf5s/135tauqa2n_.sdf

>  <i_m_source_file_index>  (397) 
18

>  <i_lp_mmshare_version>  (397) 
48012

>  <i_f3d_flags>  (397) 
0

>  <s_epik_input>  (397) 
W0NIMl0xW0NIMl1PW0NASF0oW0NASF0xMilbQ0BIXShbT0hdKVtDSDJdTjJbQ0gyXWMzW2NIXVtjSF1uW2NIXVtjSF0z

>  <s_epik_cmdline>  (397) 
J2VwaWtfcHl0aG9uJywgJy1waHQnLCAnMi4wJywgJy1waCcsICc3LjAnLCAnLXRuJywgJzgnLCAnLW1hJywgJzIwMCcsICctaW1hZScsICc8aW5maWxlLm1hZT4nLCAnLW9tYWUnLCAnPG91dGZpbGUubWFlPic=

>  <r_epik_Ionization_Penalty>  (397) 
1.44572

>  <r_epik_Ionization_Penalty_Charging>  (397) 
0

>  <r_epik_Ionization_Penalty_Neutral>  (397) 
1.44572

>  <r_epik_State_Penalty>  (397) 
1.52328

>  <r_epik_Charging_Adjusted_Penalty>  (397) 
1.52328

>  <i_epik_Tot_Q>  (397) 
0

>  <i_epik_Tot_abs_Q>  (397) 
0

>  <s_lp_Force_Field>  (397) 
OPLS3e

>  <r_lp_Energy>  (397) 
21.1568

>  <b_lp_Chiralities_Consistent>  (397) 
1

>  <s_lp_Variant>  (397) 
92:0-2

>  <s_i_glide_gridfile>  (397) 
pfpi4k_grid

>  <i_i_glide_lignum>  (397) 
18

>  <i_i_glide_rotatable_bonds>  (397) 
3

>  <r_i_docking_score>  (397) 
-4.18109

>  <r_i_glide_ligand_efficiency>  (397) 
-0.261318

>  <r_i_glide_ligand_efficiency_sa>  (397) 
-0.65848

>  <r_i_glide_ligand_efficiency_ln>  (397) 
-1.10828

>  <r_i_glide_gscore>  (397) 
-4.18109

>  <r_i_glide_lipo>  (397) 
-0.639957

>  <r_i_glide_hbond>  (397) 
-0.304

>  <r_i_glide_metal>  (397) 
-0

>  <r_i_glide_rewards>  (397) 
-1.90727

>  <r_i_glide_evdw>  (397) 
-21.0129

>  <r_i_glide_ecoul>  (397) 
-6.49211

>  <r_i_glide_erotb>  (397) 
0.694596

>  <r_i_glide_esite>  (397) 
0

>  <r_i_glide_emodel>  (397) 
-31.7143

>  <r_i_glide_energy>  (397) 
-27.505

>  <r_i_glide_einternal>  (397) 
6.77591

>  <r_i_glide_intrahb_reward>  (397) 
-0

>  <i_i_glide_confnum>  (397) 
5

>  <i_i_glide_posenum>  (397) 
20

>  <r_i_glide_eff_state_penalty>  (397) 
0

>  <ligand_id>  (397) 
92

>  <original_smiles>  (397) 
OC1CN(Cc2ccncc2)C2CCOC12

>  <smiles>  (397) 
[H]OC1([H])C([H])([H])N(C([H])([H])c2c([H])c([H])nc([H])c2[H])C2([H])C([H])([H])C([H])([H])OC12[H]

$$$$
92:1:1
     RDKit          3D

 32 34  0  0  1  0  0  0  0  0999 V2000
   -0.3570    4.6245    3.2913 O   0  0  0  0  0  0  0  0  0  0  0  0
   -0.1766    3.3601    3.9148 C   0  0  2  0  0  0  0  0  0  0  0  0
    0.7603    2.4398    3.1206 C   0  0  0  0  0  0  0  0  0  0  0  0
    0.4449    1.0913    3.5690 N   0  0  0  0  0  0  0  0  0  0  0  0
    0.9478    0.0590    2.6684 C   0  0  0  0  0  0  0  0  0  0  0  0
    2.4646   -0.0495    2.6379 C   0  0  0  0  0  0  0  0  0  0  0  0
    3.2188    0.0389    3.8256 C   0  0  0  0  0  0  0  0  0  0  0  0
    4.6176   -0.0672    3.7453 C   0  0  0  0  0  0  0  0  0  0  0  0
    5.2829   -0.2621    2.5873 N   0  0  0  0  0  0  0  0  0  0  0  0
    4.5529   -0.3599    1.4533 C   0  0  0  0  0  0  0  0  0  0  0  0
    3.1497   -0.2637    1.4247 C   0  0  0  0  0  0  0  0  0  0  0  0
   -1.0116    1.0830    3.7077 C   0  0  1  0  0  0  0  0  0  0  0  0
   -1.5276    0.2888    4.9015 C   0  0  0  0  0  0  0  0  0  0  0  0
   -1.6844    1.3578    5.9808 C   0  0  0  0  0  0  0  0  0  0  0  0
   -2.0756    2.5230    5.2727 O   0  0  0  0  0  0  0  0  0  0  0  0
   -1.4621    2.5229    3.9828 C   0  0  1  0  0  0  0  0  0  0  0  0
   -0.1873    4.5403    2.3347 H   0  0  0  0  0  0  0  0  0  0  0  0
    0.2324    3.5088    4.9175 H   0  0  0  0  0  0  0  0  0  0  0  0
    0.5616    2.5316    2.0536 H   0  0  0  0  0  0  0  0  0  0  0  0
    1.8102    2.6794    3.2907 H   0  0  0  0  0  0  0  0  0  0  0  0
    0.5639   -0.9118    2.9816 H   0  0  0  0  0  0  0  0  0  0  0  0
    0.5796    0.2220    1.6542 H   0  0  0  0  0  0  0  0  0  0  0  0
    2.7334    0.1940    4.7785 H   0  0  0  0  0  0  0  0  0  0  0  0
    5.2240    0.0107    4.6369 H   0  0  0  0  0  0  0  0  0  0  0  0
    5.1143   -0.5147    0.5432 H   0  0  0  0  0  0  0  0  0  0  0  0
    2.6129   -0.3548    0.4889 H   0  0  0  0  0  0  0  0  0  0  0  0
   -1.4685    0.7308    2.7836 H   0  0  0  0  0  0  0  0  0  0  0  0
   -2.5151   -0.1212    4.6619 H   0  0  0  0  0  0  0  0  0  0  0  0
   -0.8820   -0.5395    5.2118 H   0  0  0  0  0  0  0  0  0  0  0  0
   -2.4321    1.0848    6.7235 H   0  0  0  0  0  0  0  0  0  0  0  0
   -0.7359    1.5373    6.4874 H   0  0  0  0  0  0  0  0  0  0  0  0
   -2.1845    2.8375    3.2320 H   0  0  0  0  0  0  0  0  0  0  0  0
  1  2  1  0
  1 17  1  0
  2 16  1  0
  2  3  1  0
  2 18  1  1
  3  4  1  0
  3 19  1  0
  3 20  1  0
  4  5  1  0
  4 12  1  0
  5  6  1  0
  5 21  1  0
  5 22  1  0
  6 11  1  0
  6  7  2  0
  7  8  1  0
  7 23  1  0
  8  9  2  0
  8 24  1  0
  9 10  1  0
 10 11  2  0
 10 25  1  0
 11 26  1  0
 12 16  1  0
 12 13  1  0
 12 27  1  6
 13 14  1  0
 13 28  1  0
 13 29  1  0
 14 15  1  0
 14 30  1  0
 14 31  1  0
 15 16  1  0
 16 32  1  6
M  END
>  <i_m_ct_stereo_status>  (398) 
1

>  <s_m_source_file>  (398) 
/var/tmp/pbs.5076255.sched01/tmp9yj1qf5s/135tauqa2n_.sdf

>  <i_m_source_file_index>  (398) 
18

>  <i_lp_mmshare_version>  (398) 
48012

>  <i_f3d_flags>  (398) 
0

>  <s_epik_input>  (398) 
W0NIMl0xW0NIMl1PW0NASF0oW0NASF0xMilbQ0BIXShbT0hdKVtDSDJdTjJbQ0gyXWMzW2NIXVtjSF1uW2NIXVtjSF0z

>  <s_epik_cmdline>  (398) 
J2VwaWtfcHl0aG9uJywgJy1waHQnLCAnMi4wJywgJy1waCcsICc3LjAnLCAnLXRuJywgJzgnLCAnLW1hJywgJzIwMCcsICctaW1hZScsICc8aW5maWxlLm1hZT4nLCAnLW9tYWUnLCAnPG91dGZpbGUubWFlPic=

>  <r_epik_Ionization_Penalty>  (398) 
1.44572

>  <r_epik_Ionization_Penalty_Charging>  (398) 
0

>  <r_epik_Ionization_Penalty_Neutral>  (398) 
1.44572

>  <r_epik_State_Penalty>  (398) 
1.52328

>  <r_epik_Charging_Adjusted_Penalty>  (398) 
1.52328

>  <i_epik_Tot_Q>  (398) 
0

>  <i_epik_Tot_abs_Q>  (398) 
0

>  <s_lp_Force_Field>  (398) 
OPLS3e

>  <r_lp_Energy>  (398) 
21.1568

>  <b_lp_Chiralities_Consistent>  (398) 
1

>  <s_lp_Variant>  (398) 
92:0-2

>  <s_i_glide_gridfile>  (398) 
pfpi4k_grid

>  <i_i_glide_lignum>  (398) 
18

>  <i_i_glide_rotatable_bonds>  (398) 
3

>  <r_i_docking_score>  (398) 
-3.75063

>  <r_i_glide_ligand_efficiency>  (398) 
-0.234414

>  <r_i_glide_ligand_efficiency_sa>  (398) 
-0.590687

>  <r_i_glide_ligand_efficiency_ln>  (398) 
-0.994179

>  <r_i_glide_gscore>  (398) 
-3.75063

>  <r_i_glide_lipo>  (398) 
-0.194039

>  <r_i_glide_hbond>  (398) 
-0.0951916

>  <r_i_glide_metal>  (398) 
-0

>  <r_i_glide_rewards>  (398) 
-1.90727

>  <r_i_glide_evdw>  (398) 
-17.553

>  <r_i_glide_ecoul>  (398) 
-9.14052

>  <r_i_glide_erotb>  (398) 
0.694596

>  <r_i_glide_esite>  (398) 
0

>  <r_i_glide_emodel>  (398) 
-33.1756

>  <r_i_glide_energy>  (398) 
-26.6935

>  <r_i_glide_einternal>  (398) 
1.09017

>  <r_i_glide_intrahb_reward>  (398) 
-0

>  <i_i_glide_confnum>  (398) 
4

>  <i_i_glide_posenum>  (398) 
26

>  <r_i_glide_eff_state_penalty>  (398) 
0

>  <ligand_id>  (398) 
92

>  <original_smiles>  (398) 
OC1CN(Cc2ccncc2)C2CCOC12

>  <smiles>  (398) 
[H]OC1([H])C([H])([H])N(C([H])([H])c2c([H])c([H])nc([H])c2[H])C2([H])C([H])([H])C([H])([H])OC12[H]

$$$$
92:1:2
     RDKit          3D

 32 34  0  0  1  0  0  0  0  0999 V2000
    1.4342   -5.8678    0.9767 O   0  0  0  0  0  0  0  0  0  0  0  0
    2.3679   -4.8421    1.2813 C   0  0  2  0  0  0  0  0  0  0  0  0
    3.0374   -4.3157    0.0125 C   0  0  0  0  0  0  0  0  0  0  0  0
    4.2589   -3.6690    0.4559 N   0  0  0  0  0  0  0  0  0  0  0  0
    5.2210   -3.4511   -0.6245 C   0  0  0  0  0  0  0  0  0  0  0  0
    4.6981   -2.5892   -1.7596 C   0  0  0  0  0  0  0  0  0  0  0  0
    4.7460   -1.1834   -1.6924 C   0  0  0  0  0  0  0  0  0  0  0  0
    4.2127   -0.4475   -2.7664 C   0  0  0  0  0  0  0  0  0  0  0  0
    3.6811   -1.0096   -3.8719 N   0  0  0  0  0  0  0  0  0  0  0  0
    3.6164   -2.3542   -3.9150 C   0  0  0  0  0  0  0  0  0  0  0  0
    4.1299   -3.1842   -2.9029 C   0  0  0  0  0  0  0  0  0  0  0  0
    4.7691   -4.5446    1.5081 C   0  0  1  0  0  0  0  0  0  0  0  0
    5.4010   -3.8273    2.6926 C   0  0  0  0  0  0  0  0  0  0  0  0
    4.2478   -3.7277    3.6868 C   0  0  0  0  0  0  0  0  0  0  0  0
    3.4997   -4.9141    3.4855 O   0  0  0  0  0  0  0  0  0  0  0  0
    3.5747   -5.2988    2.1169 C   0  0  1  0  0  0  0  0  0  0  0  0
    1.9132   -6.6301    0.6833 H   0  0  0  0  0  0  0  0  0  0  0  0
    1.8522   -4.0206    1.7843 H   0  0  0  0  0  0  0  0  0  0  0  0
    3.2721   -5.1402   -0.6633 H   0  0  0  0  0  0  0  0  0  0  0  0
    2.3893   -3.6187   -0.5191 H   0  0  0  0  0  0  0  0  0  0  0  0
    6.1058   -2.9652   -0.2129 H   0  0  0  0  0  0  0  0  0  0  0  0
    5.5566   -4.4028   -1.0396 H   0  0  0  0  0  0  0  0  0  0  0  0
    5.1555   -0.6797   -0.8283 H   0  0  0  0  0  0  0  0  0  0  0  0
    4.2274    0.6320   -2.7490 H   0  0  0  0  0  0  0  0  0  0  0  0
    3.1531   -2.7861   -4.7857 H   0  0  0  0  0  0  0  0  0  0  0  0
    4.0611   -4.2570   -2.9998 H   0  0  0  0  0  0  0  0  0  0  0  0
    5.4710   -5.2688    1.0889 H   0  0  0  0  0  0  0  0  0  0  0  0
    6.1798   -4.4643    3.1211 H   0  0  0  0  0  0  0  0  0  0  0  0
    5.8408   -2.8542    2.4541 H   0  0  0  0  0  0  0  0  0  0  0  0
    4.5987   -3.6521    4.7165 H   0  0  0  0  0  0  0  0  0  0  0  0
    3.6226   -2.8595    3.4675 H   0  0  0  0  0  0  0  0  0  0  0  0
    3.7320   -6.3743    2.0421 H   0  0  0  0  0  0  0  0  0  0  0  0
  1  2  1  0
  1 17  1  0
  2 16  1  0
  2  3  1  0
  2 18  1  1
  3  4  1  0
  3 19  1  0
  3 20  1  0
  4  5  1  0
  4 12  1  0
  5  6  1  0
  5 21  1  0
  5 22  1  0
  6 11  1  0
  6  7  2  0
  7  8  1  0
  7 23  1  0
  8  9  2  0
  8 24  1  0
  9 10  1  0
 10 11  2  0
 10 25  1  0
 11 26  1  0
 12 16  1  0
 12 13  1  0
 12 27  1  6
 13 14  1  0
 13 28  1  0
 13 29  1  0
 14 15  1  0
 14 30  1  0
 14 31  1  0
 15 16  1  0
 16 32  1  1
M  END
>  <i_m_ct_stereo_status>  (399) 
1

>  <s_m_source_file>  (399) 
/var/tmp/pbs.5076255.sched01/tmp9yj1qf5s/135tauqa2n_.sdf

>  <i_m_source_file_index>  (399) 
18

>  <i_lp_mmshare_version>  (399) 
48012

>  <i_f3d_flags>  (399) 
0

>  <s_epik_input>  (399) 
W0NIMl0xW0NIMl1PW0NASF0oW0NASF0xMilbQ0BIXShbT0hdKVtDSDJdTjJbQ0gyXWMzW2NIXVtjSF1uW2NIXVtjSF0z

>  <s_epik_cmdline>  (399) 
J2VwaWtfcHl0aG9uJywgJy1waHQnLCAnMi4wJywgJy1waCcsICc3LjAnLCAnLXRuJywgJzgnLCAnLW1hJywgJzIwMCcsICctaW1hZScsICc8aW5maWxlLm1hZT4nLCAnLW9tYWUnLCAnPG91dGZpbGUubWFlPic=

>  <r_epik_Ionization_Penalty>  (399) 
1.44572

>  <r_epik_Ionization_Penalty_Charging>  (399) 
0

>  <r_epik_Ionization_Penalty_Neutral>  (399) 
1.44572

>  <r_epik_State_Penalty>  (399) 
1.52328

>  <r_epik_Charging_Adjusted_Penalty>  (399) 
1.52328

>  <i_epik_Tot_Q>  (399) 
0

>  <i_epik_Tot_abs_Q>  (399) 
0

>  <s_lp_Force_Field>  (399) 
OPLS3e

>  <r_lp_Energy>  (399) 
21.1568

>  <b_lp_Chiralities_Consistent>  (399) 
1

>  <s_lp_Variant>  (399) 
92:0-2

>  <s_i_glide_gridfile>  (399) 
pfpi4k_grid

>  <i_i_glide_lignum>  (399) 
18

>  <i_i_glide_rotatable_bonds>  (399) 
3

>  <r_i_docking_score>  (399) 
-3.15221

>  <r_i_glide_ligand_efficiency>  (399) 
-0.197013

>  <r_i_glide_ligand_efficiency_sa>  (399) 
-0.496442

>  <r_i_glide_ligand_efficiency_ln>  (399) 
-0.835557

>  <r_i_glide_gscore>  (399) 
-3.15221

>  <r_i_glide_lipo>  (399) 
-0.357146

>  <r_i_glide_hbond>  (399) 
0

>  <r_i_glide_metal>  (399) 
-0

>  <r_i_glide_rewards>  (399) 
-1.90727

>  <r_i_glide_evdw>  (399) 
-19.645

>  <r_i_glide_ecoul>  (399) 
-4.00099

>  <r_i_glide_erotb>  (399) 
0.694596

>  <r_i_glide_esite>  (399) 
0

>  <r_i_glide_emodel>  (399) 
-29.4839

>  <r_i_glide_energy>  (399) 
-23.6459

>  <r_i_glide_einternal>  (399) 
0.446633

>  <r_i_glide_intrahb_reward>  (399) 
-0

>  <i_i_glide_confnum>  (399) 
1

>  <i_i_glide_posenum>  (399) 
17

>  <r_i_glide_eff_state_penalty>  (399) 
0

>  <ligand_id>  (399) 
92

>  <original_smiles>  (399) 
OC1CN(Cc2ccncc2)C2CCOC12

>  <smiles>  (399) 
[H]OC1([H])C([H])([H])N(C([H])([H])c2c([H])c([H])nc([H])c2[H])C2([H])C([H])([H])C([H])([H])OC12[H]

$$$$
93:0:0
     RDKit          3D

 62 66  0  0  1  0  0  0  0  0999 V2000
   -1.8305   -9.2784    2.4761 C   0  0  0  0  0  0  0  0  0  0  0  0
   -0.6474   -8.6596    2.4863 C   0  0  0  0  0  0  0  0  0  0  0  0
   -0.5147   -7.3750    1.8574 C   0  0  0  0  0  0  0  0  0  0  0  0
    0.6210   -6.6982    1.8902 C   0  0  0  0  0  0  0  0  0  0  0  0
    1.8116   -7.1109    2.7231 C   0  0  1  0  0  0  0  0  0  0  0  0
    2.4431   -5.8697    3.3911 C   0  0  2  0  0  0  0  0  0  0  0  0
    2.8545   -4.7095    2.4612 C   0  0  0  0  0  0  0  0  0  0  0  0
    3.9949   -3.9624    3.1590 C   0  0  2  0  0  0  0  0  0  0  0  0
    4.6930   -2.8690    2.3156 C   0  0  2  0  0  0  0  0  0  0  0  0
    3.7295   -1.7800    1.8291 C   0  0  0  0  0  0  0  0  0  0  0  0
    3.1505   -2.0815    0.4614 C   0  0  0  0  0  0  0  0  0  0  0  0
    3.6737   -2.9133   -0.4321 C   0  0  0  0  0  0  0  0  0  0  0  0
    3.0280   -3.1163   -1.8116 C   0  0  0  0  0  0  0  0  0  0  0  0
    4.0538   -2.8697   -2.9220 C   0  0  0  0  0  0  0  0  0  0  0  0
    3.7930   -2.2058   -3.9285 O   0  0  0  0  0  0  0  0  0  0  0  0
    5.4137   -3.5257   -2.7493 C   0  0  0  0  0  0  0  0  0  0  0  0
    5.9827   -3.2974   -1.3317 C   0  0  0  0  0  0  0  0  0  0  0  0
    4.9755   -3.6859   -0.2144 C   0  0  2  0  0  0  0  0  0  0  0  0
    4.7252   -5.0760   -0.3528 O   0  0  0  0  0  0  0  0  0  0  0  0
    5.6102   -3.4027    1.1826 C   0  0  2  0  0  0  0  0  0  0  0  0
    6.5122   -4.5456    1.6765 C   0  0  0  0  0  0  0  0  0  0  0  0
    5.8289   -5.6078    2.5516 C   0  0  0  0  0  0  0  0  0  0  0  0
    4.9661   -5.0243    3.7083 C   0  0  1  0  0  0  0  0  0  0  0  0
    5.7289   -4.5109    4.9567 C   0  0  0  0  0  0  0  0  0  0  0  0
    3.9324   -6.3688    4.2894 S   0  0  0  0  0  0  0  0  0  0  0  0
    1.4414   -8.2217    3.7675 C   0  0  1  0  0  0  0  0  0  0  0  0
    0.7274   -7.6872    5.0436 C   0  0  0  0  0  0  0  0  0  0  0  0
    0.5682   -9.3135    3.1132 C   0  0  0  0  0  0  0  0  0  0  0  0
   -1.9352  -10.2452    2.9377 H   0  0  0  0  0  0  0  0  0  0  0  0
   -2.6831   -8.8316    2.0213 H   0  0  0  0  0  0  0  0  0  0  0  0
   -1.3530   -6.9759    1.3084 H   0  0  0  0  0  0  0  0  0  0  0  0
    0.7165   -5.7981    1.3154 H   0  0  0  0  0  0  0  0  0  0  0  0
    2.5376   -7.5355    2.0094 H   0  0  0  0  0  0  0  0  0  0  0  0
    1.7741   -5.4358    4.1368 H   0  0  0  0  0  0  0  0  0  0  0  0
    3.1548   -5.0796    1.4773 H   0  0  0  0  0  0  0  0  0  0  0  0
    2.0239   -4.0349    2.2963 H   0  0  0  0  0  0  0  0  0  0  0  0
    3.5541   -3.4603    4.0226 H   0  0  0  0  0  0  0  0  0  0  0  0
    5.3448   -2.3430    3.0212 H   0  0  0  0  0  0  0  0  0  0  0  0
    2.8878   -1.6555    2.5118 H   0  0  0  0  0  0  0  0  0  0  0  0
    4.2370   -0.8156    1.7474 H   0  0  0  0  0  0  0  0  0  0  0  0
    2.2460   -1.5316    0.2720 H   0  0  0  0  0  0  0  0  0  0  0  0
    2.6762   -4.1413   -1.8825 H   0  0  0  0  0  0  0  0  0  0  0  0
    2.1613   -2.4714   -1.9285 H   0  0  0  0  0  0  0  0  0  0  0  0
    5.2930   -4.5924   -2.9441 H   0  0  0  0  0  0  0  0  0  0  0  0
    6.1128   -3.1449   -3.4966 H   0  0  0  0  0  0  0  0  0  0  0  0
    6.9270   -3.8321   -1.2049 H   0  0  0  0  0  0  0  0  0  0  0  0
    6.2410   -2.2378   -1.2452 H   0  0  0  0  0  0  0  0  0  0  0  0
    4.0444   -5.2143   -0.9873 H   0  0  0  0  0  0  0  0  0  0  0  0
    6.2623   -2.5474    0.9958 H   0  0  0  0  0  0  0  0  0  0  0  0
    7.1072   -4.9791    0.8613 H   0  0  0  0  0  0  0  0  0  0  0  0
    7.1794   -4.0792    2.3590 H   0  0  0  0  0  0  0  0  0  0  0  0
    5.2175   -6.2603    1.9199 H   0  0  0  0  0  0  0  0  0  0  0  0
    6.6049   -6.2409    2.9796 H   0  0  0  0  0  0  0  0  0  0  0  0
    6.1782   -3.5351    4.7678 H   0  0  0  0  0  0  0  0  0  0  0  0
    6.4579   -5.2600    5.3032 H   0  0  0  0  0  0  0  0  0  0  0  0
    5.0467   -4.3141    5.7937 H   0  0  0  0  0  0  0  0  0  0  0  0
    2.3654   -8.7214    4.0660 H   0  0  0  0  0  0  0  0  0  0  0  0
   -0.2239   -7.2172    4.8129 H   0  0  0  0  0  0  0  0  0  0  0  0
    1.3091   -6.9072    5.5564 H   0  0  0  0  0  0  0  0  0  0  0  0
    0.4690   -8.5210    5.7056 H   0  0  0  0  0  0  0  0  0  0  0  0
    0.2663  -10.0514    3.8527 H   0  0  0  0  0  0  0  0  0  0  0  0
    1.1064   -9.8545    2.3313 H   0  0  0  0  0  0  0  0  0  0  0  0
  1  2  2  0
  1 29  1  0
  1 30  1  0
  2 28  1  0
  2  3  1  0
  3  4  2  0
  3 31  1  0
  4  5  1  0
  4 32  1  0
  5  6  1  0
  5 26  1  0
  5 33  1  6
  6 25  1  0
  6  7  1  0
  6 34  1  1
  7  8  1  0
  7 35  1  0
  7 36  1  0
  8 23  1  0
  8  9  1  0
  8 37  1  1
  9 20  1  0
  9 10  1  0
  9 38  1  1
 10 11  1  0
 10 39  1  0
 10 40  1  0
 11 12  2  0
 11 41  1  0
 12 18  1  0
 12 13  1  0
 13 14  1  0
 13 42  1  0
 13 43  1  0
 14 15  2  0
 14 16  1  0
 16 17  1  0
 16 44  1  0
 16 45  1  0
 17 18  1  0
 17 46  1  0
 17 47  1  0
 18 19  1  1
 18 20  1  0
 19 48  1  0
 20 21  1  0
 20 49  1  6
 21 22  1  0
 21 50  1  0
 21 51  1  0
 22 23  1  0
 22 52  1  0
 22 53  1  0
 23 24  1  1
 23 25  1  0
 24 54  1  0
 24 55  1  0
 24 56  1  0
 26 27  1  0
 26 28  1  0
 26 57  1  1
 27 58  1  0
 27 59  1  0
 27 60  1  0
 28 61  1  0
 28 62  1  0
M  END
>  <i_m_ct_stereo_status>  (400) 
1

>  <s_m_source_file>  (400) 
/var/tmp/pbs.5076255.sched01/tmp9yj1qf5s/135tauqa2n_.sdf

>  <i_m_source_file_index>  (400) 
19

>  <i_lp_mmshare_version>  (400) 
48012

>  <i_f3d_flags>  (400) 
0

>  <s_epik_input>  (400) 
W0NIMl09QzFbQ0hdPVtDSF1bQ0BIXShbQ0BASF0oW0NIM10pW0NIMl0xKVtDQEhdKFtDSDJdMilTW0NAQF0oW0NIM10pKFtDSDJdW0NIMl1bQ0BIXTM0KVtDQEhdMltDQEBIXTNbQ0gyXVtDSF09QyhbQ0BdNDVbT0hdKVtDSDJdQyg9TylbQ0gyXVtDSDJdNQ==

>  <s_epik_cmdline>  (400) 
J2VwaWtfcHl0aG9uJywgJy1waHQnLCAnMi4wJywgJy1waCcsICc3LjAnLCAnLXRuJywgJzgnLCAnLW1hJywgJzIwMCcsICctaW1hZScsICc8aW5maWxlLm1hZT4nLCAnLW9tYWUnLCAnPG91dGZpbGUubWFlPic=

>  <r_lp_tautomer_probability>  (400) 
1

>  <r_epik_Ionization_Penalty>  (400) 
4.01299e-08

>  <r_epik_Ionization_Penalty_Charging>  (400) 
0

>  <r_epik_Ionization_Penalty_Neutral>  (400) 
4.01299e-08

>  <r_epik_State_Penalty>  (400) 
-0

>  <r_epik_Charging_Adjusted_Penalty>  (400) 
0

>  <i_epik_Tot_Q>  (400) 
0

>  <i_epik_Tot_abs_Q>  (400) 
0

>  <s_lp_Force_Field>  (400) 
OPLS3e

>  <r_lp_Energy>  (400) 
36.3263

>  <b_lp_Chiralities_Consistent>  (400) 
1

>  <s_lp_Variant>  (400) 
93:0-1

>  <s_i_glide_gridfile>  (400) 
pfpi4k_grid

>  <i_i_glide_lignum>  (400) 
19

>  <i_i_glide_rotatable_bonds>  (400) 
2

>  <r_i_docking_score>  (400) 
-3.57175

>  <r_i_glide_ligand_efficiency>  (400) 
-0.127563

>  <r_i_glide_ligand_efficiency_sa>  (400) 
-0.387355

>  <r_i_glide_ligand_efficiency_ln>  (400) 
-0.824465

>  <r_i_glide_gscore>  (400) 
-3.57175

>  <r_i_glide_lipo>  (400) 
-0.831751

>  <r_i_glide_hbond>  (400) 
-0.37687

>  <r_i_glide_metal>  (400) 
-0

>  <r_i_glide_rewards>  (400) 
-0.761493

>  <r_i_glide_evdw>  (400) 
-22.7166

>  <r_i_glide_ecoul>  (400) 
-3.92722

>  <r_i_glide_erotb>  (400) 
0.123274

>  <r_i_glide_esite>  (400) 
0

>  <r_i_glide_emodel>  (400) 
-32.8126

>  <r_i_glide_energy>  (400) 
-26.6438

>  <r_i_glide_einternal>  (400) 
0.622887

>  <r_i_glide_intrahb_reward>  (400) 
-0

>  <i_i_glide_confnum>  (400) 
1

>  <i_i_glide_posenum>  (400) 
4

>  <r_i_glide_eff_state_penalty>  (400) 
0

>  <ligand_id>  (400) 
93

>  <original_smiles>  (400) 
C=C1C=CC(C2CC3C4CC=C5CC(=O)CCC5(O)C4CCC3(C)S2)C(C)C1

>  <smiles>  (400) 
[H]OC12C(=C([H])C([H])([H])C3([H])C1([H])C([H])([H])C([H])([H])C1(C([H])([H])[H])SC([H])(C4([H])C([H])=C([H])C(=C([H])[H])C([H])([H])C4([H])C([H])([H])[H])C([H])([H])C31[H])C([H])([H])C(=O)C([H])([H])C2([H])[H]

$$$$
93:0:1
     RDKit          3D

 62 66  0  0  1  0  0  0  0  0999 V2000
    0.3598   -9.4033    3.5507 C   0  0  0  0  0  0  0  0  0  0  0  0
    0.8880   -8.2599    3.0998 C   0  0  0  0  0  0  0  0  0  0  0  0
    0.8764   -7.0547    3.9151 C   0  0  0  0  0  0  0  0  0  0  0  0
    1.5394   -5.9521    3.5582 C   0  0  0  0  0  0  0  0  0  0  0  0
    2.4342   -5.8556    2.3221 C   0  0  1  0  0  0  0  0  0  0  0  0
    3.7130   -5.0182    2.5901 C   0  0  2  0  0  0  0  0  0  0  0  0
    3.4957   -3.6038    3.1305 C   0  0  0  0  0  0  0  0  0  0  0  0
    4.7240   -2.7715    2.7235 C   0  0  2  0  0  0  0  0  0  0  0  0
    4.6288   -1.2516    3.0069 C   0  0  2  0  0  0  0  0  0  0  0  0
    4.3625   -0.9125    4.4854 C   0  0  0  0  0  0  0  0  0  0  0  0
    2.8945   -0.7591    4.8189 C   0  0  0  0  0  0  0  0  0  0  0  0
    1.9230   -0.5545    3.9047 C   0  0  0  0  0  0  0  0  0  0  0  0
    0.4670   -0.4216    4.3402 C   0  0  0  0  0  0  0  0  0  0  0  0
   -0.1094    0.8932    3.8387 C   0  0  0  0  0  0  0  0  0  0  0  0
   -0.7696    1.6310    4.5817 O   0  0  0  0  0  0  0  0  0  0  0  0
    0.1318    1.2312    2.3725 C   0  0  0  0  0  0  0  0  0  0  0  0
    1.6129    1.0102    1.9818 C   0  0  0  0  0  0  0  0  0  0  0  0
    2.1884   -0.3719    2.4014 C   0  0  2  0  0  0  0  0  0  0  0  0
    1.4356   -1.3284    1.6864 O   0  0  0  0  0  0  0  0  0  0  0  0
    3.7163   -0.4577    2.0344 C   0  0  2  0  0  0  0  0  0  0  0  0
    4.0495   -0.8355    0.5725 C   0  0  0  0  0  0  0  0  0  0  0  0
    4.0855   -2.3516    0.3045 C   0  0  0  0  0  0  0  0  0  0  0  0
    5.0446   -3.0979    1.2495 C   0  0  1  0  0  0  0  0  0  0  0  0
    6.5206   -2.8376    0.8747 C   0  0  0  0  0  0  0  0  0  0  0  0
    4.7203   -4.8613    1.0854 S   0  0  0  0  0  0  0  0  0  0  0  0
    2.7769   -7.2734    1.7571 C   0  0  1  0  0  0  0  0  0  0  0  0
    3.9309   -7.9835    2.5129 C   0  0  0  0  0  0  0  0  0  0  0  0
    1.5288   -8.1783    1.7263 C   0  0  0  0  0  0  0  0  0  0  0  0
    0.3731  -10.3014    2.9465 H   0  0  0  0  0  0  0  0  0  0  0  0
   -0.0905   -9.4888    4.5333 H   0  0  0  0  0  0  0  0  0  0  0  0
    0.3188   -7.0557    4.8392 H   0  0  0  0  0  0  0  0  0  0  0  0
    1.4623   -5.0740    4.1897 H   0  0  0  0  0  0  0  0  0  0  0  0
    1.8320   -5.3284    1.5731 H   0  0  0  0  0  0  0  0  0  0  0  0
    4.3288   -5.5111    3.3388 H   0  0  0  0  0  0  0  0  0  0  0  0
    2.5694   -3.1809    2.7490 H   0  0  0  0  0  0  0  0  0  0  0  0
    3.4091   -3.6354    4.2128 H   0  0  0  0  0  0  0  0  0  0  0  0
    5.5587   -3.1563    3.3146 H   0  0  0  0  0  0  0  0  0  0  0  0
    5.6429   -0.8894    2.8223 H   0  0  0  0  0  0  0  0  0  0  0  0
    4.7935   -1.6755    5.1375 H   0  0  0  0  0  0  0  0  0  0  0  0
    4.8459    0.0329    4.7337 H   0  0  0  0  0  0  0  0  0  0  0  0
    2.6422   -0.8348    5.8693 H   0  0  0  0  0  0  0  0  0  0  0  0
   -0.1132   -1.2365    3.9121 H   0  0  0  0  0  0  0  0  0  0  0  0
    0.3775   -0.4824    5.4251 H   0  0  0  0  0  0  0  0  0  0  0  0
   -0.5174    0.5939    1.7699 H   0  0  0  0  0  0  0  0  0  0  0  0
   -0.1700    2.2584    2.1682 H   0  0  0  0  0  0  0  0  0  0  0  0
    1.7133    1.1402    0.9038 H   0  0  0  0  0  0  0  0  0  0  0  0
    2.1934    1.8161    2.4436 H   0  0  0  0  0  0  0  0  0  0  0  0
    1.3299   -1.0443    0.7463 H   0  0  0  0  0  0  0  0  0  0  0  0
    4.0762    0.5655    2.1494 H   0  0  0  0  0  0  0  0  0  0  0  0
    3.3399   -0.3721   -0.1058 H   0  0  0  0  0  0  0  0  0  0  0  0
    5.0256   -0.4218    0.3208 H   0  0  0  0  0  0  0  0  0  0  0  0
    3.0837   -2.7656    0.4091 H   0  0  0  0  0  0  0  0  0  0  0  0
    4.3580   -2.5468   -0.7343 H   0  0  0  0  0  0  0  0  0  0  0  0
    6.7971   -1.7867    0.9874 H   0  0  0  0  0  0  0  0  0  0  0  0
    6.7114   -3.1258   -0.1632 H   0  0  0  0  0  0  0  0  0  0  0  0
    7.1924   -3.4307    1.4999 H   0  0  0  0  0  0  0  0  0  0  0  0
    3.0894   -7.1386    0.7229 H   0  0  0  0  0  0  0  0  0  0  0  0
    3.6396   -8.1887    3.5412 H   0  0  0  0  0  0  0  0  0  0  0  0
    4.8393   -7.3799    2.5675 H   0  0  0  0  0  0  0  0  0  0  0  0
    4.1593   -8.9477    2.0460 H   0  0  0  0  0  0  0  0  0  0  0  0
    1.8134   -9.1732    1.3912 H   0  0  0  0  0  0  0  0  0  0  0  0
    0.7794   -7.8295    1.0147 H   0  0  0  0  0  0  0  0  0  0  0  0
  1  2  2  0
  1 29  1  0
  1 30  1  0
  2 28  1  0
  2  3  1  0
  3  4  2  0
  3 31  1  0
  4  5  1  0
  4 32  1  0
  5  6  1  0
  5 26  1  0
  5 33  1  6
  6 25  1  0
  6  7  1  0
  6 34  1  1
  7  8  1  0
  7 35  1  0
  7 36  1  0
  8 23  1  0
  8  9  1  0
  8 37  1  1
  9 20  1  0
  9 10  1  0
  9 38  1  6
 10 11  1  0
 10 39  1  0
 10 40  1  0
 11 12  2  0
 11 41  1  0
 12 18  1  0
 12 13  1  0
 13 14  1  0
 13 42  1  0
 13 43  1  0
 14 15  2  0
 14 16  1  0
 16 17  1  0
 16 44  1  0
 16 45  1  0
 17 18  1  0
 17 46  1  0
 17 47  1  0
 18 19  1  6
 18 20  1  0
 19 48  1  0
 20 21  1  0
 20 49  1  6
 21 22  1  0
 21 50  1  0
 21 51  1  0
 22 23  1  0
 22 52  1  0
 22 53  1  0
 23 24  1  6
 23 25  1  0
 24 54  1  0
 24 55  1  0
 24 56  1  0
 26 27  1  0
 26 28  1  0
 26 57  1  6
 27 58  1  0
 27 59  1  0
 27 60  1  0
 28 61  1  0
 28 62  1  0
M  END
>  <i_m_ct_stereo_status>  (401) 
1

>  <s_m_source_file>  (401) 
/var/tmp/pbs.5076255.sched01/tmp9yj1qf5s/135tauqa2n_.sdf

>  <i_m_source_file_index>  (401) 
19

>  <i_lp_mmshare_version>  (401) 
48012

>  <i_f3d_flags>  (401) 
0

>  <s_epik_input>  (401) 
W0NIMl09QzFbQ0hdPVtDSF1bQ0BIXShbQ0BASF0oW0NIM10pW0NIMl0xKVtDQEhdKFtDSDJdMilTW0NAQF0oW0NIM10pKFtDSDJdW0NIMl1bQ0BIXTM0KVtDQEhdMltDQEBIXTNbQ0gyXVtDSF09QyhbQ0BdNDVbT0hdKVtDSDJdQyg9TylbQ0gyXVtDSDJdNQ==

>  <s_epik_cmdline>  (401) 
J2VwaWtfcHl0aG9uJywgJy1waHQnLCAnMi4wJywgJy1waCcsICc3LjAnLCAnLXRuJywgJzgnLCAnLW1hJywgJzIwMCcsICctaW1hZScsICc8aW5maWxlLm1hZT4nLCAnLW9tYWUnLCAnPG91dGZpbGUubWFlPic=

>  <r_lp_tautomer_probability>  (401) 
1

>  <r_epik_Ionization_Penalty>  (401) 
4.01299e-08

>  <r_epik_Ionization_Penalty_Charging>  (401) 
0

>  <r_epik_Ionization_Penalty_Neutral>  (401) 
4.01299e-08

>  <r_epik_State_Penalty>  (401) 
-0

>  <r_epik_Charging_Adjusted_Penalty>  (401) 
0

>  <i_epik_Tot_Q>  (401) 
0

>  <i_epik_Tot_abs_Q>  (401) 
0

>  <s_lp_Force_Field>  (401) 
OPLS3e

>  <r_lp_Energy>  (401) 
36.3263

>  <b_lp_Chiralities_Consistent>  (401) 
1

>  <s_lp_Variant>  (401) 
93:0-1

>  <s_i_glide_gridfile>  (401) 
pfpi4k_grid

>  <i_i_glide_lignum>  (401) 
19

>  <i_i_glide_rotatable_bonds>  (401) 
2

>  <r_i_docking_score>  (401) 
-3.08606

>  <r_i_glide_ligand_efficiency>  (401) 
-0.110216

>  <r_i_glide_ligand_efficiency_sa>  (401) 
-0.334682

>  <r_i_glide_ligand_efficiency_ln>  (401) 
-0.712354

>  <r_i_glide_gscore>  (401) 
-3.08606

>  <r_i_glide_lipo>  (401) 
-0.310392

>  <r_i_glide_hbond>  (401) 
-0.16

>  <r_i_glide_metal>  (401) 
-0

>  <r_i_glide_rewards>  (401) 
-0.691348

>  <r_i_glide_evdw>  (401) 
-27.9254

>  <r_i_glide_ecoul>  (401) 
-4.20366

>  <r_i_glide_erotb>  (401) 
0.123274

>  <r_i_glide_esite>  (401) 
-0.0207765

>  <r_i_glide_emodel>  (401) 
-38.6546

>  <r_i_glide_energy>  (401) 
-32.1291

>  <r_i_glide_einternal>  (401) 
0.219803

>  <r_i_glide_intrahb_reward>  (401) 
-0

>  <i_i_glide_confnum>  (401) 
4

>  <i_i_glide_posenum>  (401) 
12

>  <r_i_glide_eff_state_penalty>  (401) 
0

>  <ligand_id>  (401) 
93

>  <original_smiles>  (401) 
C=C1C=CC(C2CC3C4CC=C5CC(=O)CCC5(O)C4CCC3(C)S2)C(C)C1

>  <smiles>  (401) 
[H]OC12C(=C([H])C([H])([H])C3([H])C1([H])C([H])([H])C([H])([H])C1(C([H])([H])[H])SC([H])(C4([H])C([H])=C([H])C(=C([H])[H])C([H])([H])C4([H])C([H])([H])[H])C([H])([H])C31[H])C([H])([H])C(=O)C([H])([H])C2([H])[H]

$$$$
93:0:2
     RDKit          3D

 62 66  0  0  1  0  0  0  0  0999 V2000
   -0.7619   -8.6512    4.0673 C   0  0  0  0  0  0  0  0  0  0  0  0
   -0.0546   -7.6747    3.4772 C   0  0  0  0  0  0  0  0  0  0  0  0
    0.2034   -6.4118    4.1559 C   0  0  0  0  0  0  0  0  0  0  0  0
    1.0519   -5.4958    3.6513 C   0  0  0  0  0  0  0  0  0  0  0  0
    1.8758   -5.7056    2.3898 C   0  0  1  0  0  0  0  0  0  0  0  0
    3.3018   -5.1240    2.5280 C   0  0  2  0  0  0  0  0  0  0  0  0
    3.3823   -3.6733    3.0463 C   0  0  0  0  0  0  0  0  0  0  0  0
    4.6922   -3.0674    2.5263 C   0  0  2  0  0  0  0  0  0  0  0  0
    4.8801   -1.5498    2.7807 C   0  0  2  0  0  0  0  0  0  0  0  0
    4.7902   -1.1532    4.2662 C   0  0  0  0  0  0  0  0  0  0  0  0
    3.4032   -0.7532    4.7017 C   0  0  0  0  0  0  0  0  0  0  0  0
    2.4090   -0.3949    3.8653 C   0  0  0  0  0  0  0  0  0  0  0  0
    1.0414   -0.0054    4.4067 C   0  0  0  0  0  0  0  0  0  0  0  0
    0.6651    1.3885    3.9284 C   0  0  0  0  0  0  0  0  0  0  0  0
    0.2085    2.2372    4.6985 O   0  0  0  0  0  0  0  0  0  0  0  0
    0.8416    1.6646    2.4442 C   0  0  0  0  0  0  0  0  0  0  0  0
    2.2259    1.1887    1.9531 C   0  0  0  0  0  0  0  0  0  0  0  0
    2.5810   -0.2749    2.3403 C   0  0  2  0  0  0  0  0  0  0  0  0
    1.6148   -1.0950    1.6908 O   0  0  0  0  0  0  0  0  0  0  0  0
    4.0409   -0.6201    1.8622 C   0  0  2  0  0  0  0  0  0  0  0  0
    4.1916   -1.0626    0.3860 C   0  0  0  0  0  0  0  0  0  0  0  0
    3.9438   -2.5639    0.1526 C   0  0  0  0  0  0  0  0  0  0  0  0
    4.8312   -3.4583    1.0357 C   0  0  1  0  0  0  0  0  0  0  0  0
    6.2946   -3.4622    0.5497 C   0  0  0  0  0  0  0  0  0  0  0  0
    4.1822   -5.1424    0.9294 S   0  0  0  0  0  0  0  0  0  0  0  0
    1.9035   -7.1967    1.9585 C   0  0  1  0  0  0  0  0  0  0  0  0
    2.9508   -8.0140    2.7496 C   0  0  0  0  0  0  0  0  0  0  0  0
    0.5140   -7.8506    2.0752 C   0  0  0  0  0  0  0  0  0  0  0  0
   -0.9515   -9.5853    3.5653 H   0  0  0  0  0  0  0  0  0  0  0  0
   -1.1541   -8.5396    5.0637 H   0  0  0  0  0  0  0  0  0  0  0  0
   -0.2918   -6.2089    5.0908 H   0  0  0  0  0  0  0  0  0  0  0  0
    1.1526   -4.5689    4.1941 H   0  0  0  0  0  0  0  0  0  0  0  0
    1.3721   -5.1385    1.6150 H   0  0  0  0  0  0  0  0  0  0  0  0
    3.8839   -5.7559    3.2104 H   0  0  0  0  0  0  0  0  0  0  0  0
    2.5222   -3.0981    2.7240 H   0  0  0  0  0  0  0  0  0  0  0  0
    3.3752   -3.6742    4.1318 H   0  0  0  0  0  0  0  0  0  0  0  0
    5.4924   -3.5842    3.0612 H   0  0  0  0  0  0  0  0  0  0  0  0
    5.9242   -1.3678    2.5125 H   0  0  0  0  0  0  0  0  0  0  0  0
    5.1344   -1.9686    4.9009 H   0  0  0  0  0  0  0  0  0  0  0  0
    5.4472   -0.3078    4.4599 H   0  0  0  0  0  0  0  0  0  0  0  0
    3.2248   -0.7623    5.7671 H   0  0  0  0  0  0  0  0  0  0  0  0
    0.2891   -0.7073    4.0454 H   0  0  0  0  0  0  0  0  0  0  0  0
    1.0310   -0.0346    5.4988 H   0  0  0  0  0  0  0  0  0  0  0  0
    0.0470    1.1494    1.9040 H   0  0  0  0  0  0  0  0  0  0  0  0
    0.7125    2.7275    2.2468 H   0  0  0  0  0  0  0  0  0  0  0  0
    2.2702    1.3007    0.8825 H   0  0  0  0  0  0  0  0  0  0  0  0
    2.9742    1.8790    2.3586 H   0  0  0  0  0  0  0  0  0  0  0  0
    1.5059   -0.8434    0.7699 H   0  0  0  0  0  0  0  0  0  0  0  0
    4.5767    0.3268    1.9272 H   0  0  0  0  0  0  0  0  0  0  0  0
    3.5237   -0.4877   -0.2493 H   0  0  0  0  0  0  0  0  0  0  0  0
    5.2046   -0.8234    0.0561 H   0  0  0  0  0  0  0  0  0  0  0  0
    2.8991   -2.7959    0.3420 H   0  0  0  0  0  0  0  0  0  0  0  0
    4.0953   -2.8117   -0.8982 H   0  0  0  0  0  0  0  0  0  0  0  0
    6.7482   -2.4745    0.6163 H   0  0  0  0  0  0  0  0  0  0  0  0
    6.3516   -3.7862   -0.4889 H   0  0  0  0  0  0  0  0  0  0  0  0
    6.9062   -4.1484    1.1368 H   0  0  0  0  0  0  0  0  0  0  0  0
    2.1772   -7.2415    0.9094 H   0  0  0  0  0  0  0  0  0  0  0  0
    2.6780   -8.0779    3.8069 H   0  0  0  0  0  0  0  0  0  0  0  0
    3.9317   -7.5272    2.7259 H   0  0  0  0  0  0  0  0  0  0  0  0
    3.0068   -9.0572    2.3853 H   0  0  0  0  0  0  0  0  0  0  0  0
    0.5925   -8.9115    1.8507 H   0  0  0  0  0  0  0  0  0  0  0  0
   -0.1955   -7.4393    1.3531 H   0  0  0  0  0  0  0  0  0  0  0  0
  1  2  2  0
  1 29  1  0
  1 30  1  0
  2 28  1  0
  2  3  1  0
  3  4  2  0
  3 31  1  0
  4  5  1  0
  4 32  1  0
  5  6  1  0
  5 26  1  0
  5 33  1  6
  6 25  1  0
  6  7  1  0
  6 34  1  1
  7  8  1  0
  7 35  1  0
  7 36  1  0
  8 23  1  0
  8  9  1  0
  8 37  1  1
  9 20  1  0
  9 10  1  0
  9 38  1  6
 10 11  1  0
 10 39  1  0
 10 40  1  0
 11 12  2  0
 11 41  1  0
 12 18  1  0
 12 13  1  0
 13 14  1  0
 13 42  1  0
 13 43  1  0
 14 15  2  0
 14 16  1  0
 16 17  1  0
 16 44  1  0
 16 45  1  0
 17 18  1  0
 17 46  1  0
 17 47  1  0
 18 19  1  6
 18 20  1  0
 19 48  1  0
 20 21  1  0
 20 49  1  6
 21 22  1  0
 21 50  1  0
 21 51  1  0
 22 23  1  0
 22 52  1  0
 22 53  1  0
 23 24  1  6
 23 25  1  0
 24 54  1  0
 24 55  1  0
 24 56  1  0
 26 27  1  0
 26 28  1  0
 26 57  1  6
 27 58  1  0
 27 59  1  0
 27 60  1  0
 28 61  1  0
 28 62  1  0
M  END
>  <i_m_ct_stereo_status>  (402) 
1

>  <s_m_source_file>  (402) 
/var/tmp/pbs.5076255.sched01/tmp9yj1qf5s/135tauqa2n_.sdf

>  <i_m_source_file_index>  (402) 
19

>  <i_lp_mmshare_version>  (402) 
48012

>  <i_f3d_flags>  (402) 
0

>  <s_epik_input>  (402) 
W0NIMl09QzFbQ0hdPVtDSF1bQ0BIXShbQ0BASF0oW0NIM10pW0NIMl0xKVtDQEhdKFtDSDJdMilTW0NAQF0oW0NIM10pKFtDSDJdW0NIMl1bQ0BIXTM0KVtDQEhdMltDQEBIXTNbQ0gyXVtDSF09QyhbQ0BdNDVbT0hdKVtDSDJdQyg9TylbQ0gyXVtDSDJdNQ==

>  <s_epik_cmdline>  (402) 
J2VwaWtfcHl0aG9uJywgJy1waHQnLCAnMi4wJywgJy1waCcsICc3LjAnLCAnLXRuJywgJzgnLCAnLW1hJywgJzIwMCcsICctaW1hZScsICc8aW5maWxlLm1hZT4nLCAnLW9tYWUnLCAnPG91dGZpbGUubWFlPic=

>  <r_lp_tautomer_probability>  (402) 
1

>  <r_epik_Ionization_Penalty>  (402) 
4.01299e-08

>  <r_epik_Ionization_Penalty_Charging>  (402) 
0

>  <r_epik_Ionization_Penalty_Neutral>  (402) 
4.01299e-08

>  <r_epik_State_Penalty>  (402) 
-0

>  <r_epik_Charging_Adjusted_Penalty>  (402) 
0

>  <i_epik_Tot_Q>  (402) 
0

>  <i_epik_Tot_abs_Q>  (402) 
0

>  <s_lp_Force_Field>  (402) 
OPLS3e

>  <r_lp_Energy>  (402) 
36.3263

>  <b_lp_Chiralities_Consistent>  (402) 
1

>  <s_lp_Variant>  (402) 
93:0-1

>  <s_i_glide_gridfile>  (402) 
pfpi4k_grid

>  <i_i_glide_lignum>  (402) 
19

>  <i_i_glide_rotatable_bonds>  (402) 
2

>  <r_i_docking_score>  (402) 
-2.98856

>  <r_i_glide_ligand_efficiency>  (402) 
-0.106734

>  <r_i_glide_ligand_efficiency_sa>  (402) 
-0.324108

>  <r_i_glide_ligand_efficiency_ln>  (402) 
-0.689847

>  <r_i_glide_gscore>  (402) 
-2.98856

>  <r_i_glide_lipo>  (402) 
-0.345225

>  <r_i_glide_hbond>  (402) 
-0.16

>  <r_i_glide_metal>  (402) 
-0

>  <r_i_glide_rewards>  (402) 
-0.691348

>  <r_i_glide_evdw>  (402) 
-28.1708

>  <r_i_glide_ecoul>  (402) 
-3.26876

>  <r_i_glide_erotb>  (402) 
0.123274

>  <r_i_glide_esite>  (402) 
-0.0164056

>  <r_i_glide_emodel>  (402) 
-37.3196

>  <r_i_glide_energy>  (402) 
-31.4396

>  <r_i_glide_einternal>  (402) 
0.582308

>  <r_i_glide_intrahb_reward>  (402) 
-0

>  <i_i_glide_confnum>  (402) 
3

>  <i_i_glide_posenum>  (402) 
8

>  <r_i_glide_eff_state_penalty>  (402) 
0

>  <ligand_id>  (402) 
93

>  <original_smiles>  (402) 
C=C1C=CC(C2CC3C4CC=C5CC(=O)CCC5(O)C4CCC3(C)S2)C(C)C1

>  <smiles>  (402) 
[H]OC12C(=C([H])C([H])([H])C3([H])C1([H])C([H])([H])C([H])([H])C1(C([H])([H])[H])SC([H])(C4([H])C([H])=C([H])C(=C([H])[H])C([H])([H])C4([H])C([H])([H])[H])C([H])([H])C31[H])C([H])([H])C(=O)C([H])([H])C2([H])[H]

$$$$
94:0:0
     RDKit          3D

 44 48  0  0  1  0  0  0  0  0999 V2000
    2.4391   -4.7353    3.7853 C   0  0  0  0  0  0  0  0  0  0  0  0
    2.9964   -4.9353    2.4978 O   0  0  0  0  0  0  0  0  0  0  0  0
    2.9103   -3.8163    1.6152 C   0  0  2  0  0  0  0  0  0  0  0  0
    3.4120   -4.2124    0.2496 C   0  0  0  0  0  0  0  0  0  0  0  0
    2.8397   -3.6801   -0.8600 C   0  0  0  0  0  0  0  0  0  0  0  0
    3.7077   -2.9762   -1.9090 C   0  0  1  0  0  0  0  0  0  0  0  0
    4.6168   -3.8535   -2.5362 O   0  0  0  0  0  0  0  0  0  0  0  0
    3.0129   -2.2727   -3.0748 C   0  0  0  0  0  0  0  0  0  0  0  0
    2.0601   -2.7494   -3.6841 O   0  0  0  0  0  0  0  0  0  0  0  0
    3.7429   -1.0323   -3.3848 C   0  0  0  0  0  0  0  0  0  0  0  0
    3.5395   -0.2727   -4.6861 C   0  0  0  0  0  0  0  0  0  0  0  0
    4.5724   -0.7710   -2.3617 C   0  0  0  0  0  0  0  0  0  0  0  0
    4.3704   -1.7482   -1.2192 C   0  0  2  0  0  0  0  0  0  0  0  0
    5.4705   -1.9347   -0.0985 C   0  0  1  0  0  0  0  0  0  0  0  0
    6.6843   -2.2401   -0.7601 O   0  0  0  0  0  0  0  0  0  0  0  0
    5.7066   -0.6512    0.7196 C   0  0  0  0  0  0  0  0  0  0  0  0
    4.4655   -0.1718    1.5111 C   0  0  0  0  0  0  0  0  0  0  0  0
    3.4759   -1.2792    1.9002 C   0  0  0  0  0  0  0  0  0  0  0  0
    2.3200   -1.0105    2.2120 O   0  0  0  0  0  0  0  0  0  0  0  0
    3.9818   -2.7264    1.9284 C   0  0  2  0  0  0  0  0  0  0  0  0
    5.1322   -3.0436    0.9436 C   0  0  2  0  0  0  0  0  0  0  0  0
    6.0089   -4.1742    1.3538 C   0  0  1  0  0  0  0  0  0  0  0  0
    5.7753   -4.7869    2.6072 O   0  0  0  0  0  0  0  0  0  0  0  0
    4.8910   -4.4126    0.3378 C   0  0  1  0  0  0  0  0  0  0  0  0
    2.5998   -5.6353    4.3838 H   0  0  0  0  0  0  0  0  0  0  0  0
    1.3626   -4.5616    3.7260 H   0  0  0  0  0  0  0  0  0  0  0  0
    2.9067   -3.9037    4.3173 H   0  0  0  0  0  0  0  0  0  0  0  0
    1.8831   -3.4462    1.5560 H   0  0  0  0  0  0  0  0  0  0  0  0
    1.8279   -3.2872   -0.8048 H   0  0  0  0  0  0  0  0  0  0  0  0
    4.1438   -4.6585   -2.7175 H   0  0  0  0  0  0  0  0  0  0  0  0
    3.8639   -0.8698   -5.5329 H   0  0  0  0  0  0  0  0  0  0  0  0
    4.0811    0.6718   -4.7133 H   0  0  0  0  0  0  0  0  0  0  0  0
    2.4821   -0.0558   -4.8373 H   0  0  0  0  0  0  0  0  0  0  0  0
    5.2324    0.0835   -2.3128 H   0  0  0  0  0  0  0  0  0  0  0  0
    3.5408   -1.2459   -0.7265 H   0  0  0  0  0  0  0  0  0  0  0  0
    6.5206   -3.0234   -1.2697 H   0  0  0  0  0  0  0  0  0  0  0  0
    6.5233   -0.8379    1.4206 H   0  0  0  0  0  0  0  0  0  0  0  0
    6.0694    0.1457    0.0757 H   0  0  0  0  0  0  0  0  0  0  0  0
    4.7680    0.3451    2.4149 H   0  0  0  0  0  0  0  0  0  0  0  0
    3.9148    0.5459    0.9060 H   0  0  0  0  0  0  0  0  0  0  0  0
    4.3464   -2.8545    2.9446 H   0  0  0  0  0  0  0  0  0  0  0  0
    7.0466   -4.1964    1.0422 H   0  0  0  0  0  0  0  0  0  0  0  0
    4.8360   -4.8491    2.7360 H   0  0  0  0  0  0  0  0  0  0  0  0
    5.3386   -4.7894   -0.5695 H   0  0  0  0  0  0  0  0  0  0  0  0
  1  2  1  0
  1 25  1  0
  1 26  1  0
  1 27  1  0
  2  3  1  0
  3 20  1  0
  3  4  1  0
  3 28  1  6
  4 24  1  0
  4  5  2  0
  5  6  1  0
  5 29  1  0
  6 13  1  0
  6  7  1  6
  6  8  1  0
  7 30  1  0
  8  9  2  0
  8 10  1  0
 10 11  1  0
 10 12  2  0
 11 31  1  0
 11 32  1  0
 11 33  1  0
 12 13  1  0
 12 34  1  0
 13 14  1  0
 13 35  1  1
 21 14  1  6
 14 15  1  6
 14 16  1  0
 15 36  1  0
 16 17  1  0
 16 37  1  0
 16 38  1  0
 17 18  1  0
 17 39  1  0
 17 40  1  0
 18 19  2  0
 18 20  1  0
 20 21  1  0
 20 41  1  1
 21 24  1  0
 21 22  1  0
 22 23  1  0
 22 24  1  0
 22 42  1  6
 23 43  1  0
 24 44  1  6
M  END
>  <i_m_ct_stereo_status>  (403) 
1

>  <s_m_source_file>  (403) 
/var/tmp/pbs.5076255.sched01/tmp9yj1qf5s/135tauqa2n_.sdf

>  <i_m_source_file_index>  (403) 
20

>  <i_lp_mmshare_version>  (403) 
48012

>  <i_f3d_flags>  (403) 
1

>  <s_epik_input>  (403) 
W0NIMl0xW0NIMl1DKD1PKVtDQEhdMltDQEhdKE9bQ0gzXSlDKFtDQEhdM1tDQEBIXTRbT0hdKT1bQ0hdW0NAQF0oW09IXSkoQyg9TylDKFtDSDNdKT1bQ0hdNSlbQ0BIXTVbQ0BAXTEoW0NAQF0yMzQpW09IXQ==

>  <s_epik_cmdline>  (403) 
J2VwaWtfcHl0aG9uJywgJy1waHQnLCAnMi4wJywgJy1waCcsICc3LjAnLCAnLXRuJywgJzgnLCAnLW1hJywgJzIwMCcsICctaW1hZScsICc8aW5maWxlLm1hZT4nLCAnLW9tYWUnLCAnPG91dGZpbGUubWFlPic=

>  <r_lp_tautomer_probability>  (403) 
1

>  <r_epik_Ionization_Penalty>  (403) 
7.42193e-06

>  <r_epik_Ionization_Penalty_Charging>  (403) 
0

>  <r_epik_Ionization_Penalty_Neutral>  (403) 
7.42193e-06

>  <r_epik_State_Penalty>  (403) 
-0

>  <r_epik_Charging_Adjusted_Penalty>  (403) 
0

>  <i_epik_Tot_Q>  (403) 
0

>  <i_epik_Tot_abs_Q>  (403) 
0

>  <s_lp_Force_Field>  (403) 
OPLS3e

>  <r_lp_Energy>  (403) 
74.6311

>  <b_lp_Chiralities_Consistent>  (403) 
1

>  <s_lp_Variant>  (403) 
94:0-1

>  <s_i_glide_gridfile>  (403) 
pfpi4k_grid

>  <i_i_glide_lignum>  (403) 
20

>  <i_i_glide_rotatable_bonds>  (403) 
4

>  <r_i_docking_score>  (403) 
-5.18114

>  <r_i_glide_ligand_efficiency>  (403) 
-0.215881

>  <r_i_glide_ligand_efficiency_sa>  (403) 
-0.622708

>  <r_i_glide_ligand_efficiency_ln>  (403) 
-1.24009

>  <r_i_glide_gscore>  (403) 
-5.18114

>  <r_i_glide_lipo>  (403) 
-0.851319

>  <r_i_glide_hbond>  (403) 
0

>  <r_i_glide_metal>  (403) 
-0

>  <r_i_glide_rewards>  (403) 
-2.18936

>  <r_i_glide_evdw>  (403) 
-28.9295

>  <r_i_glide_ecoul>  (403) 
-4.54233

>  <r_i_glide_erotb>  (403) 
0

>  <r_i_glide_esite>  (403) 
-0.0126407

>  <r_i_glide_emodel>  (403) 
-51.8941

>  <r_i_glide_energy>  (403) 
-33.4719

>  <r_i_glide_einternal>  (403) 
3.89775

>  <r_i_glide_intrahb_reward>  (403) 
-1

>  <i_i_glide_confnum>  (403) 
1

>  <i_i_glide_posenum>  (403) 
6

>  <r_i_glide_eff_state_penalty>  (403) 
0

>  <ligand_id>  (403) 
94

>  <original_smiles>  (403) 
COC1C2=CC3(O)C(=O)C(C)=CC3C3(O)CCC(=O)C1C31C(O)C21

>  <smiles>  (403) 
[H]OC12C(=O)C(C([H])([H])[H])=C([H])C1([H])C1(O[H])C([H])([H])C([H])([H])C(=O)C3([H])C([H])(OC([H])([H])[H])C(=C2[H])C2([H])C([H])(O[H])C321

$$$$
94:0:1
     RDKit          3D

 44 48  0  0  1  0  0  0  0  0999 V2000
    2.7866   -6.3951    2.0176 C   0  0  0  0  0  0  0  0  0  0  0  0
    3.6156   -5.2792    2.3232 O   0  0  0  0  0  0  0  0  0  0  0  0
    3.3968   -4.1353    1.4880 C   0  0  2  0  0  0  0  0  0  0  0  0
    3.7980   -4.4009    0.0625 C   0  0  0  0  0  0  0  0  0  0  0  0
    3.1008   -3.8295   -0.9456 C   0  0  0  0  0  0  0  0  0  0  0  0
    3.8558   -3.0225   -2.0087 C   0  0  1  0  0  0  0  0  0  0  0  0
    4.7373   -3.8209   -2.7702 O   0  0  0  0  0  0  0  0  0  0  0  0
    3.0232   -2.2721   -3.0470 C   0  0  0  0  0  0  0  0  0  0  0  0
    2.0349   -2.7503   -3.5929 O   0  0  0  0  0  0  0  0  0  0  0  0
    3.6707   -0.9796   -3.3329 C   0  0  0  0  0  0  0  0  0  0  0  0
    3.3324   -0.1411   -4.5595 C   0  0  0  0  0  0  0  0  0  0  0  0
    4.5760   -0.7482   -2.3726 C   0  0  0  0  0  0  0  0  0  0  0  0
    4.5232   -1.8112   -1.2899 C   0  0  2  0  0  0  0  0  0  0  0  0
    5.7270   -2.0268   -0.2885 C   0  0  1  0  0  0  0  0  0  0  0  0
    6.8882   -2.2382   -1.0699 O   0  0  0  0  0  0  0  0  0  0  0  0
    5.9902   -0.7934    0.5912 C   0  0  0  0  0  0  0  0  0  0  0  0
    4.8132   -0.4287    1.5273 C   0  0  0  0  0  0  0  0  0  0  0  0
    3.9008   -1.6046    1.9228 C   0  0  0  0  0  0  0  0  0  0  0  0
    2.7705   -1.4037    2.3432 O   0  0  0  0  0  0  0  0  0  0  0  0
    4.4511   -3.0301    1.7915 C   0  0  2  0  0  0  0  0  0  0  0  0
    5.5237   -3.2274    0.6929 C   0  0  2  0  0  0  0  0  0  0  0  0
    6.4799   -4.3438    0.9402 C   0  0  1  0  0  0  0  0  0  0  0  0
    6.3714   -5.0775    2.1479 O   0  0  0  0  0  0  0  0  0  0  0  0
    5.2810   -4.5544    0.0131 C   0  0  1  0  0  0  0  0  0  0  0  0
    3.0300   -7.2130    2.6907 H   0  0  0  0  0  0  0  0  0  0  0  0
    2.9258   -6.7647    1.0000 H   0  0  0  0  0  0  0  0  0  0  0  0
    1.7343   -6.1439    2.1584 H   0  0  0  0  0  0  0  0  0  0  0  0
    2.3589   -3.8031    1.5412 H   0  0  0  0  0  0  0  0  0  0  0  0
    2.0916   -3.4843   -0.7671 H   0  0  0  0  0  0  0  0  0  0  0  0
    4.2474   -4.5924   -3.0303 H   0  0  0  0  0  0  0  0  0  0  0  0
    3.6067   -0.6566   -5.4810 H   0  0  0  0  0  0  0  0  0  0  0  0
    3.8297    0.8307   -4.5633 H   0  0  0  0  0  0  0  0  0  0  0  0
    2.2599    0.0405   -4.6090 H   0  0  0  0  0  0  0  0  0  0  0  0
    5.2080    0.1257   -2.3157 H   0  0  0  0  0  0  0  0  0  0  0  0
    3.7143   -1.3864   -0.6948 H   0  0  0  0  0  0  0  0  0  0  0  0
    6.7069   -2.9868   -1.6221 H   0  0  0  0  0  0  0  0  0  0  0  0
    6.8717   -0.9954    1.2048 H   0  0  0  0  0  0  0  0  0  0  0  0
    6.2526    0.0773   -0.0131 H   0  0  0  0  0  0  0  0  0  0  0  0
    5.1780    0.0443    2.4354 H   0  0  0  0  0  0  0  0  0  0  0  0
    4.1783    0.3071    1.0273 H   0  0  0  0  0  0  0  0  0  0  0  0
    4.8931   -3.2279    2.7613 H   0  0  0  0  0  0  0  0  0  0  0  0
    7.4838   -4.2993    0.5367 H   0  0  0  0  0  0  0  0  0  0  0  0
    5.4505   -5.1677    2.3492 H   0  0  0  0  0  0  0  0  0  0  0  0
    5.6549   -4.8408   -0.9621 H   0  0  0  0  0  0  0  0  0  0  0  0
  1  2  1  0
  1 25  1  0
  1 26  1  0
  1 27  1  0
  2  3  1  0
  3 20  1  0
  3  4  1  0
  3 28  1  6
  4 24  1  0
  4  5  2  0
  5  6  1  0
  5 29  1  0
  6 13  1  0
  6  7  1  6
  6  8  1  0
  7 30  1  0
  8  9  2  0
  8 10  1  0
 10 11  1  0
 10 12  2  0
 11 31  1  0
 11 32  1  0
 11 33  1  0
 12 13  1  0
 12 34  1  0
 13 14  1  0
 13 35  1  1
 21 14  1  6
 14 15  1  6
 14 16  1  0
 15 36  1  0
 16 17  1  0
 16 37  1  0
 16 38  1  0
 17 18  1  0
 17 39  1  0
 17 40  1  0
 18 19  2  0
 18 20  1  0
 20 21  1  0
 20 41  1  1
 21 24  1  0
 21 22  1  0
 22 23  1  0
 22 24  1  0
 22 42  1  6
 23 43  1  0
 24 44  1  6
M  END
>  <i_m_ct_stereo_status>  (404) 
1

>  <s_m_source_file>  (404) 
/var/tmp/pbs.5076255.sched01/tmp9yj1qf5s/135tauqa2n_.sdf

>  <i_m_source_file_index>  (404) 
20

>  <i_lp_mmshare_version>  (404) 
48012

>  <i_f3d_flags>  (404) 
1

>  <s_epik_input>  (404) 
W0NIMl0xW0NIMl1DKD1PKVtDQEhdMltDQEhdKE9bQ0gzXSlDKFtDQEhdM1tDQEBIXTRbT0hdKT1bQ0hdW0NAQF0oW09IXSkoQyg9TylDKFtDSDNdKT1bQ0hdNSlbQ0BIXTVbQ0BAXTEoW0NAQF0yMzQpW09IXQ==

>  <s_epik_cmdline>  (404) 
J2VwaWtfcHl0aG9uJywgJy1waHQnLCAnMi4wJywgJy1waCcsICc3LjAnLCAnLXRuJywgJzgnLCAnLW1hJywgJzIwMCcsICctaW1hZScsICc8aW5maWxlLm1hZT4nLCAnLW9tYWUnLCAnPG91dGZpbGUubWFlPic=

>  <r_lp_tautomer_probability>  (404) 
1

>  <r_epik_Ionization_Penalty>  (404) 
7.42193e-06

>  <r_epik_Ionization_Penalty_Charging>  (404) 
0

>  <r_epik_Ionization_Penalty_Neutral>  (404) 
7.42193e-06

>  <r_epik_State_Penalty>  (404) 
-0

>  <r_epik_Charging_Adjusted_Penalty>  (404) 
0

>  <i_epik_Tot_Q>  (404) 
0

>  <i_epik_Tot_abs_Q>  (404) 
0

>  <s_lp_Force_Field>  (404) 
OPLS3e

>  <r_lp_Energy>  (404) 
74.6311

>  <b_lp_Chiralities_Consistent>  (404) 
1

>  <s_lp_Variant>  (404) 
94:0-1

>  <s_i_glide_gridfile>  (404) 
pfpi4k_grid

>  <i_i_glide_lignum>  (404) 
20

>  <i_i_glide_rotatable_bonds>  (404) 
4

>  <r_i_docking_score>  (404) 
-5.13332

>  <r_i_glide_ligand_efficiency>  (404) 
-0.213889

>  <r_i_glide_ligand_efficiency_sa>  (404) 
-0.616961

>  <r_i_glide_ligand_efficiency_ln>  (404) 
-1.22864

>  <r_i_glide_gscore>  (404) 
-5.13332

>  <r_i_glide_lipo>  (404) 
-0.91071

>  <r_i_glide_hbond>  (404) 
0

>  <r_i_glide_metal>  (404) 
-0

>  <r_i_glide_rewards>  (404) 
-2.17441

>  <r_i_glide_evdw>  (404) 
-28.6289

>  <r_i_glide_ecoul>  (404) 
-4.07917

>  <r_i_glide_erotb>  (404) 
0

>  <r_i_glide_esite>  (404) 
-0.00488642

>  <r_i_glide_emodel>  (404) 
-51.9927

>  <r_i_glide_energy>  (404) 
-32.7081

>  <r_i_glide_einternal>  (404) 
1.94594

>  <r_i_glide_intrahb_reward>  (404) 
-1

>  <i_i_glide_confnum>  (404) 
2

>  <i_i_glide_posenum>  (404) 
14

>  <r_i_glide_eff_state_penalty>  (404) 
0

>  <ligand_id>  (404) 
94

>  <original_smiles>  (404) 
COC1C2=CC3(O)C(=O)C(C)=CC3C3(O)CCC(=O)C1C31C(O)C21

>  <smiles>  (404) 
[H]OC12C(=O)C(C([H])([H])[H])=C([H])C1([H])C1(O[H])C([H])([H])C([H])([H])C(=O)C3([H])C([H])(OC([H])([H])[H])C(=C2[H])C2([H])C([H])(O[H])C321

$$$$
94:0:2
     RDKit          3D

 44 48  0  0  1  0  0  0  0  0999 V2000
    2.2831   -6.1131    2.1590 C   0  0  0  0  0  0  0  0  0  0  0  0
    3.1012   -4.9939    2.4704 O   0  0  0  0  0  0  0  0  0  0  0  0
    3.0125   -3.9007    1.5563 C   0  0  2  0  0  0  0  0  0  0  0  0
    3.5125   -4.2617    0.1825 C   0  0  0  0  0  0  0  0  0  0  0  0
    2.9109   -3.7052   -0.8994 C   0  0  0  0  0  0  0  0  0  0  0  0
    3.7571   -2.9683   -1.9442 C   0  0  1  0  0  0  0  0  0  0  0  0
    4.6722   -3.8273   -2.5934 O   0  0  0  0  0  0  0  0  0  0  0  0
    3.0247   -2.2544   -3.0802 C   0  0  0  0  0  0  0  0  0  0  0  0
    2.0650   -2.7369   -3.6788 O   0  0  0  0  0  0  0  0  0  0  0  0
    3.7262   -0.9956   -3.3791 C   0  0  0  0  0  0  0  0  0  0  0  0
    3.4943   -0.2167   -4.6642 C   0  0  0  0  0  0  0  0  0  0  0  0
    4.5697   -0.7404   -2.3652 C   0  0  0  0  0  0  0  0  0  0  0  0
    4.4021   -1.7422   -1.2373 C   0  0  2  0  0  0  0  0  0  0  0  0
    5.5241   -1.9369   -0.1373 C   0  0  1  0  0  0  0  0  0  0  0  0
    6.7339   -2.2143   -0.8180 O   0  0  0  0  0  0  0  0  0  0  0  0
    5.7547   -0.6702    0.7069 C   0  0  0  0  0  0  0  0  0  0  0  0
    4.5178   -0.2284    1.5269 C   0  0  0  0  0  0  0  0  0  0  0  0
    3.5524   -1.3602    1.9063 C   0  0  0  0  0  0  0  0  0  0  0  0
    2.3964   -1.1127    2.2388 O   0  0  0  0  0  0  0  0  0  0  0  0
    4.0737   -2.8031    1.8895 C   0  0  2  0  0  0  0  0  0  0  0  0
    5.2220   -3.0747    0.8814 C   0  0  2  0  0  0  0  0  0  0  0  0
    6.1259   -4.1947    1.2454 C   0  0  1  0  0  0  0  0  0  0  0  0
    5.9291   -4.8361    2.4898 O   0  0  0  0  0  0  0  0  0  0  0  0
    4.9965   -4.4328    0.2434 C   0  0  1  0  0  0  0  0  0  0  0  0
    2.4640   -6.9043    2.8906 H   0  0  0  0  0  0  0  0  0  0  0  0
    2.4943   -6.5359    1.1724 H   0  0  0  0  0  0  0  0  0  0  0  0
    1.2279   -5.8398    2.2117 H   0  0  0  0  0  0  0  0  0  0  0  0
    1.9860   -3.5274    1.5329 H   0  0  0  0  0  0  0  0  0  0  0  0
    1.8946   -3.3311   -0.8158 H   0  0  0  0  0  0  0  0  0  0  0  0
    4.1876   -4.6183   -2.8081 H   0  0  0  0  0  0  0  0  0  0  0  0
    3.8221   -0.7883   -5.5273 H   0  0  0  0  0  0  0  0  0  0  0  0
    4.0173    0.7382   -4.6752 H   0  0  0  0  0  0  0  0  0  0  0  0
    2.4321   -0.0172   -4.7952 H   0  0  0  0  0  0  0  0  0  0  0  0
    5.2182    0.1217   -2.3121 H   0  0  0  0  0  0  0  0  0  0  0  0
    3.5724   -1.2639   -0.7195 H   0  0  0  0  0  0  0  0  0  0  0  0
    6.5769   -2.9989   -1.3255 H   0  0  0  0  0  0  0  0  0  0  0  0
    6.5860   -0.8561    1.3907 H   0  0  0  0  0  0  0  0  0  0  0  0
    6.0960    0.1428    0.0683 H   0  0  0  0  0  0  0  0  0  0  0  0
    4.8281    0.2785    2.4330 H   0  0  0  0  0  0  0  0  0  0  0  0
    3.9490    0.4926    0.9446 H   0  0  0  0  0  0  0  0  0  0  0  0
    4.4375   -2.9714    2.9026 H   0  0  0  0  0  0  0  0  0  0  0  0
    7.1646   -4.1915    0.9200 H   0  0  0  0  0  0  0  0  0  0  0  0
    6.1966   -5.7394    2.4198 H   0  0  0  0  0  0  0  0  0  0  0  0
    5.4400   -4.7849   -0.6757 H   0  0  0  0  0  0  0  0  0  0  0  0
  1  2  1  0
  1 25  1  0
  1 26  1  0
  1 27  1  0
  2  3  1  0
  3 20  1  0
  3  4  1  0
  3 28  1  6
  4 24  1  0
  4  5  2  0
  5  6  1  0
  5 29  1  0
  6 13  1  0
  6  7  1  6
  6  8  1  0
  7 30  1  0
  8  9  2  0
  8 10  1  0
 10 11  1  0
 10 12  2  0
 11 31  1  0
 11 32  1  0
 11 33  1  0
 12 13  1  0
 12 34  1  0
 13 14  1  0
 13 35  1  1
 21 14  1  6
 14 15  1  6
 14 16  1  0
 15 36  1  0
 16 17  1  0
 16 37  1  0
 16 38  1  0
 17 18  1  0
 17 39  1  0
 17 40  1  0
 18 19  2  0
 18 20  1  0
 20 21  1  0
 20 41  1  1
 21 24  1  0
 21 22  1  0
 22 23  1  0
 22 24  1  0
 22 42  1  6
 23 43  1  0
 24 44  1  6
M  END
>  <i_m_ct_stereo_status>  (405) 
1

>  <s_m_source_file>  (405) 
/var/tmp/pbs.5076255.sched01/tmp9yj1qf5s/135tauqa2n_.sdf

>  <i_m_source_file_index>  (405) 
20

>  <i_lp_mmshare_version>  (405) 
48012

>  <i_f3d_flags>  (405) 
1

>  <s_epik_input>  (405) 
W0NIMl0xW0NIMl1DKD1PKVtDQEhdMltDQEhdKE9bQ0gzXSlDKFtDQEhdM1tDQEBIXTRbT0hdKT1bQ0hdW0NAQF0oW09IXSkoQyg9TylDKFtDSDNdKT1bQ0hdNSlbQ0BIXTVbQ0BAXTEoW0NAQF0yMzQpW09IXQ==

>  <s_epik_cmdline>  (405) 
J2VwaWtfcHl0aG9uJywgJy1waHQnLCAnMi4wJywgJy1waCcsICc3LjAnLCAnLXRuJywgJzgnLCAnLW1hJywgJzIwMCcsICctaW1hZScsICc8aW5maWxlLm1hZT4nLCAnLW9tYWUnLCAnPG91dGZpbGUubWFlPic=

>  <r_lp_tautomer_probability>  (405) 
1

>  <r_epik_Ionization_Penalty>  (405) 
7.42193e-06

>  <r_epik_Ionization_Penalty_Charging>  (405) 
0

>  <r_epik_Ionization_Penalty_Neutral>  (405) 
7.42193e-06

>  <r_epik_State_Penalty>  (405) 
-0

>  <r_epik_Charging_Adjusted_Penalty>  (405) 
0

>  <i_epik_Tot_Q>  (405) 
0

>  <i_epik_Tot_abs_Q>  (405) 
0

>  <s_lp_Force_Field>  (405) 
OPLS3e

>  <r_lp_Energy>  (405) 
74.6311

>  <b_lp_Chiralities_Consistent>  (405) 
1

>  <s_lp_Variant>  (405) 
94:0-1

>  <s_i_glide_gridfile>  (405) 
pfpi4k_grid

>  <i_i_glide_lignum>  (405) 
20

>  <i_i_glide_rotatable_bonds>  (405) 
4

>  <r_i_docking_score>  (405) 
-4.6067

>  <r_i_glide_ligand_efficiency>  (405) 
-0.191946

>  <r_i_glide_ligand_efficiency_sa>  (405) 
-0.553668

>  <r_i_glide_ligand_efficiency_ln>  (405) 
-1.10259

>  <r_i_glide_gscore>  (405) 
-4.6067

>  <r_i_glide_lipo>  (405) 
-0.866435

>  <r_i_glide_hbond>  (405) 
0

>  <r_i_glide_metal>  (405) 
-0

>  <r_i_glide_rewards>  (405) 
-1.69118

>  <r_i_glide_evdw>  (405) 
-29.2571

>  <r_i_glide_ecoul>  (405) 
-3.82905

>  <r_i_glide_erotb>  (405) 
0

>  <r_i_glide_esite>  (405) 
-0.0118701

>  <r_i_glide_emodel>  (405) 
-46.1866

>  <r_i_glide_energy>  (405) 
-33.0862

>  <r_i_glide_einternal>  (405) 
2.18355

>  <r_i_glide_intrahb_reward>  (405) 
-0.5

>  <i_i_glide_confnum>  (405) 
1

>  <i_i_glide_posenum>  (405) 
11

>  <r_i_glide_eff_state_penalty>  (405) 
0

>  <ligand_id>  (405) 
94

>  <original_smiles>  (405) 
COC1C2=CC3(O)C(=O)C(C)=CC3C3(O)CCC(=O)C1C31C(O)C21

>  <smiles>  (405) 
[H]OC12C(=O)C(C([H])([H])[H])=C([H])C1([H])C1(O[H])C([H])([H])C([H])([H])C(=O)C3([H])C([H])(OC([H])([H])[H])C(=C2[H])C2([H])C([H])(O[H])C321

$$$$
95:0:0
     RDKit          3D

 46 51  0  0  1  0  0  0  0  0999 V2000
    1.4243   -8.2416    1.6840 C   0  0  0  0  0  0  0  0  0  0  0  0
    2.0161   -7.6725    2.9939 C   0  0  1  0  0  0  0  0  0  0  0  0
    1.1851   -6.3892    3.3108 C   0  0  0  0  0  0  0  0  0  0  0  0
   -0.2007   -6.6287    3.4722 O   0  0  0  0  0  0  0  0  0  0  0  0
   -0.5357   -7.4418    4.5766 C   0  0  2  0  0  0  0  0  0  0  0  0
   -0.1893   -6.8928    5.8680 O   0  0  0  0  0  0  0  0  0  0  0  0
    0.3103   -8.1982    6.2537 C   0  0  0  0  0  0  0  0  0  0  0  0
    0.3871   -8.6362    4.7939 C   0  0  2  0  0  0  0  0  0  0  0  0
    1.7570   -8.7084    4.1183 C   0  0  2  0  0  0  0  0  0  0  0  0
    2.8738   -8.9865    4.9969 O   0  0  0  0  0  0  0  0  0  0  0  0
    2.4003  -10.0619    4.1912 C   0  0  2  0  0  0  0  0  0  0  0  0
    3.3050  -10.6284    3.1365 C   0  0  0  0  0  0  0  0  0  0  0  0
    4.3726   -9.7591    2.5053 C   0  0  0  0  0  0  0  0  0  0  0  0
    4.5399   -8.4180    2.3790 C   0  0  0  0  0  0  0  0  0  0  0  0
    5.8109   -8.0505    1.6499 C   0  0  0  0  0  0  0  0  0  0  0  0
    6.7062   -8.8555    1.3939 O   0  0  0  0  0  0  0  0  0  0  0  0
    5.9482   -6.7797    1.2079 O   0  0  0  0  0  0  0  0  0  0  0  0
    5.2015   -5.6806    1.6741 C   0  0  1  0  0  0  0  0  0  0  0  0
    5.4189   -4.4911    0.7626 C   0  0  0  0  0  0  0  0  0  0  0  0
    4.9979   -4.3400   -0.5911 C   0  0  0  0  0  0  0  0  0  0  0  0
    5.4481   -3.1222   -1.0183 C   0  0  0  0  0  0  0  0  0  0  0  0
    6.1282   -2.4911   -0.0275 O   0  0  0  0  0  0  0  0  0  0  0  0
    6.0904   -3.3300    1.0460 C   0  0  0  0  0  0  0  0  0  0  0  0
    3.7322   -6.0953    1.7997 C   0  0  0  0  0  0  0  0  0  0  0  0
    3.5608   -7.2821    2.7953 C   0  0  1  0  0  0  0  0  0  0  0  0
    4.0106   -6.7650    4.0378 O   0  0  0  0  0  0  0  0  0  0  0  0
    1.3381   -7.4787    0.9088 H   0  0  0  0  0  0  0  0  0  0  0  0
    0.4214   -8.6431    1.8500 H   0  0  0  0  0  0  0  0  0  0  0  0
    2.0195   -9.0565    1.2715 H   0  0  0  0  0  0  0  0  0  0  0  0
    1.5665   -5.8726    4.1909 H   0  0  0  0  0  0  0  0  0  0  0  0
    1.2143   -5.6854    2.4875 H   0  0  0  0  0  0  0  0  0  0  0  0
   -1.5870   -7.7417    4.5535 H   0  0  0  0  0  0  0  0  0  0  0  0
    1.2626   -8.1662    6.7834 H   0  0  0  0  0  0  0  0  0  0  0  0
   -0.4310   -8.7640    6.8273 H   0  0  0  0  0  0  0  0  0  0  0  0
   -0.1717   -9.5691    4.6981 H   0  0  0  0  0  0  0  0  0  0  0  0
    1.8628  -10.8309    4.7454 H   0  0  0  0  0  0  0  0  0  0  0  0
    3.8337  -11.4727    3.5867 H   0  0  0  0  0  0  0  0  0  0  0  0
    2.6878  -11.0542    2.3437 H   0  0  0  0  0  0  0  0  0  0  0  0
    5.1149  -10.4149    2.0693 H   0  0  0  0  0  0  0  0  0  0  0  0
    5.5966   -5.4020    2.6520 H   0  0  0  0  0  0  0  0  0  0  0  0
    4.4472   -5.0485   -1.1900 H   0  0  0  0  0  0  0  0  0  0  0  0
    5.3784   -2.5825   -1.9505 H   0  0  0  0  0  0  0  0  0  0  0  0
    6.6088   -2.9599    1.9174 H   0  0  0  0  0  0  0  0  0  0  0  0
    3.1895   -5.2067    2.1131 H   0  0  0  0  0  0  0  0  0  0  0  0
    3.3546   -6.3735    0.8150 H   0  0  0  0  0  0  0  0  0  0  0  0
    3.9114   -7.4610    4.6777 H   0  0  0  0  0  0  0  0  0  0  0  0
  2  1  1  6
  1 27  1  0
  1 28  1  0
  1 29  1  0
  2  9  1  0
  2 25  1  0
  2  3  1  0
  3  4  1  0
  3 30  1  0
  3 31  1  0
  4  5  1  0
  5  8  1  0
  5  6  1  0
  5 32  1  1
  6  7  1  0
  7  8  1  0
  7 33  1  0
  7 34  1  0
  8  9  1  0
  8 35  1  1
  9 11  1  0
  9 10  1  1
 10 11  1  0
 11 12  1  0
 11 36  1  1
 12 13  1  0
 12 37  1  0
 12 38  1  0
 13 14  2  0
 13 39  1  0
 14 25  1  0
 14 15  1  0
 15 16  2  0
 15 17  1  0
 17 18  1  0
 18 19  1  0
 18 24  1  0
 18 40  1  1
 19 23  2  0
 19 20  1  0
 20 21  2  0
 20 41  1  0
 21 22  1  0
 21 42  1  0
 22 23  1  0
 23 43  1  0
 24 25  1  0
 24 44  1  0
 24 45  1  0
 25 26  1  1
 26 46  1  0
M  END
>  <i_m_ct_stereo_status>  (406) 
1

>  <s_m_source_file>  (406) 
/var/tmp/pbs.5076255.sched01/tmp9yj1qf5s/135tauqa2n_.sdf

>  <i_m_source_file_index>  (406) 
21

>  <i_lp_mmshare_version>  (406) 
48012

>  <i_f3d_flags>  (406) 
0

>  <s_epik_input>  (406) 
TzFbQ0gyXVtDQEhdMltDQEBIXTFPW0NIMl1bQ0BAXShbQ0BdMjM0KShbQ0gzXSlbQ0BAXTUoW09IXSlDKD1bQ0hdW0NIMl1bQ0BIXTRPMylDKD1PKU9bQ0BIXShbQ0gyXTUpYzZbY0hdW2NIXW9bY0hdNg==

>  <s_epik_cmdline>  (406) 
J2VwaWtfcHl0aG9uJywgJy1waHQnLCAnMi4wJywgJy1waCcsICc3LjAnLCAnLXRuJywgJzgnLCAnLW1hJywgJzIwMCcsICctaW1hZScsICc8aW5maWxlLm1hZT4nLCAnLW9tYWUnLCAnPG91dGZpbGUubWFlPic=

>  <r_lp_tautomer_probability>  (406) 
1

>  <r_epik_Ionization_Penalty>  (406) 
4.08085e-05

>  <r_epik_Ionization_Penalty_Charging>  (406) 
0

>  <r_epik_Ionization_Penalty_Neutral>  (406) 
4.08085e-05

>  <r_epik_State_Penalty>  (406) 
-0

>  <r_epik_Charging_Adjusted_Penalty>  (406) 
0

>  <i_epik_Tot_Q>  (406) 
0

>  <i_epik_Tot_abs_Q>  (406) 
0

>  <s_epik_Chemistry_Notes>  (406) 
This compound has an ester and may undergo hydrolysis at high or low pH. This compound contains an acetal/aminal-like group ( X-CH(R)-Y where X, Y are N, S, or O) that may be acid/base labile, releasing an aldehyde.

>  <s_lp_Force_Field>  (406) 
OPLS3e

>  <r_lp_Energy>  (406) 
44.7406

>  <b_lp_Chiralities_Consistent>  (406) 
1

>  <s_lp_Variant>  (406) 
95:0-1

>  <s_i_glide_gridfile>  (406) 
pfpi4k_grid

>  <i_i_glide_lignum>  (406) 
21

>  <i_i_glide_rotatable_bonds>  (406) 
2

>  <r_i_docking_score>  (406) 
-3.70937

>  <r_i_glide_ligand_efficiency>  (406) 
-0.142668

>  <r_i_glide_ligand_efficiency_sa>  (406) 
-0.422654

>  <r_i_glide_ligand_efficiency_ln>  (406) 
-0.871134

>  <r_i_glide_gscore>  (406) 
-3.70937

>  <r_i_glide_lipo>  (406) 
-0.326388

>  <r_i_glide_hbond>  (406) 
-0.0807036

>  <r_i_glide_metal>  (406) 
-0

>  <r_i_glide_rewards>  (406) 
-1.56989

>  <r_i_glide_evdw>  (406) 
-25.0487

>  <r_i_glide_ecoul>  (406) 
-3.9223

>  <r_i_glide_erotb>  (406) 
0.147685

>  <r_i_glide_esite>  (406) 
-0.0393041

>  <r_i_glide_emodel>  (406) 
-40.8114

>  <r_i_glide_energy>  (406) 
-28.971

>  <r_i_glide_einternal>  (406) 
0.222084

>  <r_i_glide_intrahb_reward>  (406) 
-0.5

>  <i_i_glide_confnum>  (406) 
4

>  <i_i_glide_posenum>  (406) 
2

>  <r_i_glide_eff_state_penalty>  (406) 
0

>  <ligand_id>  (406) 
95

>  <original_smiles>  (406) 
CC12COC3OCC3C13OC3CC=C1C(=O)OC(c3ccoc3)CC12O

>  <smiles>  (406) 
[H]OC12C(=C([H])C([H])([H])C3([H])OC34C3([H])C([H])([H])OC3([H])OC([H])([H])C14C([H])([H])[H])C(=O)OC([H])(c1c([H])oc([H])c1[H])C2([H])[H]

$$$$
95:0:1
     RDKit          3D

 46 51  0  0  1  0  0  0  0  0999 V2000
    1.9296   -1.7988    3.1330 C   0  0  0  0  0  0  0  0  0  0  0  0
    3.0365   -0.7475    2.8645 C   0  0  1  0  0  0  0  0  0  0  0  0
    2.2966    0.5099    2.2989 C   0  0  0  0  0  0  0  0  0  0  0  0
    1.3308    1.0461    3.1831 O   0  0  0  0  0  0  0  0  0  0  0  0
    1.8283    1.5624    4.3963 C   0  0  2  0  0  0  0  0  0  0  0  0
    2.7023    2.7056    4.2826 O   0  0  0  0  0  0  0  0  0  0  0  0
    3.5968    2.0730    5.2343 C   0  0  0  0  0  0  0  0  0  0  0  0
    2.9333    0.7187    5.0225 C   0  0  2  0  0  0  0  0  0  0  0  0
    3.6649   -0.3737    4.2346 C   0  0  2  0  0  0  0  0  0  0  0  0
    5.1078   -0.3159    4.2980 O   0  0  0  0  0  0  0  0  0  0  0  0
    4.4706   -1.3131    5.0806 C   0  0  2  0  0  0  0  0  0  0  0  0
    4.7136   -2.7582    4.7547 C   0  0  0  0  0  0  0  0  0  0  0  0
    5.0388   -3.1708    3.3362 C   0  0  0  0  0  0  0  0  0  0  0  0
    4.8514   -2.6052    2.1156 C   0  0  0  0  0  0  0  0  0  0  0  0
    5.3817   -3.4522    0.9865 C   0  0  0  0  0  0  0  0  0  0  0  0
    6.1263   -4.4219    1.1579 O   0  0  0  0  0  0  0  0  0  0  0  0
    4.9861   -3.1564   -0.2769 O   0  0  0  0  0  0  0  0  0  0  0  0
    4.4468   -1.9119   -0.6674 C   0  0  1  0  0  0  0  0  0  0  0  0
    3.8807   -2.0213   -2.0628 C   0  0  0  0  0  0  0  0  0  0  0  0
    3.0410   -3.0423   -2.5759 C   0  0  0  0  0  0  0  0  0  0  0  0
    2.8107   -2.7506   -3.8941 C   0  0  0  0  0  0  0  0  0  0  0  0
    3.4468   -1.6030   -4.2404 O   0  0  0  0  0  0  0  0  0  0  0  0
    4.0660   -1.1534   -3.1163 C   0  0  0  0  0  0  0  0  0  0  0  0
    3.4244   -1.4692    0.3819 C   0  0  0  0  0  0  0  0  0  0  0  0
    4.0844   -1.2958    1.7775 C   0  0  1  0  0  0  0  0  0  0  0  0
    5.0488   -0.2753    1.5532 O   0  0  0  0  0  0  0  0  0  0  0  0
    1.2749   -1.9230    2.2726 H   0  0  0  0  0  0  0  0  0  0  0  0
    1.2949   -1.4989    3.9686 H   0  0  0  0  0  0  0  0  0  0  0  0
    2.3279   -2.7814    3.3802 H   0  0  0  0  0  0  0  0  0  0  0  0
    2.9992    1.2962    2.0250 H   0  0  0  0  0  0  0  0  0  0  0  0
    1.7105    0.2611    1.4159 H   0  0  0  0  0  0  0  0  0  0  0  0
    1.0297    1.7738    5.1122 H   0  0  0  0  0  0  0  0  0  0  0  0
    4.6459    2.1075    4.9536 H   0  0  0  0  0  0  0  0  0  0  0  0
    3.4530    2.4720    6.2438 H   0  0  0  0  0  0  0  0  0  0  0  0
    2.6182    0.3731    5.9999 H   0  0  0  0  0  0  0  0  0  0  0  0
    4.4985   -1.1101    6.1478 H   0  0  0  0  0  0  0  0  0  0  0  0
    5.5629   -3.0786    5.3653 H   0  0  0  0  0  0  0  0  0  0  0  0
    3.8545   -3.3334    5.1061 H   0  0  0  0  0  0  0  0  0  0  0  0
    5.5200   -4.1337    3.3789 H   0  0  0  0  0  0  0  0  0  0  0  0
    5.2692   -1.1949   -0.7258 H   0  0  0  0  0  0  0  0  0  0  0  0
    2.6547   -3.9022   -2.0556 H   0  0  0  0  0  0  0  0  0  0  0  0
    2.2399   -3.2272   -4.6724 H   0  0  0  0  0  0  0  0  0  0  0  0
    4.6092   -0.2335   -3.2419 H   0  0  0  0  0  0  0  0  0  0  0  0
    3.0016   -0.5426    0.0163 H   0  0  0  0  0  0  0  0  0  0  0  0
    2.6151   -2.1953    0.4209 H   0  0  0  0  0  0  0  0  0  0  0  0
    4.6213    0.4609    1.1416 H   0  0  0  0  0  0  0  0  0  0  0  0
  2  1  1  1
  1 27  1  0
  1 28  1  0
  1 29  1  0
  2  9  1  0
  2 25  1  0
  2  3  1  0
  3  4  1  0
  3 30  1  0
  3 31  1  0
  4  5  1  0
  5  8  1  0
  5  6  1  0
  5 32  1  1
  6  7  1  0
  7  8  1  0
  7 33  1  0
  7 34  1  0
  8  9  1  0
  8 35  1  1
  9 11  1  0
  9 10  1  6
 10 11  1  0
 11 12  1  0
 11 36  1  1
 12 13  1  0
 12 37  1  0
 12 38  1  0
 13 14  2  0
 13 39  1  0
 14 25  1  0
 14 15  1  0
 15 16  2  0
 15 17  1  0
 17 18  1  0
 18 19  1  0
 18 24  1  0
 18 40  1  6
 19 23  2  0
 19 20  1  0
 20 21  2  0
 20 41  1  0
 21 22  1  0
 21 42  1  0
 22 23  1  0
 23 43  1  0
 24 25  1  0
 24 44  1  0
 24 45  1  0
 25 26  1  6
 26 46  1  0
M  END
>  <i_m_ct_stereo_status>  (407) 
1

>  <s_m_source_file>  (407) 
/var/tmp/pbs.5076255.sched01/tmp9yj1qf5s/135tauqa2n_.sdf

>  <i_m_source_file_index>  (407) 
21

>  <i_lp_mmshare_version>  (407) 
48012

>  <i_f3d_flags>  (407) 
0

>  <s_epik_input>  (407) 
TzFbQ0gyXVtDQEhdMltDQEBIXTFPW0NIMl1bQ0BAXShbQ0BdMjM0KShbQ0gzXSlbQ0BAXTUoW09IXSlDKD1bQ0hdW0NIMl1bQ0BIXTRPMylDKD1PKU9bQ0BIXShbQ0gyXTUpYzZbY0hdW2NIXW9bY0hdNg==

>  <s_epik_cmdline>  (407) 
J2VwaWtfcHl0aG9uJywgJy1waHQnLCAnMi4wJywgJy1waCcsICc3LjAnLCAnLXRuJywgJzgnLCAnLW1hJywgJzIwMCcsICctaW1hZScsICc8aW5maWxlLm1hZT4nLCAnLW9tYWUnLCAnPG91dGZpbGUubWFlPic=

>  <r_lp_tautomer_probability>  (407) 
1

>  <r_epik_Ionization_Penalty>  (407) 
4.08085e-05

>  <r_epik_Ionization_Penalty_Charging>  (407) 
0

>  <r_epik_Ionization_Penalty_Neutral>  (407) 
4.08085e-05

>  <r_epik_State_Penalty>  (407) 
-0

>  <r_epik_Charging_Adjusted_Penalty>  (407) 
0

>  <i_epik_Tot_Q>  (407) 
0

>  <i_epik_Tot_abs_Q>  (407) 
0

>  <s_epik_Chemistry_Notes>  (407) 
This compound has an ester and may undergo hydrolysis at high or low pH. This compound contains an acetal/aminal-like group ( X-CH(R)-Y where X, Y are N, S, or O) that may be acid/base labile, releasing an aldehyde.

>  <s_lp_Force_Field>  (407) 
OPLS3e

>  <r_lp_Energy>  (407) 
44.7406

>  <b_lp_Chiralities_Consistent>  (407) 
1

>  <s_lp_Variant>  (407) 
95:0-1

>  <s_i_glide_gridfile>  (407) 
pfpi4k_grid

>  <i_i_glide_lignum>  (407) 
21

>  <i_i_glide_rotatable_bonds>  (407) 
2

>  <r_i_docking_score>  (407) 
-3.14216

>  <r_i_glide_ligand_efficiency>  (407) 
-0.120852

>  <r_i_glide_ligand_efficiency_sa>  (407) 
-0.358024

>  <r_i_glide_ligand_efficiency_ln>  (407) 
-0.737926

>  <r_i_glide_gscore>  (407) 
-3.14216

>  <r_i_glide_lipo>  (407) 
-0.347925

>  <r_i_glide_hbond>  (407) 
-0.187389

>  <r_i_glide_metal>  (407) 
-0

>  <r_i_glide_rewards>  (407) 
-1.01902

>  <r_i_glide_evdw>  (407) 
-28.5209

>  <r_i_glide_ecoul>  (407) 
-2.04592

>  <r_i_glide_erotb>  (407) 
0.147685

>  <r_i_glide_esite>  (407) 
-0.00257543

>  <r_i_glide_emodel>  (407) 
-36.2273

>  <r_i_glide_energy>  (407) 
-30.5668

>  <r_i_glide_einternal>  (407) 
0.310454

>  <r_i_glide_intrahb_reward>  (407) 
-0

>  <i_i_glide_confnum>  (407) 
2

>  <i_i_glide_posenum>  (407) 
10

>  <r_i_glide_eff_state_penalty>  (407) 
0

>  <ligand_id>  (407) 
95

>  <original_smiles>  (407) 
CC12COC3OCC3C13OC3CC=C1C(=O)OC(c3ccoc3)CC12O

>  <smiles>  (407) 
[H]OC12C(=C([H])C([H])([H])C3([H])OC34C3([H])C([H])([H])OC3([H])OC([H])([H])C14C([H])([H])[H])C(=O)OC([H])(c1c([H])oc([H])c1[H])C2([H])[H]

$$$$
95:0:2
     RDKit          3D

 46 51  0  0  1  0  0  0  0  0999 V2000
    3.3336   -2.9477    3.4122 C   0  0  0  0  0  0  0  0  0  0  0  0
    2.8204   -1.5860    2.8749 C   0  0  1  0  0  0  0  0  0  0  0  0
    1.3578   -1.8300    2.4896 C   0  0  0  0  0  0  0  0  0  0  0  0
    0.5366   -2.2992    3.5433 O   0  0  0  0  0  0  0  0  0  0  0  0
    0.3140   -1.3717    4.5866 C   0  0  2  0  0  0  0  0  0  0  0  0
   -0.4044   -0.1744    4.2289 O   0  0  0  0  0  0  0  0  0  0  0  0
    0.6157    0.5955    4.9391 C   0  0  0  0  0  0  0  0  0  0  0  0
    1.5624   -0.5815    4.9394 C   0  0  2  0  0  0  0  0  0  0  0  0
    2.7991   -0.5663    4.0416 C   0  0  2  0  0  0  0  0  0  0  0  0
    3.3430    0.7382    3.7572 O   0  0  0  0  0  0  0  0  0  0  0  0
    4.0450   -0.0517    4.7019 C   0  0  2  0  0  0  0  0  0  0  0  0
    5.4222   -0.4883    4.3281 C   0  0  0  0  0  0  0  0  0  0  0  0
    5.8185   -0.6551    2.8763 C   0  0  0  0  0  0  0  0  0  0  0  0
    5.1365   -0.9074    1.7255 C   0  0  0  0  0  0  0  0  0  0  0  0
    6.0371   -1.1500    0.5216 C   0  0  0  0  0  0  0  0  0  0  0  0
    7.2623   -1.0804    0.5262 O   0  0  0  0  0  0  0  0  0  0  0  0
    5.4924   -1.5600   -0.6207 O   0  0  0  0  0  0  0  0  0  0  0  0
    4.1239   -1.6298   -0.8959 C   0  0  1  0  0  0  0  0  0  0  0  0
    3.9309   -2.4853   -2.1158 C   0  0  0  0  0  0  0  0  0  0  0  0
    4.9063   -3.2673   -2.8007 C   0  0  0  0  0  0  0  0  0  0  0  0
    4.2758   -3.8146   -3.8788 C   0  0  0  0  0  0  0  0  0  0  0  0
    2.9771   -3.4242   -3.9243 O   0  0  0  0  0  0  0  0  0  0  0  0
    2.7737   -2.6415   -2.8356 C   0  0  0  0  0  0  0  0  0  0  0  0
    3.4053   -2.1338    0.3632 C   0  0  0  0  0  0  0  0  0  0  0  0
    3.6209   -1.1439    1.5627 C   0  0  1  0  0  0  0  0  0  0  0  0
    3.0552    0.0756    1.1139 O   0  0  0  0  0  0  0  0  0  0  0  0
    3.1089   -3.7585    2.7143 H   0  0  0  0  0  0  0  0  0  0  0  0
    2.8495   -3.1933    4.3639 H   0  0  0  0  0  0  0  0  0  0  0  0
    4.4066   -2.9393    3.5779 H   0  0  0  0  0  0  0  0  0  0  0  0
    0.8881   -0.9548    2.0356 H   0  0  0  0  0  0  0  0  0  0  0  0
    1.3598   -2.6445    1.7877 H   0  0  0  0  0  0  0  0  0  0  0  0
   -0.1056   -1.8236    5.4938 H   0  0  0  0  0  0  0  0  0  0  0  0
    0.9962    1.4706    4.4012 H   0  0  0  0  0  0  0  0  0  0  0  0
    0.3211    0.8425    5.9623 H   0  0  0  0  0  0  0  0  0  0  0  0
    1.8023   -0.7641    5.9896 H   0  0  0  0  0  0  0  0  0  0  0  0
    3.9740    0.2876    5.7382 H   0  0  0  0  0  0  0  0  0  0  0  0
    6.1196    0.2455    4.7526 H   0  0  0  0  0  0  0  0  0  0  0  0
    5.6226   -1.4220    4.8715 H   0  0  0  0  0  0  0  0  0  0  0  0
    6.8928   -0.5854    2.8024 H   0  0  0  0  0  0  0  0  0  0  0  0
    3.7857   -0.6275   -1.1701 H   0  0  0  0  0  0  0  0  0  0  0  0
    5.9488   -3.4349   -2.5580 H   0  0  0  0  0  0  0  0  0  0  0  0
    4.5840   -4.4959   -4.6512 H   0  0  0  0  0  0  0  0  0  0  0  0
    1.7759   -2.2601   -2.7150 H   0  0  0  0  0  0  0  0  0  0  0  0
    2.3534   -2.2293    0.0911 H   0  0  0  0  0  0  0  0  0  0  0  0
    3.7658   -3.1353    0.6067 H   0  0  0  0  0  0  0  0  0  0  0  0
    2.2365   -0.1220    0.6838 H   0  0  0  0  0  0  0  0  0  0  0  0
  2  1  1  1
  1 27  1  0
  1 28  1  0
  1 29  1  0
  2  9  1  0
  2 25  1  0
  2  3  1  0
  3  4  1  0
  3 30  1  0
  3 31  1  0
  4  5  1  0
  5  8  1  0
  5  6  1  0
  5 32  1  1
  6  7  1  0
  7  8  1  0
  7 33  1  0
  7 34  1  0
  8  9  1  0
  8 35  1  1
  9 11  1  0
  9 10  1  6
 10 11  1  0
 11 12  1  0
 11 36  1  1
 12 13  1  0
 12 37  1  0
 12 38  1  0
 13 14  2  0
 13 39  1  0
 14 25  1  0
 14 15  1  0
 15 16  2  0
 15 17  1  0
 17 18  1  0
 18 19  1  0
 18 24  1  0
 18 40  1  6
 19 23  2  0
 19 20  1  0
 20 21  2  0
 20 41  1  0
 21 22  1  0
 21 42  1  0
 22 23  1  0
 23 43  1  0
 24 25  1  0
 24 44  1  0
 24 45  1  0
 25 26  1  6
 26 46  1  0
M  END
>  <i_m_ct_stereo_status>  (408) 
1

>  <s_m_source_file>  (408) 
/var/tmp/pbs.5076255.sched01/tmp9yj1qf5s/135tauqa2n_.sdf

>  <i_m_source_file_index>  (408) 
21

>  <i_lp_mmshare_version>  (408) 
48012

>  <i_f3d_flags>  (408) 
0

>  <s_epik_input>  (408) 
TzFbQ0gyXVtDQEhdMltDQEBIXTFPW0NIMl1bQ0BAXShbQ0BdMjM0KShbQ0gzXSlbQ0BAXTUoW09IXSlDKD1bQ0hdW0NIMl1bQ0BIXTRPMylDKD1PKU9bQ0BIXShbQ0gyXTUpYzZbY0hdW2NIXW9bY0hdNg==

>  <s_epik_cmdline>  (408) 
J2VwaWtfcHl0aG9uJywgJy1waHQnLCAnMi4wJywgJy1waCcsICc3LjAnLCAnLXRuJywgJzgnLCAnLW1hJywgJzIwMCcsICctaW1hZScsICc8aW5maWxlLm1hZT4nLCAnLW9tYWUnLCAnPG91dGZpbGUubWFlPic=

>  <r_lp_tautomer_probability>  (408) 
1

>  <r_epik_Ionization_Penalty>  (408) 
4.08085e-05

>  <r_epik_Ionization_Penalty_Charging>  (408) 
0

>  <r_epik_Ionization_Penalty_Neutral>  (408) 
4.08085e-05

>  <r_epik_State_Penalty>  (408) 
-0

>  <r_epik_Charging_Adjusted_Penalty>  (408) 
0

>  <i_epik_Tot_Q>  (408) 
0

>  <i_epik_Tot_abs_Q>  (408) 
0

>  <s_epik_Chemistry_Notes>  (408) 
This compound has an ester and may undergo hydrolysis at high or low pH. This compound contains an acetal/aminal-like group ( X-CH(R)-Y where X, Y are N, S, or O) that may be acid/base labile, releasing an aldehyde.

>  <s_lp_Force_Field>  (408) 
OPLS3e

>  <r_lp_Energy>  (408) 
44.7406

>  <b_lp_Chiralities_Consistent>  (408) 
1

>  <s_lp_Variant>  (408) 
95:0-1

>  <s_i_glide_gridfile>  (408) 
pfpi4k_grid

>  <i_i_glide_lignum>  (408) 
21

>  <i_i_glide_rotatable_bonds>  (408) 
2

>  <r_i_docking_score>  (408) 
-2.85288

>  <r_i_glide_ligand_efficiency>  (408) 
-0.109726

>  <r_i_glide_ligand_efficiency_sa>  (408) 
-0.325063

>  <r_i_glide_ligand_efficiency_ln>  (408) 
-0.669989

>  <r_i_glide_gscore>  (408) 
-2.85288

>  <r_i_glide_lipo>  (408) 
-0.442226

>  <r_i_glide_hbond>  (408) 
-0.0206577

>  <r_i_glide_metal>  (408) 
-0

>  <r_i_glide_rewards>  (408) 
-1.11334

>  <r_i_glide_evdw>  (408) 
-28.0798

>  <r_i_glide_ecoul>  (408) 
-0.074693

>  <r_i_glide_erotb>  (408) 
0.147685

>  <r_i_glide_esite>  (408) 
-0.00914091

>  <r_i_glide_emodel>  (408) 
-32.86

>  <r_i_glide_energy>  (408) 
-28.1545

>  <r_i_glide_einternal>  (408) 
0.560116

>  <r_i_glide_intrahb_reward>  (408) 
-0

>  <i_i_glide_confnum>  (408) 
4

>  <i_i_glide_posenum>  (408) 
31

>  <r_i_glide_eff_state_penalty>  (408) 
0

>  <ligand_id>  (408) 
95

>  <original_smiles>  (408) 
CC12COC3OCC3C13OC3CC=C1C(=O)OC(c3ccoc3)CC12O

>  <smiles>  (408) 
[H]OC12C(=C([H])C([H])([H])C3([H])OC34C3([H])C([H])([H])OC3([H])OC([H])([H])C14C([H])([H])[H])C(=O)OC([H])(c1c([H])oc([H])c1[H])C2([H])[H]

$$$$
96:0:0
     RDKit          3D

 77 83  0  0  1  0  0  0  0  0999 V2000
    3.7941   -6.2713    0.5488 C   0  0  0  0  0  0  0  0  0  0  0  0
    2.9713   -5.5233    1.3047 C   0  0  0  0  0  0  0  0  0  0  0  0
    1.6102   -6.0198    1.6978 C   0  0  0  0  0  0  0  0  0  0  0  0
    1.4228   -5.6934    3.0398 O   0  0  0  0  0  0  0  0  0  0  0  0
    1.4480   -4.2962    3.1808 C   0  0  2  0  0  0  0  0  0  0  0  0
    2.4668   -3.4121    2.3873 C   0  0  1  0  0  0  0  0  0  0  0  0
    2.4690   -2.6890    1.0402 C   0  0  0  0  0  0  0  0  0  0  0  0
    3.8824   -2.2267    0.4299 C   0  0  2  0  0  0  0  0  0  0  0  0
    4.0287   -2.4615   -1.1436 C   0  0  0  0  0  0  0  0  0  0  0  0
    3.1141   -3.5676   -1.7044 C   0  0  0  0  0  0  0  0  0  0  0  0
    3.6402   -1.2048   -1.9487 C   0  0  0  0  0  0  0  0  0  0  0  0
    5.4739   -2.8016   -1.5878 C   0  0  0  0  0  0  0  0  0  0  0  0
    6.2286   -3.7664   -0.6794 C   0  0  0  0  0  0  0  0  0  0  0  0
    6.0817   -3.5452    0.8272 C   0  0  1  0  0  0  0  0  0  0  0  0
    7.4113   -3.6570    1.2770 O   0  0  0  0  0  0  0  0  0  0  0  0
    5.3007   -2.2591    1.2603 C   0  0  1  0  0  0  0  0  0  0  0  0
    6.1493   -1.0341    0.7297 C   0  0  0  0  0  0  0  0  0  0  0  0
    5.2989   -1.9972    2.8579 C   0  0  1  0  0  0  0  0  0  0  0  0
    4.3466   -0.8130    3.2459 C   0  0  1  0  0  0  0  0  0  0  0  0
    3.8156    0.0970    2.3137 O   0  0  0  0  0  0  0  0  0  0  0  0
    3.2969   -1.4243    4.1647 C   0  0  2  0  0  0  0  0  0  0  0  0
    2.7884   -0.4042    5.0174 O   0  0  0  0  0  0  0  0  0  0  0  0
    4.2393   -2.1325    4.9894 C   0  0  0  0  0  0  0  0  0  0  0  0
    5.0855   -3.0941    4.0395 C   0  0  2  0  0  0  0  0  0  0  0  0
    5.8261   -3.4941    5.3698 C   0  0  0  0  0  0  0  0  0  0  0  0
    4.8416   -4.7190    5.2931 C   0  0  2  0  0  0  0  0  0  0  0  0
    5.4413   -4.6983    3.9379 C   0  0  1  0  0  0  0  0  0  0  0  0
    4.9255   -5.7836    3.2462 O   0  0  0  0  0  0  0  0  0  0  0  0
    3.1987   -4.7793    5.3209 C   0  0  1  0  0  0  0  0  0  0  0  0
    2.9979   -4.8016    6.7235 O   0  0  0  0  0  0  0  0  0  0  0  0
    2.0489   -3.8361    4.5470 C   0  0  2  0  0  0  0  0  0  0  0  0
    0.8881   -3.7205    5.5704 C   0  0  0  0  0  0  0  0  0  0  0  0
    2.2821   -2.4975    3.6736 C   0  0  2  0  0  0  0  0  0  0  0  0
    1.0231   -1.5773    3.4831 C   0  0  0  0  0  0  0  0  0  0  0  0
    3.4107   -4.3774    1.9765 O   0  0  0  0  0  0  0  0  0  0  0  0
    4.8137   -6.0121    0.3494 H   0  0  0  0  0  0  0  0  0  0  0  0
    3.4512   -7.2006    0.1395 H   0  0  0  0  0  0  0  0  0  0  0  0
    0.8463   -5.5761    1.0701 H   0  0  0  0  0  0  0  0  0  0  0  0
    1.5423   -7.0991    1.5686 H   0  0  0  0  0  0  0  0  0  0  0  0
    0.4233   -3.9984    3.0414 H   0  0  0  0  0  0  0  0  0  0  0  0
    1.8737   -3.2838    0.3604 H   0  0  0  0  0  0  0  0  0  0  0  0
    1.8678   -1.7926    1.1031 H   0  0  0  0  0  0  0  0  0  0  0  0
    3.6794   -1.1676    0.3916 H   0  0  0  0  0  0  0  0  0  0  0  0
    3.3387   -3.8052   -2.7485 H   0  0  0  0  0  0  0  0  0  0  0  0
    2.0632   -3.2877   -1.7079 H   0  0  0  0  0  0  0  0  0  0  0  0
    3.2309   -4.4673   -1.1169 H   0  0  0  0  0  0  0  0  0  0  0  0
    3.7041   -1.3818   -3.0215 H   0  0  0  0  0  0  0  0  0  0  0  0
    4.2881   -0.3614   -1.7261 H   0  0  0  0  0  0  0  0  0  0  0  0
    2.6309   -0.9002   -1.7401 H   0  0  0  0  0  0  0  0  0  0  0  0
    5.4773   -3.2629   -2.5741 H   0  0  0  0  0  0  0  0  0  0  0  0
    6.0619   -1.8941   -1.7257 H   0  0  0  0  0  0  0  0  0  0  0  0
    5.9406   -4.7870   -0.8854 H   0  0  0  0  0  0  0  0  0  0  0  0
    7.2744   -3.6971   -0.9875 H   0  0  0  0  0  0  0  0  0  0  0  0
    5.5925   -4.3921    1.2680 H   0  0  0  0  0  0  0  0  0  0  0  0
    7.8386   -2.8201    1.1385 H   0  0  0  0  0  0  0  0  0  0  0  0
    6.4173   -0.2996    1.4912 H   0  0  0  0  0  0  0  0  0  0  0  0
    5.6316   -0.4259   -0.0063 H   0  0  0  0  0  0  0  0  0  0  0  0
    7.0939   -1.3311    0.2754 H   0  0  0  0  0  0  0  0  0  0  0  0
    6.2876   -1.6125    3.0571 H   0  0  0  0  0  0  0  0  0  0  0  0
    4.9790   -0.1276    3.8238 H   0  0  0  0  0  0  0  0  0  0  0  0
    3.2184   -0.3713    1.7424 H   0  0  0  0  0  0  0  0  0  0  0  0
    2.2858    0.1827    4.4640 H   0  0  0  0  0  0  0  0  0  0  0  0
    4.8925   -1.3783    5.4556 H   0  0  0  0  0  0  0  0  0  0  0  0
    3.7310   -2.5236    5.8659 H   0  0  0  0  0  0  0  0  0  0  0  0
    6.9028   -3.7238    5.3126 H   0  0  0  0  0  0  0  0  0  0  0  0
    5.7483   -2.9930    6.3418 H   0  0  0  0  0  0  0  0  0  0  0  0
    5.2803   -5.5220    5.8699 H   0  0  0  0  0  0  0  0  0  0  0  0
    6.5243   -4.8987    3.8126 H   0  0  0  0  0  0  0  0  0  0  0  0
    5.2958   -6.5546    3.6476 H   0  0  0  0  0  0  0  0  0  0  0  0
    2.9524   -5.8072    5.0445 H   0  0  0  0  0  0  0  0  0  0  0  0
    3.2529   -3.9573    7.0785 H   0  0  0  0  0  0  0  0  0  0  0  0
    1.1248   -3.0476    6.3947 H   0  0  0  0  0  0  0  0  0  0  0  0
    0.6083   -4.6921    5.9830 H   0  0  0  0  0  0  0  0  0  0  0  0
   -0.0294   -3.3470    5.1155 H   0  0  0  0  0  0  0  0  0  0  0  0
    0.5528   -1.2938    4.4238 H   0  0  0  0  0  0  0  0  0  0  0  0
    0.2306   -2.0030    2.8889 H   0  0  0  0  0  0  0  0  0  0  0  0
    1.2536   -0.6548    2.9544 H   0  0  0  0  0  0  0  0  0  0  0  0
  1  2  2  0
  1 36  1  0
  1 37  1  0
  2 35  1  0
  2  3  1  0
  3  4  1  0
  3 38  1  0
  3 39  1  0
  4  5  1  0
  5 31  1  0
  5  6  1  0
  5 40  1  1
  6 33  1  0
  6  7  1  0
  6 35  1  1
  7  8  1  0
  7 41  1  0
  7 42  1  0
  8 16  1  0
  8  9  1  0
  8 43  1  6
  9 10  1  0
  9 11  1  0
  9 12  1  0
 10 44  1  0
 10 45  1  0
 10 46  1  0
 11 47  1  0
 11 48  1  0
 11 49  1  0
 12 13  1  0
 12 50  1  0
 12 51  1  0
 13 14  1  0
 13 52  1  0
 13 53  1  0
 14 15  1  0
 14 16  1  0
 14 54  1  1
 15 55  1  0
 16 17  1  6
 16 18  1  0
 17 56  1  0
 17 57  1  0
 17 58  1  0
 18 24  1  0
 18 19  1  0
 18 59  1  1
 19 20  1  0
 19 21  1  0
 19 60  1  1
 20 61  1  0
 21 33  1  0
 21 22  1  1
 21 23  1  0
 22 62  1  0
 23 24  1  0
 23 63  1  0
 23 64  1  0
 24 27  1  0
 24 25  1  1
 25 26  1  0
 25 65  1  0
 25 66  1  0
 26 27  1  0
 26 29  1  0
 26 67  1  1
 27 28  1  0
 27 68  1  1
 28 69  1  0
 29 30  1  0
 29 31  1  0
 29 70  1  6
 30 71  1  0
 31 32  1  1
 31 33  1  0
 32 72  1  0
 32 73  1  0
 32 74  1  0
 33 34  1  6
 34 75  1  0
 34 76  1  0
 34 77  1  0
M  END
>  <i_m_ct_stereo_status>  (409) 
1

>  <s_m_source_file>  (409) 
/var/tmp/pbs.5076255.sched01/tmp9yj1qf5s/135tauqa2n_.sdf

>  <i_m_source_file_index>  (409) 
22

>  <i_lp_mmshare_version>  (409) 
48012

>  <i_f3d_flags>  (409) 
0

>  <s_epik_input>  (409) 
W0NIMl09QyhPMSlbQ0gyXU9bQ0BIXShbQ0BAXTEyMylbQ0BdNChbQ0gzXSlbQ0BAXTMoW0NIM10pW0NAXTUoW09IXSlbQ0BIXShbT0hdKVtDQEBIXShbQ0BdNihbQ0gyXTUpW0NIMl1bQ0BIXShbQ0BIXTZbT0hdKVtDQEhdNFtPSF0pW0NAXTcoW0NIM10pW0NASF0oW0NIMl0yKUMoW0NIM10pKFtDSDNdKVtDSDJdW0NIMl1bQ0BIXTdbT0hd

>  <s_epik_cmdline>  (409) 
J2VwaWtfcHl0aG9uJywgJy1waHQnLCAnMi4wJywgJy1waCcsICc3LjAnLCAnLXRuJywgJzgnLCAnLW1hJywgJzIwMCcsICctaW1hZScsICc8aW5maWxlLm1hZT4nLCAnLW9tYWUnLCAnPG91dGZpbGUubWFlPic=

>  <r_lp_tautomer_probability>  (409) 
1

>  <r_epik_Ionization_Penalty>  (409) 
2.68132e-06

>  <r_epik_Ionization_Penalty_Charging>  (409) 
0

>  <r_epik_Ionization_Penalty_Neutral>  (409) 
2.68132e-06

>  <r_epik_State_Penalty>  (409) 
-0

>  <r_epik_Charging_Adjusted_Penalty>  (409) 
0

>  <i_epik_Tot_Q>  (409) 
0

>  <i_epik_Tot_abs_Q>  (409) 
0

>  <s_lp_Force_Field>  (409) 
OPLS3e

>  <r_lp_Energy>  (409) 
342.002

>  <b_lp_Chiralities_Consistent>  (409) 
1

>  <s_lp_Variant>  (409) 
96:0-1

>  <s_i_glide_gridfile>  (409) 
pfpi4k_grid

>  <i_i_glide_lignum>  (409) 
22

>  <i_i_glide_rotatable_bonds>  (409) 
5

>  <r_i_docking_score>  (409) 
-1.72294

>  <r_i_glide_ligand_efficiency>  (409) 
-0.0492267

>  <r_i_glide_ligand_efficiency_sa>  (409) 
-0.161024

>  <r_i_glide_ligand_efficiency_ln>  (409) 
-0.378223

>  <r_i_glide_gscore>  (409) 
-1.72294

>  <r_i_glide_lipo>  (409) 
-0.628573

>  <r_i_glide_hbond>  (409) 
0

>  <r_i_glide_metal>  (409) 
-0

>  <r_i_glide_rewards>  (409) 
-0.063894

>  <r_i_glide_evdw>  (409) 
-16.689

>  <r_i_glide_ecoul>  (409) 
-1.30679

>  <r_i_glide_erotb>  (409) 
0

>  <r_i_glide_esite>  (409) 
0

>  <r_i_glide_emodel>  (409) 
-16.5002

>  <r_i_glide_energy>  (409) 
-17.9958

>  <r_i_glide_einternal>  (409) 
1.16805

>  <r_i_glide_intrahb_reward>  (409) 
-0

>  <i_i_glide_confnum>  (409) 
2

>  <i_i_glide_posenum>  (409) 
15

>  <r_i_glide_eff_state_penalty>  (409) 
0

>  <ligand_id>  (409) 
96

>  <original_smiles>  (409) 
C=C1COC2C3(CC4C(C)(C)CCC(O)C4(C)C4C(O)C5(O)CC46CC(C6O)C(O)C2(C)C53C)O1

>  <smiles>  (409) 
[H]OC1([H])C2([H])C34C([H])([H])C([H])(C3([H])O[H])C([H])(O[H])C3(C([H])([H])[H])C5([H])OC([H])([H])C(=C([H])[H])OC5(C([H])([H])C5([H])C(C([H])([H])[H])(C([H])([H])[H])C([H])([H])C([H])([H])C([H])(O[H])C52C([H])([H])[H])C3(C([H])([H])[H])C1(O[H])C4([H])[H]

$$$$
96:0:1
     RDKit          3D

 77 83  0  0  1  0  0  0  0  0999 V2000
    3.5382   -6.3982    0.8843 C   0  0  0  0  0  0  0  0  0  0  0  0
    2.7789   -5.5620    1.6120 C   0  0  0  0  0  0  0  0  0  0  0  0
    1.4001   -5.9471    2.0568 C   0  0  0  0  0  0  0  0  0  0  0  0
    1.2629   -5.5369    3.3818 O   0  0  0  0  0  0  0  0  0  0  0  0
    1.3582   -4.1346    3.4384 C   0  0  2  0  0  0  0  0  0  0  0  0
    2.4296   -3.3609    2.5925 C   0  0  1  0  0  0  0  0  0  0  0  0
    2.4496   -2.6933    1.2129 C   0  0  0  0  0  0  0  0  0  0  0  0
    3.8760   -2.3573    0.5602 C   0  0  2  0  0  0  0  0  0  0  0  0
    3.9904   -2.6757   -1.0016 C   0  0  0  0  0  0  0  0  0  0  0  0
    3.0007   -3.7318   -1.5076 C   0  0  0  0  0  0  0  0  0  0  0  0
    3.6606   -1.4321   -1.8598 C   0  0  0  0  0  0  0  0  0  0  0  0
    5.4085   -3.1387   -1.4323 C   0  0  0  0  0  0  0  0  0  0  0  0
    6.1322   -4.0853   -0.4721 C   0  0  0  0  0  0  0  0  0  0  0  0
    6.0005   -3.7762    1.0299 C   0  0  1  0  0  0  0  0  0  0  0  0
    7.2982   -3.9209    1.5581 O   0  0  0  0  0  0  0  0  0  0  0  0
    5.2987   -2.4237    1.3714 C   0  0  1  0  0  0  0  0  0  0  0  0
    6.2222   -1.2860    0.7679 C   0  0  0  0  0  0  0  0  0  0  0  0
    5.3357   -2.0859    2.9540 C   0  0  1  0  0  0  0  0  0  0  0  0
    4.4612   -0.8321    3.2836 C   0  0  1  0  0  0  0  0  0  0  0  0
    3.9591    0.0452    2.3043 O   0  0  0  0  0  0  0  0  0  0  0  0
    3.4024   -1.3245    4.2600 C   0  0  2  0  0  0  0  0  0  0  0  0
    2.9557   -0.2270    5.0479 O   0  0  0  0  0  0  0  0  0  0  0  0
    4.3083   -2.0542    5.1043 C   0  0  0  0  0  0  0  0  0  0  0  0
    5.0849   -3.0969    4.1960 C   0  0  2  0  0  0  0  0  0  0  0  0
    5.8427   -3.4756    5.5325 C   0  0  0  0  0  0  0  0  0  0  0  0
    4.7804   -4.6476    5.5291 C   0  0  2  0  0  0  0  0  0  0  0  0
    5.3523   -4.7281    4.1669 C   0  0  1  0  0  0  0  0  0  0  0  0
    4.7638   -5.8186    3.5359 O   0  0  0  0  0  0  0  0  0  0  0  0
    3.1359   -4.6109    5.5778 C   0  0  1  0  0  0  0  0  0  0  0  0
    2.9488   -4.5502    6.9849 O   0  0  0  0  0  0  0  0  0  0  0  0
    2.0092   -3.6397    4.7739 C   0  0  2  0  0  0  0  0  0  0  0  0
    0.8733   -3.4080    5.8032 C   0  0  0  0  0  0  0  0  0  0  0  0
    2.3121   -2.3616    3.8303 C   0  0  2  0  0  0  0  0  0  0  0  0
    1.0925   -1.3831    3.5994 C   0  0  0  0  0  0  0  0  0  0  0  0
    3.3083   -4.4146    2.2225 O   0  0  0  0  0  0  0  0  0  0  0  0
    4.5706   -6.2089    0.6543 H   0  0  0  0  0  0  0  0  0  0  0  0
    3.1327   -7.3311    0.5288 H   0  0  0  0  0  0  0  0  0  0  0  0
    0.6467   -5.4831    1.4254 H   0  0  0  0  0  0  0  0  0  0  0  0
    1.2787   -7.0302    1.9925 H   0  0  0  0  0  0  0  0  0  0  0  0
    0.3437   -3.7900    3.2782 H   0  0  0  0  0  0  0  0  0  0  0  0
    1.8339   -3.3057    0.5690 H   0  0  0  0  0  0  0  0  0  0  0  0
    1.8924   -1.7650    1.2312 H   0  0  0  0  0  0  0  0  0  0  0  0
    3.7327   -1.2920    0.4744 H   0  0  0  0  0  0  0  0  0  0  0  0
    3.2049   -3.9270   -2.5579 H   0  0  0  0  0  0  0  0  0  0  0  0
    1.9613   -3.4015   -1.4938 H   0  0  0  0  0  0  0  0  0  0  0  0
    3.0890   -4.6487   -0.9379 H   0  0  0  0  0  0  0  0  0  0  0  0
    3.6997   -1.6757   -2.9232 H   0  0  0  0  0  0  0  0  0  0  0  0
    4.3573   -0.6134   -1.6847 H   0  0  0  0  0  0  0  0  0  0  0  0
    2.6538   -1.0727   -1.6515 H   0  0  0  0  0  0  0  0  0  0  0  0
    5.3735   -3.6351   -2.4009 H   0  0  0  0  0  0  0  0  0  0  0  0
    6.0445   -2.2746   -1.6255 H   0  0  0  0  0  0  0  0  0  0  0  0
    5.8143   -5.1064   -0.6637 H   0  0  0  0  0  0  0  0  0  0  0  0
    7.1843   -4.0632   -0.7553 H   0  0  0  0  0  0  0  0  0  0  0  0
    5.4595   -4.5781    1.4913 H   0  0  0  0  0  0  0  0  0  0  0  0
    7.8197   -3.1890    1.2640 H   0  0  0  0  0  0  0  0  0  0  0  0
    6.5605   -0.5386    1.4830 H   0  0  0  0  0  0  0  0  0  0  0  0
    5.7266   -0.6822    0.0139 H   0  0  0  0  0  0  0  0  0  0  0  0
    7.1345   -1.6653    0.3125 H   0  0  0  0  0  0  0  0  0  0  0  0
    6.3436   -1.7463    3.1191 H   0  0  0  0  0  0  0  0  0  0  0  0
    5.1428   -0.1581    3.8170 H   0  0  0  0  0  0  0  0  0  0  0  0
    3.7393    0.8622    2.7272 H   0  0  0  0  0  0  0  0  0  0  0  0
    2.4331    0.3290    4.4907 H   0  0  0  0  0  0  0  0  0  0  0  0
    5.0046   -1.3141    5.5284 H   0  0  0  0  0  0  0  0  0  0  0  0
    3.7881   -2.3672    6.0101 H   0  0  0  0  0  0  0  0  0  0  0  0
    6.9054   -3.7439    5.5018 H   0  0  0  0  0  0  0  0  0  0  0  0
    5.8037   -2.9152    6.4731 H   0  0  0  0  0  0  0  0  0  0  0  0
    5.1716   -5.4521    6.1509 H   0  0  0  0  0  0  0  0  0  0  0  0
    6.4106   -4.9923    4.0329 H   0  0  0  0  0  0  0  0  0  0  0  0
    5.1765   -6.5919    3.9002 H   0  0  0  0  0  0  0  0  0  0  0  0
    2.8199   -5.6275    5.3618 H   0  0  0  0  0  0  0  0  0  0  0  0
    3.2922   -3.7287    7.3003 H   0  0  0  0  0  0  0  0  0  0  0  0
    1.1685   -2.7095    6.5887 H   0  0  0  0  0  0  0  0  0  0  0  0
    0.5513   -4.3412    6.2685 H   0  0  0  0  0  0  0  0  0  0  0  0
   -0.0289   -3.0043    5.3418 H   0  0  0  0  0  0  0  0  0  0  0  0
    0.6548   -1.0247    4.5310 H   0  0  0  0  0  0  0  0  0  0  0  0
    0.2653   -1.7934    3.0273 H   0  0  0  0  0  0  0  0  0  0  0  0
    1.3745   -0.5060    3.0192 H   0  0  0  0  0  0  0  0  0  0  0  0
  1  2  2  0
  1 36  1  0
  1 37  1  0
  2 35  1  0
  2  3  1  0
  3  4  1  0
  3 38  1  0
  3 39  1  0
  4  5  1  0
  5 31  1  0
  5  6  1  0
  5 40  1  6
  6 33  1  0
  6  7  1  0
  6 35  1  1
  7  8  1  0
  7 41  1  0
  7 42  1  0
  8 16  1  0
  8  9  1  0
  8 43  1  6
  9 10  1  0
  9 11  1  0
  9 12  1  0
 10 44  1  0
 10 45  1  0
 10 46  1  0
 11 47  1  0
 11 48  1  0
 11 49  1  0
 12 13  1  0
 12 50  1  0
 12 51  1  0
 13 14  1  0
 13 52  1  0
 13 53  1  0
 14 15  1  0
 14 16  1  0
 14 54  1  1
 15 55  1  0
 16 17  1  6
 16 18  1  0
 17 56  1  0
 17 57  1  0
 17 58  1  0
 18 24  1  0
 18 19  1  0
 18 59  1  1
 19 20  1  0
 19 21  1  0
 19 60  1  1
 20 61  1  0
 21 33  1  0
 21 22  1  1
 21 23  1  0
 22 62  1  0
 23 24  1  0
 23 63  1  0
 23 64  1  0
 24 27  1  0
 24 25  1  1
 25 26  1  0
 25 65  1  0
 25 66  1  0
 26 27  1  0
 26 29  1  0
 26 67  1  1
 27 28  1  0
 27 68  1  1
 28 69  1  0
 29 30  1  0
 29 31  1  0
 29 70  1  6
 30 71  1  0
 31 32  1  1
 31 33  1  0
 32 72  1  0
 32 73  1  0
 32 74  1  0
 33 34  1  6
 34 75  1  0
 34 76  1  0
 34 77  1  0
M  END
>  <i_m_ct_stereo_status>  (410) 
1

>  <s_m_source_file>  (410) 
/var/tmp/pbs.5076255.sched01/tmp9yj1qf5s/135tauqa2n_.sdf

>  <i_m_source_file_index>  (410) 
22

>  <i_lp_mmshare_version>  (410) 
48012

>  <i_f3d_flags>  (410) 
0

>  <s_epik_input>  (410) 
W0NIMl09QyhPMSlbQ0gyXU9bQ0BIXShbQ0BAXTEyMylbQ0BdNChbQ0gzXSlbQ0BAXTMoW0NIM10pW0NAXTUoW09IXSlbQ0BIXShbT0hdKVtDQEBIXShbQ0BdNihbQ0gyXTUpW0NIMl1bQ0BIXShbQ0BIXTZbT0hdKVtDQEhdNFtPSF0pW0NAXTcoW0NIM10pW0NASF0oW0NIMl0yKUMoW0NIM10pKFtDSDNdKVtDSDJdW0NIMl1bQ0BIXTdbT0hd

>  <s_epik_cmdline>  (410) 
J2VwaWtfcHl0aG9uJywgJy1waHQnLCAnMi4wJywgJy1waCcsICc3LjAnLCAnLXRuJywgJzgnLCAnLW1hJywgJzIwMCcsICctaW1hZScsICc8aW5maWxlLm1hZT4nLCAnLW9tYWUnLCAnPG91dGZpbGUubWFlPic=

>  <r_lp_tautomer_probability>  (410) 
1

>  <r_epik_Ionization_Penalty>  (410) 
2.68132e-06

>  <r_epik_Ionization_Penalty_Charging>  (410) 
0

>  <r_epik_Ionization_Penalty_Neutral>  (410) 
2.68132e-06

>  <r_epik_State_Penalty>  (410) 
-0

>  <r_epik_Charging_Adjusted_Penalty>  (410) 
0

>  <i_epik_Tot_Q>  (410) 
0

>  <i_epik_Tot_abs_Q>  (410) 
0

>  <s_lp_Force_Field>  (410) 
OPLS3e

>  <r_lp_Energy>  (410) 
342.002

>  <b_lp_Chiralities_Consistent>  (410) 
1

>  <s_lp_Variant>  (410) 
96:0-1

>  <s_i_glide_gridfile>  (410) 
pfpi4k_grid

>  <i_i_glide_lignum>  (410) 
22

>  <i_i_glide_rotatable_bonds>  (410) 
5

>  <r_i_docking_score>  (410) 
-1.58662

>  <r_i_glide_ligand_efficiency>  (410) 
-0.0453321

>  <r_i_glide_ligand_efficiency_sa>  (410) 
-0.148284

>  <r_i_glide_ligand_efficiency_ln>  (410) 
-0.348299

>  <r_i_glide_gscore>  (410) 
-1.58662

>  <r_i_glide_lipo>  (410) 
-0.615339

>  <r_i_glide_hbond>  (410) 
0

>  <r_i_glide_metal>  (410) 
-0

>  <r_i_glide_rewards>  (410) 
-0.063894

>  <r_i_glide_evdw>  (410) 
-13.7988

>  <r_i_glide_ecoul>  (410) 
-1.44968

>  <r_i_glide_erotb>  (410) 
0

>  <r_i_glide_esite>  (410) 
0

>  <r_i_glide_emodel>  (410) 
-14.223

>  <r_i_glide_energy>  (410) 
-15.2485

>  <r_i_glide_einternal>  (410) 
1.49722

>  <r_i_glide_intrahb_reward>  (410) 
-0

>  <i_i_glide_confnum>  (410) 
2

>  <i_i_glide_posenum>  (410) 
16

>  <r_i_glide_eff_state_penalty>  (410) 
0

>  <ligand_id>  (410) 
96

>  <original_smiles>  (410) 
C=C1COC2C3(CC4C(C)(C)CCC(O)C4(C)C4C(O)C5(O)CC46CC(C6O)C(O)C2(C)C53C)O1

>  <smiles>  (410) 
[H]OC1([H])C2([H])C34C([H])([H])C([H])(C3([H])O[H])C([H])(O[H])C3(C([H])([H])[H])C5([H])OC([H])([H])C(=C([H])[H])OC5(C([H])([H])C5([H])C(C([H])([H])[H])(C([H])([H])[H])C([H])([H])C([H])([H])C([H])(O[H])C52C([H])([H])[H])C3(C([H])([H])[H])C1(O[H])C4([H])[H]

$$$$
97:0:0
     RDKit          3D

 45 48  0  0  1  0  0  0  0  0999 V2000
    7.9055   -4.2080    0.4903 C   0  0  0  0  0  0  0  0  0  0  0  0
    6.6175   -3.8496   -0.2767 C   0  0  2  0  0  0  0  0  0  0  0  0
    6.9789   -3.0697   -1.5373 C   0  0  0  0  0  0  0  0  0  0  0  0
    5.7248   -2.8399   -2.3735 C   0  0  0  0  0  0  0  0  0  0  0  0
    4.6726   -2.0173   -1.6075 C   0  0  1  0  0  0  0  0  0  0  0  0
    3.4164   -1.6512   -2.4384 C   0  0  1  0  0  0  0  0  0  0  0  0
    3.7050   -1.0143   -3.8285 C   0  0  0  0  0  0  0  0  0  0  0  0
    2.4450   -2.8646   -2.5888 C   0  0  1  0  0  0  0  0  0  0  0  0
    2.8977   -3.7507   -3.5710 O   0  0  0  0  0  0  0  0  0  0  0  0
    2.1840   -3.4481   -1.3198 O   0  0  0  0  0  0  0  0  0  0  0  0
    3.3412   -3.8268   -0.5651 C   0  0  2  0  0  0  0  0  0  0  0  0
    3.1502   -4.7451    0.5002 O   0  0  0  0  0  0  0  0  0  0  0  0
    2.2223   -4.2213    1.5481 O   0  0  0  0  0  0  0  0  0  0  0  0
    2.7460   -3.0531    2.1530 C   0  0  1  0  0  0  0  0  0  0  0  0
    1.7808   -2.8225    3.3441 C   0  0  0  0  0  0  0  0  0  0  0  0
    4.1611   -3.2365    2.7631 C   0  0  0  0  0  0  0  0  0  0  0  0
    5.2864   -3.8163    1.8781 C   0  0  0  0  0  0  0  0  0  0  0  0
    5.5856   -3.0675    0.5613 C   0  0  2  0  0  0  0  0  0  0  0  0
    4.3091   -2.6521   -0.2335 C   0  0  1  0  0  0  0  0  0  0  0  0
    3.8400   -1.5944    0.5962 O   0  0  0  0  0  0  0  0  0  0  0  0
    2.5616   -1.9537    1.2813 O   0  0  0  0  0  0  0  0  0  0  0  0
    8.3664   -3.3254    0.9357 H   0  0  0  0  0  0  0  0  0  0  0  0
    8.6330   -4.6695   -0.1744 H   0  0  0  0  0  0  0  0  0  0  0  0
    7.7104   -4.9319    1.2833 H   0  0  0  0  0  0  0  0  0  0  0  0
    6.1556   -4.7876   -0.5874 H   0  0  0  0  0  0  0  0  0  0  0  0
    7.4451   -2.1184   -1.2665 H   0  0  0  0  0  0  0  0  0  0  0  0
    7.7179   -3.6029   -2.1301 H   0  0  0  0  0  0  0  0  0  0  0  0
    5.9843   -2.2997   -3.2618 H   0  0  0  0  0  0  0  0  0  0  0  0
    5.3490   -3.8059   -2.7221 H   0  0  0  0  0  0  0  0  0  0  0  0
    5.1555   -1.0695   -1.3734 H   0  0  0  0  0  0  0  0  0  0  0  0
    2.8780   -0.9021   -1.8768 H   0  0  0  0  0  0  0  0  0  0  0  0
    4.1990   -1.6917   -4.5217 H   0  0  0  0  0  0  0  0  0  0  0  0
    4.3446   -0.1366   -3.7295 H   0  0  0  0  0  0  0  0  0  0  0  0
    2.7919   -0.6800   -4.3152 H   0  0  0  0  0  0  0  0  0  0  0  0
    1.4831   -2.5081   -2.9713 H   0  0  0  0  0  0  0  0  0  0  0  0
    2.9061   -4.6452   -3.1758 H   0  0  0  0  0  0  0  0  0  0  0  0
    3.8884   -4.4912   -1.2470 H   0  0  0  0  0  0  0  0  0  0  0  0
    0.7706   -2.6513    2.9895 H   0  0  0  0  0  0  0  0  0  0  0  0
    2.0958   -1.9667    3.9403 H   0  0  0  0  0  0  0  0  0  0  0  0
    1.7683   -3.6928    4.0018 H   0  0  0  0  0  0  0  0  0  0  0  0
    4.5078   -2.3005    3.2092 H   0  0  0  0  0  0  0  0  0  0  0  0
    4.0847   -3.9322    3.6047 H   0  0  0  0  0  0  0  0  0  0  0  0
    6.1893   -3.8284    2.4880 H   0  0  0  0  0  0  0  0  0  0  0  0
    5.1016   -4.8775    1.6969 H   0  0  0  0  0  0  0  0  0  0  0  0
    6.0485   -2.1272    0.8519 H   0  0  0  0  0  0  0  0  0  0  0  0
  1  2  1  0
  1 22  1  0
  1 23  1  0
  1 24  1  0
  2 18  1  0
  2  3  1  0
  2 25  1  6
  3  4  1  0
  3 26  1  0
  3 27  1  0
  4  5  1  0
  4 28  1  0
  4 29  1  0
  5 19  1  0
  5  6  1  0
  5 30  1  1
  6  7  1  0
  6  8  1  0
  6 31  1  1
  7 32  1  0
  7 33  1  0
  7 34  1  0
  8  9  1  0
  8 10  1  0
  8 35  1  6
  9 36  1  0
 10 11  1  0
 11 19  1  0
 11 12  1  0
 11 37  1  6
 12 13  1  0
 13 14  1  0
 14 21  1  0
 14 15  1  1
 14 16  1  0
 15 38  1  0
 15 39  1  0
 15 40  1  0
 16 17  1  0
 16 41  1  0
 16 42  1  0
 17 18  1  0
 17 43  1  0
 17 44  1  0
 18 19  1  0
 18 45  1  1
 19 20  1  1
 20 21  1  0
M  END
>  <i_m_ct_stereo_status>  (411) 
1

>  <s_m_source_file>  (411) 
/var/tmp/pbs.5076255.sched01/tmp9yj1qf5s/135tauqa2n_.sdf

>  <i_m_source_file_index>  (411) 
23

>  <i_lp_mmshare_version>  (411) 
48012

>  <i_f3d_flags>  (411) 
0

>  <s_epik_input>  (411) 
W0NAXTEyM1tDQEhdNFtDSDJdW0NIMl1bQ0BASF0oW0NIM10pW0NAQEhdMltDSDJdW0NIMl1bQ0BAXShbQ0gzXSkoT08zKU9PW0NASF0xT1tDQEhdKFtPSF0pW0NAQEhdNFtDSDNd

>  <s_epik_cmdline>  (411) 
J2VwaWtfcHl0aG9uJywgJy1waHQnLCAnMi4wJywgJy1waCcsICc3LjAnLCAnLXRuJywgJzgnLCAnLW1hJywgJzIwMCcsICctaW1hZScsICc8aW5maWxlLm1hZT4nLCAnLW9tYWUnLCAnPG91dGZpbGUubWFlPic=

>  <r_lp_tautomer_probability>  (411) 
1

>  <r_epik_Ionization_Penalty>  (411) 
4.94637e-07

>  <r_epik_Ionization_Penalty_Charging>  (411) 
0

>  <r_epik_Ionization_Penalty_Neutral>  (411) 
4.94637e-07

>  <r_epik_State_Penalty>  (411) 
-0

>  <r_epik_Charging_Adjusted_Penalty>  (411) 
0

>  <i_epik_Tot_Q>  (411) 
0

>  <i_epik_Tot_abs_Q>  (411) 
0

>  <s_epik_Chemistry_Notes>  (411) 
This compound contains an acetal/aminal-like group ( X-CH(R)-Y where X, Y are N, S, or O) that may be acid/base labile, releasing an aldehyde.

>  <s_lp_Force_Field>  (411) 
OPLS3e

>  <r_lp_Energy>  (411) 
21.5015

>  <b_lp_Chiralities_Consistent>  (411) 
1

>  <s_lp_Variant>  (411) 
97:0-1

>  <s_i_glide_gridfile>  (411) 
pfpi4k_grid

>  <i_i_glide_lignum>  (411) 
23

>  <i_i_glide_rotatable_bonds>  (411) 
1

>  <r_i_docking_score>  (411) 
-4.05341

>  <r_i_glide_ligand_efficiency>  (411) 
-0.19302

>  <r_i_glide_ligand_efficiency_sa>  (411) 
-0.532526

>  <r_i_glide_ligand_efficiency_ln>  (411) 
-1.0022

>  <r_i_glide_gscore>  (411) 
-4.05341

>  <r_i_glide_lipo>  (411) 
-0.706931

>  <r_i_glide_hbond>  (411) 
0

>  <r_i_glide_metal>  (411) 
-0

>  <r_i_glide_rewards>  (411) 
-1.36127

>  <r_i_glide_evdw>  (411) 
-22.4754

>  <r_i_glide_ecoul>  (411) 
-5.60246

>  <r_i_glide_erotb>  (411) 
0

>  <r_i_glide_esite>  (411) 
-0.0210753

>  <r_i_glide_emodel>  (411) 
-33.6045

>  <r_i_glide_energy>  (411) 
-28.0779

>  <r_i_glide_einternal>  (411) 
2.20748

>  <r_i_glide_intrahb_reward>  (411) 
-0

>  <i_i_glide_confnum>  (411) 
2

>  <i_i_glide_posenum>  (411) 
31

>  <r_i_glide_eff_state_penalty>  (411) 
0

>  <ligand_id>  (411) 
97

>  <original_smiles>  (411) 
CC1CCC2C(C)C(O)OC3OOC4(C)CCC1C32OO4

>  <smiles>  (411) 
[H]OC1([H])OC2([H])OOC3(C([H])([H])[H])OOC24C([H])(C([H])([H])C([H])([H])C([H])(C([H])([H])[H])C4([H])C([H])([H])C3([H])[H])C1([H])C([H])([H])[H]

$$$$
97:0:1
     RDKit          3D

 45 48  0  0  1  0  0  0  0  0999 V2000
    7.9935   -4.9121    1.0755 C   0  0  0  0  0  0  0  0  0  0  0  0
    6.7823   -4.3491    0.3099 C   0  0  2  0  0  0  0  0  0  0  0  0
    7.2603   -3.2917   -0.6950 C   0  0  0  0  0  0  0  0  0  0  0  0
    6.1032   -2.8227   -1.5676 C   0  0  0  0  0  0  0  0  0  0  0  0
    4.9650   -2.2208   -0.7021 C   0  0  1  0  0  0  0  0  0  0  0  0
    3.7850   -1.6461   -1.5281 C   0  0  1  0  0  0  0  0  0  0  0  0
    4.1868   -0.7064   -2.6912 C   0  0  0  0  0  0  0  0  0  0  0  0
    2.8067   -2.7551   -2.0100 C   0  0  1  0  0  0  0  0  0  0  0  0
    3.3372   -3.4634   -3.1249 O   0  0  0  0  0  0  0  0  0  0  0  0
    2.4339   -3.6012   -0.9303 O   0  0  0  0  0  0  0  0  0  0  0  0
    3.5357   -4.2019   -0.2297 C   0  0  2  0  0  0  0  0  0  0  0  0
    3.2306   -5.3324    0.5873 O   0  0  0  0  0  0  0  0  0  0  0  0
    2.1868   -5.0080    1.5845 O   0  0  0  0  0  0  0  0  0  0  0  0
    2.6780   -4.0605    2.5157 C   0  0  1  0  0  0  0  0  0  0  0  0
    1.6499   -4.1073    3.6472 C   0  0  0  0  0  0  0  0  0  0  0  0
    4.0522   -4.4269    3.1738 C   0  0  0  0  0  0  0  0  0  0  0  0
    5.2608   -4.8057    2.2909 C   0  0  0  0  0  0  0  0  0  0  0  0
    5.6739   -3.7725    1.2222 C   0  0  2  0  0  0  0  0  0  0  0  0
    4.4813   -3.1559    0.4420 C   0  0  1  0  0  0  0  0  0  0  0  0
    3.9455   -2.3101    1.4679 O   0  0  0  0  0  0  0  0  0  0  0  0
    2.5996   -2.7666    1.9175 O   0  0  0  0  0  0  0  0  0  0  0  0
    8.4271   -4.1736    1.7499 H   0  0  0  0  0  0  0  0  0  0  0  0
    8.7766   -5.2262    0.3862 H   0  0  0  0  0  0  0  0  0  0  0  0
    7.7307   -5.7945    1.6592 H   0  0  0  0  0  0  0  0  0  0  0  0
    6.3457   -5.1752   -0.2492 H   0  0  0  0  0  0  0  0  0  0  0  0
    7.6980   -2.4443   -0.1685 H   0  0  0  0  0  0  0  0  0  0  0  0
    8.0442   -3.7076   -1.3296 H   0  0  0  0  0  0  0  0  0  0  0  0
    6.4899   -2.0819   -2.2661 H   0  0  0  0  0  0  0  0  0  0  0  0
    5.7572   -3.6596   -2.1692 H   0  0  0  0  0  0  0  0  0  0  0  0
    5.4149   -1.3677   -0.2034 H   0  0  0  0  0  0  0  0  0  0  0  0
    3.2007   -1.0360   -0.8300 H   0  0  0  0  0  0  0  0  0  0  0  0
    4.7284   -1.2188   -3.4900 H   0  0  0  0  0  0  0  0  0  0  0  0
    4.8195    0.1093   -2.3450 H   0  0  0  0  0  0  0  0  0  0  0  0
    3.3151   -0.2403   -3.1536 H   0  0  0  0  0  0  0  0  0  0  0  0
    1.9138   -2.2822   -2.4131 H   0  0  0  0  0  0  0  0  0  0  0  0
    3.0093   -4.3536   -3.1043 H   0  0  0  0  0  0  0  0  0  0  0  0
    4.1093   -4.6802   -1.0181 H   0  0  0  0  0  0  0  0  0  0  0  0
    0.6646   -3.8352    3.2817 H   0  0  0  0  0  0  0  0  0  0  0  0
    1.9195   -3.4285    4.4598 H   0  0  0  0  0  0  0  0  0  0  0  0
    1.5823   -5.1119    4.0849 H   0  0  0  0  0  0  0  0  0  0  0  0
    4.3576   -3.6354    3.8619 H   0  0  0  0  0  0  0  0  0  0  0  0
    3.9079   -5.2943    3.8280 H   0  0  0  0  0  0  0  0  0  0  0  0
    6.1013   -4.9730    2.9615 H   0  0  0  0  0  0  0  0  0  0  0  0
    5.0962   -5.7899    1.8504 H   0  0  0  0  0  0  0  0  0  0  0  0
    6.1106   -2.9362    1.7642 H   0  0  0  0  0  0  0  0  0  0  0  0
  1  2  1  0
  1 22  1  0
  1 23  1  0
  1 24  1  0
  2 18  1  0
  2  3  1  0
  2 25  1  6
  3  4  1  0
  3 26  1  0
  3 27  1  0
  4  5  1  0
  4 28  1  0
  4 29  1  0
  5 19  1  0
  5  6  1  0
  5 30  1  1
  6  7  1  0
  6  8  1  0
  6 31  1  1
  7 32  1  0
  7 33  1  0
  7 34  1  0
  8  9  1  0
  8 10  1  0
  8 35  1  6
  9 36  1  0
 10 11  1  0
 11 19  1  0
 11 12  1  0
 11 37  1  6
 12 13  1  0
 13 14  1  0
 14 21  1  0
 14 15  1  1
 14 16  1  0
 15 38  1  0
 15 39  1  0
 15 40  1  0
 16 17  1  0
 16 41  1  0
 16 42  1  0
 17 18  1  0
 17 43  1  0
 17 44  1  0
 18 19  1  0
 18 45  1  1
 19 20  1  1
 20 21  1  0
M  END
>  <i_m_ct_stereo_status>  (412) 
1

>  <s_m_source_file>  (412) 
/var/tmp/pbs.5076255.sched01/tmp9yj1qf5s/135tauqa2n_.sdf

>  <i_m_source_file_index>  (412) 
23

>  <i_lp_mmshare_version>  (412) 
48012

>  <i_f3d_flags>  (412) 
0

>  <s_epik_input>  (412) 
W0NAXTEyM1tDQEhdNFtDSDJdW0NIMl1bQ0BASF0oW0NIM10pW0NAQEhdMltDSDJdW0NIMl1bQ0BAXShbQ0gzXSkoT08zKU9PW0NASF0xT1tDQEhdKFtPSF0pW0NAQEhdNFtDSDNd

>  <s_epik_cmdline>  (412) 
J2VwaWtfcHl0aG9uJywgJy1waHQnLCAnMi4wJywgJy1waCcsICc3LjAnLCAnLXRuJywgJzgnLCAnLW1hJywgJzIwMCcsICctaW1hZScsICc8aW5maWxlLm1hZT4nLCAnLW9tYWUnLCAnPG91dGZpbGUubWFlPic=

>  <r_lp_tautomer_probability>  (412) 
1

>  <r_epik_Ionization_Penalty>  (412) 
4.94637e-07

>  <r_epik_Ionization_Penalty_Charging>  (412) 
0

>  <r_epik_Ionization_Penalty_Neutral>  (412) 
4.94637e-07

>  <r_epik_State_Penalty>  (412) 
-0

>  <r_epik_Charging_Adjusted_Penalty>  (412) 
0

>  <i_epik_Tot_Q>  (412) 
0

>  <i_epik_Tot_abs_Q>  (412) 
0

>  <s_epik_Chemistry_Notes>  (412) 
This compound contains an acetal/aminal-like group ( X-CH(R)-Y where X, Y are N, S, or O) that may be acid/base labile, releasing an aldehyde.

>  <s_lp_Force_Field>  (412) 
OPLS3e

>  <r_lp_Energy>  (412) 
21.5015

>  <b_lp_Chiralities_Consistent>  (412) 
1

>  <s_lp_Variant>  (412) 
97:0-1

>  <s_i_glide_gridfile>  (412) 
pfpi4k_grid

>  <i_i_glide_lignum>  (412) 
23

>  <i_i_glide_rotatable_bonds>  (412) 
1

>  <r_i_docking_score>  (412) 
-3.99581

>  <r_i_glide_ligand_efficiency>  (412) 
-0.190277

>  <r_i_glide_ligand_efficiency_sa>  (412) 
-0.524958

>  <r_i_glide_ligand_efficiency_ln>  (412) 
-0.987955

>  <r_i_glide_gscore>  (412) 
-3.99581

>  <r_i_glide_lipo>  (412) 
-0.602276

>  <r_i_glide_hbond>  (412) 
-0.00083716

>  <r_i_glide_metal>  (412) 
-0

>  <r_i_glide_rewards>  (412) 
-1.36127

>  <r_i_glide_evdw>  (412) 
-24.4314

>  <r_i_glide_ecoul>  (412) 
-5.02435

>  <r_i_glide_erotb>  (412) 
0

>  <r_i_glide_esite>  (412) 
-0.0562046

>  <r_i_glide_emodel>  (412) 
-34.8619

>  <r_i_glide_energy>  (412) 
-29.4557

>  <r_i_glide_einternal>  (412) 
1.55721

>  <r_i_glide_intrahb_reward>  (412) 
-0

>  <i_i_glide_confnum>  (412) 
2

>  <i_i_glide_posenum>  (412) 
36

>  <r_i_glide_eff_state_penalty>  (412) 
0

>  <ligand_id>  (412) 
97

>  <original_smiles>  (412) 
CC1CCC2C(C)C(O)OC3OOC4(C)CCC1C32OO4

>  <smiles>  (412) 
[H]OC1([H])OC2([H])OOC3(C([H])([H])[H])OOC24C([H])(C([H])([H])C([H])([H])C([H])(C([H])([H])[H])C4([H])C([H])([H])C3([H])[H])C1([H])C([H])([H])[H]

$$$$
97:0:2
     RDKit          3D

 45 48  0  0  1  0  0  0  0  0999 V2000
    5.4444   -9.4741    2.4443 C   0  0  0  0  0  0  0  0  0  0  0  0
    4.0389   -8.9152    2.7518 C   0  0  2  0  0  0  0  0  0  0  0  0
    3.0324  -10.0686    2.7875 C   0  0  0  0  0  0  0  0  0  0  0  0
    1.6511   -9.5731    3.2095 C   0  0  0  0  0  0  0  0  0  0  0  0
    1.1438   -8.4698    2.2531 C   0  0  1  0  0  0  0  0  0  0  0  0
   -0.2992   -7.9623    2.5434 C   0  0  1  0  0  0  0  0  0  0  0  0
   -1.3510   -9.0685    2.7811 C   0  0  0  0  0  0  0  0  0  0  0  0
   -0.2973   -6.9315    3.7152 C   0  0  1  0  0  0  0  0  0  0  0  0
   -0.1417   -7.5154    4.9821 O   0  0  0  0  0  0  0  0  0  0  0  0
    0.6391   -5.9085    3.4494 O   0  0  0  0  0  0  0  0  0  0  0  0
    1.9838   -6.3672    3.2899 C   0  0  2  0  0  0  0  0  0  0  0  0
    3.0154   -5.4049    3.4261 O   0  0  0  0  0  0  0  0  0  0  0  0
    2.8305   -4.2515    2.4841 O   0  0  0  0  0  0  0  0  0  0  0  0
    2.9995   -4.6763    1.1495 C   0  0  1  0  0  0  0  0  0  0  0  0
    3.0824   -3.3334    0.3823 C   0  0  0  0  0  0  0  0  0  0  0  0
    4.2780   -5.4746    0.7964 C   0  0  0  0  0  0  0  0  0  0  0  0
    4.6411   -6.7055    1.6430 C   0  0  0  0  0  0  0  0  0  0  0  0
    3.5804   -7.8191    1.7618 C   0  0  2  0  0  0  0  0  0  0  0  0
    2.1399   -7.2849    2.0546 C   0  0  1  0  0  0  0  0  0  0  0  0
    1.7625   -6.7474    0.7902 O   0  0  0  0  0  0  0  0  0  0  0  0
    1.8055   -5.2395    0.6943 O   0  0  0  0  0  0  0  0  0  0  0  0
    5.5184   -9.8403    1.4183 H   0  0  0  0  0  0  0  0  0  0  0  0
    5.6779  -10.3043    3.1096 H   0  0  0  0  0  0  0  0  0  0  0  0
    6.2202   -8.7254    2.6004 H   0  0  0  0  0  0  0  0  0  0  0  0
    4.0829   -8.4784    3.7510 H   0  0  0  0  0  0  0  0  0  0  0  0
    2.9691  -10.5469    1.8067 H   0  0  0  0  0  0  0  0  0  0  0  0
    3.3637  -10.8365    3.4815 H   0  0  0  0  0  0  0  0  0  0  0  0
    0.9720  -10.4244    3.2072 H   0  0  0  0  0  0  0  0  0  0  0  0
    1.7151   -9.2279    4.2417 H   0  0  0  0  0  0  0  0  0  0  0  0
    1.0909   -8.9632    1.2822 H   0  0  0  0  0  0  0  0  0  0  0  0
   -0.6268   -7.4266    1.6615 H   0  0  0  0  0  0  0  0  0  0  0  0
   -1.1462   -9.6526    3.6746 H   0  0  0  0  0  0  0  0  0  0  0  0
   -1.3760   -9.7712    1.9457 H   0  0  0  0  0  0  0  0  0  0  0  0
   -2.3577   -8.6684    2.8870 H   0  0  0  0  0  0  0  0  0  0  0  0
   -1.2877   -6.4648    3.7655 H   0  0  0  0  0  0  0  0  0  0  0  0
    0.5355   -8.1967    4.9152 H   0  0  0  0  0  0  0  0  0  0  0  0
    2.2023   -6.9885    4.1691 H   0  0  0  0  0  0  0  0  0  0  0  0
    2.1961   -2.7151    0.5460 H   0  0  0  0  0  0  0  0  0  0  0  0
    3.1886   -3.4953   -0.6932 H   0  0  0  0  0  0  0  0  0  0  0  0
    3.9489   -2.7552    0.7117 H   0  0  0  0  0  0  0  0  0  0  0  0
    4.2468   -5.7581   -0.2565 H   0  0  0  0  0  0  0  0  0  0  0  0
    5.1287   -4.7974    0.8820 H   0  0  0  0  0  0  0  0  0  0  0  0
    5.5439   -7.1234    1.1902 H   0  0  0  0  0  0  0  0  0  0  0  0
    4.9765   -6.3837    2.6296 H   0  0  0  0  0  0  0  0  0  0  0  0
    3.5283   -8.2899    0.7801 H   0  0  0  0  0  0  0  0  0  0  0  0
  1  2  1  0
  1 22  1  0
  1 23  1  0
  1 24  1  0
  2 18  1  0
  2  3  1  0
  2 25  1  1
  3  4  1  0
  3 26  1  0
  3 27  1  0
  4  5  1  0
  4 28  1  0
  4 29  1  0
  5 19  1  0
  5  6  1  0
  5 30  1  6
  6  7  1  0
  6  8  1  0
  6 31  1  6
  7 32  1  0
  7 33  1  0
  7 34  1  0
  8  9  1  0
  8 10  1  0
  8 35  1  1
  9 36  1  0
 10 11  1  0
 11 19  1  0
 11 12  1  0
 11 37  1  1
 12 13  1  0
 13 14  1  0
 14 21  1  0
 14 15  1  6
 14 16  1  0
 15 38  1  0
 15 39  1  0
 15 40  1  0
 16 17  1  0
 16 41  1  0
 16 42  1  0
 17 18  1  0
 17 43  1  0
 17 44  1  0
 18 19  1  0
 18 45  1  6
 19 20  1  6
 20 21  1  0
M  END
>  <i_m_ct_stereo_status>  (413) 
1

>  <s_m_source_file>  (413) 
/var/tmp/pbs.5076255.sched01/tmp9yj1qf5s/135tauqa2n_.sdf

>  <i_m_source_file_index>  (413) 
23

>  <i_lp_mmshare_version>  (413) 
48012

>  <i_f3d_flags>  (413) 
0

>  <s_epik_input>  (413) 
W0NAXTEyM1tDQEhdNFtDSDJdW0NIMl1bQ0BASF0oW0NIM10pW0NAQEhdMltDSDJdW0NIMl1bQ0BAXShbQ0gzXSkoT08zKU9PW0NASF0xT1tDQEhdKFtPSF0pW0NAQEhdNFtDSDNd

>  <s_epik_cmdline>  (413) 
J2VwaWtfcHl0aG9uJywgJy1waHQnLCAnMi4wJywgJy1waCcsICc3LjAnLCAnLXRuJywgJzgnLCAnLW1hJywgJzIwMCcsICctaW1hZScsICc8aW5maWxlLm1hZT4nLCAnLW9tYWUnLCAnPG91dGZpbGUubWFlPic=

>  <r_lp_tautomer_probability>  (413) 
1

>  <r_epik_Ionization_Penalty>  (413) 
4.94637e-07

>  <r_epik_Ionization_Penalty_Charging>  (413) 
0

>  <r_epik_Ionization_Penalty_Neutral>  (413) 
4.94637e-07

>  <r_epik_State_Penalty>  (413) 
-0

>  <r_epik_Charging_Adjusted_Penalty>  (413) 
0

>  <i_epik_Tot_Q>  (413) 
0

>  <i_epik_Tot_abs_Q>  (413) 
0

>  <s_epik_Chemistry_Notes>  (413) 
This compound contains an acetal/aminal-like group ( X-CH(R)-Y where X, Y are N, S, or O) that may be acid/base labile, releasing an aldehyde.

>  <s_lp_Force_Field>  (413) 
OPLS3e

>  <r_lp_Energy>  (413) 
21.5015

>  <b_lp_Chiralities_Consistent>  (413) 
1

>  <s_lp_Variant>  (413) 
97:0-1

>  <s_i_glide_gridfile>  (413) 
pfpi4k_grid

>  <i_i_glide_lignum>  (413) 
23

>  <i_i_glide_rotatable_bonds>  (413) 
1

>  <r_i_docking_score>  (413) 
-2.96785

>  <r_i_glide_ligand_efficiency>  (413) 
-0.141326

>  <r_i_glide_ligand_efficiency_sa>  (413) 
-0.389909

>  <r_i_glide_ligand_efficiency_ln>  (413) 
-0.733796

>  <r_i_glide_gscore>  (413) 
-2.96785

>  <r_i_glide_lipo>  (413) 
-0.129966

>  <r_i_glide_hbond>  (413) 
-0.0895805

>  <r_i_glide_metal>  (413) 
-0

>  <r_i_glide_rewards>  (413) 
-1.36127

>  <r_i_glide_evdw>  (413) 
-21.3182

>  <r_i_glide_ecoul>  (413) 
-1.65764

>  <r_i_glide_erotb>  (413) 
0

>  <r_i_glide_esite>  (413) 
-0.0724822

>  <r_i_glide_emodel>  (413) 
-27.4779

>  <r_i_glide_energy>  (413) 
-22.9759

>  <r_i_glide_einternal>  (413) 
0.0903307

>  <r_i_glide_intrahb_reward>  (413) 
-0

>  <i_i_glide_confnum>  (413) 
1

>  <i_i_glide_posenum>  (413) 
11

>  <r_i_glide_eff_state_penalty>  (413) 
0

>  <ligand_id>  (413) 
97

>  <original_smiles>  (413) 
CC1CCC2C(C)C(O)OC3OOC4(C)CCC1C32OO4

>  <smiles>  (413) 
[H]OC1([H])OC2([H])OOC3(C([H])([H])[H])OOC24C([H])(C([H])([H])C([H])([H])C([H])(C([H])([H])[H])C4([H])C([H])([H])C3([H])[H])C1([H])C([H])([H])[H]

$$$$
98:0:0
     RDKit          3D

 46 49  0  0  1  0  0  0  0  0999 V2000
    1.4232   -9.3517    2.1645 C   0  0  0  0  0  0  0  0  0  0  0  0
    1.9482   -8.2532    2.0640 C   0  0  0  0  0  0  0  0  0  0  0  0
    2.6227   -7.0055    1.9285 C   0  0  0  0  0  0  0  0  0  0  0  0
    3.6710   -6.6234    2.6606 C   0  0  0  0  0  0  0  0  0  0  0  0
    4.1566   -5.2344    2.2982 C   0  0  1  0  0  0  0  0  0  0  0  0
    4.4332   -4.4177    3.5794 C   0  0  0  0  0  0  0  0  0  0  0  0
    5.4345   -5.3732    1.4380 C   0  0  0  0  0  0  0  0  0  0  0  0
    5.6872   -4.1991    0.4817 C   0  0  0  0  0  0  0  0  0  0  0  0
    4.4777   -3.9743   -0.4685 C   0  0  1  0  0  0  0  0  0  0  0  0
    3.2420   -3.6287    0.3884 C   0  0  2  0  0  0  0  0  0  0  0  0
    3.3544   -2.2015    0.9697 C   0  0  0  0  0  0  0  0  0  0  0  0
    3.7903   -1.1902   -0.0619 C   0  0  0  0  0  0  0  0  0  0  0  0
    4.3590   -1.5183   -1.2328 C   0  0  0  0  0  0  0  0  0  0  0  0
    4.4841   -0.5050   -2.3569 C   0  0  0  0  0  0  0  0  0  0  0  0
    3.5590   -0.9028   -3.5049 C   0  0  0  0  0  0  0  0  0  0  0  0
    3.1969   -0.0507   -4.3046 O   0  0  0  0  0  0  0  0  0  0  0  0
    3.2262   -2.3248   -3.6630 C   0  0  0  0  0  0  0  0  0  0  0  0
    3.7693   -3.2350   -2.8337 C   0  0  0  0  0  0  0  0  0  0  0  0
    4.6899   -2.9503   -1.6422 C   0  0  2  0  0  0  0  0  0  0  0  0
    6.1221   -3.0515   -2.1830 C   0  0  0  0  0  0  0  0  0  0  0  0
    2.9384   -4.6914    1.4763 C   0  0  1  0  0  0  0  0  0  0  0  0
    2.1971   -5.9452    0.9611 C   0  0  0  0  0  0  0  0  0  0  0  0
    0.9845  -10.3179    2.2398 H   0  0  0  0  0  0  0  0  0  0  0  0
    4.1153   -7.2186    3.4422 H   0  0  0  0  0  0  0  0  0  0  0  0
    4.8641   -3.4469    3.3515 H   0  0  0  0  0  0  0  0  0  0  0  0
    5.1426   -4.9358    4.2291 H   0  0  0  0  0  0  0  0  0  0  0  0
    3.5252   -4.2569    4.1602 H   0  0  0  0  0  0  0  0  0  0  0  0
    6.3024   -5.5285    2.0833 H   0  0  0  0  0  0  0  0  0  0  0  0
    5.3612   -6.2761    0.8345 H   0  0  0  0  0  0  0  0  0  0  0  0
    5.9179   -3.2972    1.0474 H   0  0  0  0  0  0  0  0  0  0  0  0
    6.5895   -4.4468   -0.0792 H   0  0  0  0  0  0  0  0  0  0  0  0
    4.3006   -4.9416   -0.9353 H   0  0  0  0  0  0  0  0  0  0  0  0
    2.3807   -3.6076   -0.2835 H   0  0  0  0  0  0  0  0  0  0  0  0
    2.3752   -1.8952    1.3269 H   0  0  0  0  0  0  0  0  0  0  0  0
    4.0249   -2.1284    1.8211 H   0  0  0  0  0  0  0  0  0  0  0  0
    3.5262   -0.1717    0.1517 H   0  0  0  0  0  0  0  0  0  0  0  0
    4.2212    0.4918   -2.0241 H   0  0  0  0  0  0  0  0  0  0  0  0
    5.5036   -0.4546   -2.7141 H   0  0  0  0  0  0  0  0  0  0  0  0
    2.5650   -2.6145   -4.4733 H   0  0  0  0  0  0  0  0  0  0  0  0
    3.5281   -4.2523   -3.0041 H   0  0  0  0  0  0  0  0  0  0  0  0
    6.2109   -2.5119   -3.1158 H   0  0  0  0  0  0  0  0  0  0  0  0
    6.3471   -4.0751   -2.4534 H   0  0  0  0  0  0  0  0  0  0  0  0
    6.8807   -2.6707   -1.4912 H   0  0  0  0  0  0  0  0  0  0  0  0
    2.2491   -4.2386    2.1907 H   0  0  0  0  0  0  0  0  0  0  0  0
    2.5463   -6.2402   -0.0284 H   0  0  0  0  0  0  0  0  0  0  0  0
    1.1114   -5.8263    0.9332 H   0  0  0  0  0  0  0  0  0  0  0  0
  1  2  3  0
  1 23  1  0
  2  3  1  0
  3 22  1  0
  3  4  2  0
  4  5  1  0
  4 24  1  0
  5 21  1  0
  5  6  1  1
  5  7  1  0
  6 25  1  0
  6 26  1  0
  6 27  1  0
  7  8  1  0
  7 28  1  0
  7 29  1  0
  8  9  1  0
  8 30  1  0
  8 31  1  0
  9 19  1  0
  9 10  1  0
  9 32  1  6
 10 11  1  0
 10 21  1  0
 10 33  1  6
 11 12  1  0
 11 34  1  0
 11 35  1  0
 12 13  2  0
 12 36  1  0
 13 19  1  0
 13 14  1  0
 14 15  1  0
 14 37  1  0
 14 38  1  0
 15 16  2  0
 15 17  1  0
 17 18  2  0
 17 39  1  0
 18 19  1  0
 18 40  1  0
 19 20  1  6
 20 41  1  0
 20 42  1  0
 20 43  1  0
 21 22  1  0
 21 44  1  1
 22 45  1  0
 22 46  1  0
M  END
>  <i_m_ct_stereo_status>  (414) 
1

>  <s_m_source_file>  (414) 
/var/tmp/pbs.5076255.sched01/tmp9yj1qf5s/135tauqa2n_.sdf

>  <i_m_source_file_index>  (414) 
24

>  <i_lp_mmshare_version>  (414) 
48012

>  <i_f3d_flags>  (414) 
0

>  <s_epik_input>  (414) 
W0NIXSNDQyg9W0NIXTEpW0NIMl1bQ0BASF0oW0NAQF0xMltDSDNdKVtDQEBIXTNbQ0BIXShbQ0gyXVtDSDJdMilbQ0BdNChbQ0gzXSlDKD1bQ0hdW0NIMl0zKVtDSDJdQyg9TylbQ0hdPVtDSF00

>  <s_epik_cmdline>  (414) 
J2VwaWtfcHl0aG9uJywgJy1waHQnLCAnMi4wJywgJy1waCcsICc3LjAnLCAnLXRuJywgJzgnLCAnLW1hJywgJzIwMCcsICctaW1hZScsICc8aW5maWxlLm1hZT4nLCAnLW9tYWUnLCAnPG91dGZpbGUubWFlPic=

>  <r_lp_tautomer_probability>  (414) 
1

>  <r_epik_Ionization_Penalty>  (414) 
0

>  <r_epik_Ionization_Penalty_Charging>  (414) 
0

>  <r_epik_Ionization_Penalty_Neutral>  (414) 
0

>  <r_epik_State_Penalty>  (414) 
-0

>  <r_epik_Charging_Adjusted_Penalty>  (414) 
0

>  <i_epik_Tot_Q>  (414) 
0

>  <i_epik_Tot_abs_Q>  (414) 
0

>  <s_lp_Force_Field>  (414) 
OPLS3e

>  <r_lp_Energy>  (414) 
35.1564

>  <b_lp_Chiralities_Consistent>  (414) 
1

>  <s_lp_Variant>  (414) 
98:0-1

>  <s_i_glide_gridfile>  (414) 
pfpi4k_grid

>  <i_i_glide_lignum>  (414) 
24

>  <i_i_glide_rotatable_bonds>  (414) 
1

>  <r_i_docking_score>  (414) 
-3.49928

>  <r_i_glide_ligand_efficiency>  (414) 
-0.159058

>  <r_i_glide_ligand_efficiency_sa>  (414) 
-0.445687

>  <r_i_glide_ligand_efficiency_ln>  (414) 
-0.855351

>  <r_i_glide_gscore>  (414) 
-3.49928

>  <r_i_glide_lipo>  (414) 
-0.586191

>  <r_i_glide_hbond>  (414) 
0

>  <r_i_glide_metal>  (414) 
-0

>  <r_i_glide_rewards>  (414) 
-1.696

>  <r_i_glide_evdw>  (414) 
-26.445

>  <r_i_glide_ecoul>  (414) 
-0.722292

>  <r_i_glide_erotb>  (414) 
0.213512

>  <r_i_glide_esite>  (414) 
0

>  <r_i_glide_emodel>  (414) 
-33.3379

>  <r_i_glide_energy>  (414) 
-27.1673

>  <r_i_glide_einternal>  (414) 
-0.31222

>  <r_i_glide_intrahb_reward>  (414) 
-0

>  <i_i_glide_confnum>  (414) 
2

>  <i_i_glide_posenum>  (414) 
12

>  <r_i_glide_eff_state_penalty>  (414) 
0

>  <ligand_id>  (414) 
98

>  <original_smiles>  (414) 
C#CC1=CC2(C)CCC3C(CC=C4CC(=O)C=CC43C)C2C1

>  <smiles>  (414) 
[H]C#CC1=C([H])C2(C([H])([H])[H])C([H])([H])C([H])([H])C3([H])C4(C([H])([H])[H])C([H])=C([H])C(=O)C([H])([H])C4=C([H])C([H])([H])C3([H])C2([H])C1([H])[H]

$$$$
98:0:1
     RDKit          3D

 46 49  0  0  1  0  0  0  0  0999 V2000
    4.0274   -1.0360   -4.6981 C   0  0  0  0  0  0  0  0  0  0  0  0
    4.2710   -1.4392   -3.5688 C   0  0  0  0  0  0  0  0  0  0  0  0
    4.5205   -1.8391   -2.2239 C   0  0  0  0  0  0  0  0  0  0  0  0
    5.7171   -2.0927   -1.6864 C   0  0  0  0  0  0  0  0  0  0  0  0
    5.6264   -2.4948   -0.2285 C   0  0  1  0  0  0  0  0  0  0  0  0
    6.5376   -3.7072    0.0436 C   0  0  0  0  0  0  0  0  0  0  0  0
    6.0327   -1.2833    0.6494 C   0  0  0  0  0  0  0  0  0  0  0  0
    5.4112   -1.2788    2.0592 C   0  0  0  0  0  0  0  0  0  0  0  0
    3.8591   -1.3326    1.9937 C   0  0  1  0  0  0  0  0  0  0  0  0
    3.4496   -2.6487    1.2969 C   0  0  2  0  0  0  0  0  0  0  0  0
    3.6770   -3.8690    2.2211 C   0  0  0  0  0  0  0  0  0  0  0  0
    3.1568   -3.6329    3.6207 C   0  0  0  0  0  0  0  0  0  0  0  0
    2.8779   -2.4161    4.1273 C   0  0  0  0  0  0  0  0  0  0  0  0
    2.0920   -2.2703    5.4221 C   0  0  0  0  0  0  0  0  0  0  0  0
    0.7168   -1.6775    5.0845 C   0  0  0  0  0  0  0  0  0  0  0  0
   -0.2345   -1.9020    5.8319 O   0  0  0  0  0  0  0  0  0  0  0  0
    0.5988   -0.8290    3.8760 C   0  0  0  0  0  0  0  0  0  0  0  0
    1.6741   -0.5654    3.0987 C   0  0  0  0  0  0  0  0  0  0  0  0
    3.0857   -1.1084    3.3467 C   0  0  2  0  0  0  0  0  0  0  0  0
    3.8096   -0.0520    4.2187 C   0  0  0  0  0  0  0  0  0  0  0  0
    4.1047   -2.8313   -0.0980 C   0  0  1  0  0  0  0  0  0  0  0  0
    3.4156   -2.0474   -1.2341 C   0  0  0  0  0  0  0  0  0  0  0  0
    3.7950   -0.6477   -5.6621 H   0  0  0  0  0  0  0  0  0  0  0  0
    6.6518   -2.0527   -2.2223 H   0  0  0  0  0  0  0  0  0  0  0  0
    6.5548   -3.9724    1.0972 H   0  0  0  0  0  0  0  0  0  0  0  0
    7.5674   -3.5014   -0.2493 H   0  0  0  0  0  0  0  0  0  0  0  0
    6.2098   -4.5827   -0.5150 H   0  0  0  0  0  0  0  0  0  0  0  0
    7.1205   -1.2196    0.7248 H   0  0  0  0  0  0  0  0  0  0  0  0
    5.7231   -0.3585    0.1582 H   0  0  0  0  0  0  0  0  0  0  0  0
    5.8090   -2.1043    2.6500 H   0  0  0  0  0  0  0  0  0  0  0  0
    5.7542   -0.3644    2.5466 H   0  0  0  0  0  0  0  0  0  0  0  0
    3.5746   -0.5099    1.3383 H   0  0  0  0  0  0  0  0  0  0  0  0
    2.3727   -2.6011    1.1304 H   0  0  0  0  0  0  0  0  0  0  0  0
    3.1476   -4.7276    1.8087 H   0  0  0  0  0  0  0  0  0  0  0  0
    4.7219   -4.1603    2.2909 H   0  0  0  0  0  0  0  0  0  0  0  0
    2.9434   -4.5201    4.1998 H   0  0  0  0  0  0  0  0  0  0  0  0
    1.9652   -3.2392    5.9063 H   0  0  0  0  0  0  0  0  0  0  0  0
    2.6131   -1.6220    6.1261 H   0  0  0  0  0  0  0  0  0  0  0  0
   -0.3739   -0.4164    3.6431 H   0  0  0  0  0  0  0  0  0  0  0  0
    1.5464    0.0644    2.2277 H   0  0  0  0  0  0  0  0  0  0  0  0
    3.2082    0.2544    5.0765 H   0  0  0  0  0  0  0  0  0  0  0  0
    4.0084    0.8571    3.6487 H   0  0  0  0  0  0  0  0  0  0  0  0
    4.7584   -0.4207    4.6141 H   0  0  0  0  0  0  0  0  0  0  0  0
    3.9828   -3.8797   -0.3819 H   0  0  0  0  0  0  0  0  0  0  0  0
    3.0626   -1.0697   -0.9020 H   0  0  0  0  0  0  0  0  0  0  0  0
    2.5726   -2.5946   -1.6655 H   0  0  0  0  0  0  0  0  0  0  0  0
  1  2  3  0
  1 23  1  0
  2  3  1  0
  3 22  1  0
  3  4  2  0
  4  5  1  0
  4 24  1  0
  5 21  1  0
  5  6  1  6
  5  7  1  0
  6 25  1  0
  6 26  1  0
  6 27  1  0
  7  8  1  0
  7 28  1  0
  7 29  1  0
  8  9  1  0
  8 30  1  0
  8 31  1  0
  9 19  1  0
  9 10  1  0
  9 32  1  6
 10 11  1  0
 10 21  1  0
 10 33  1  6
 11 12  1  0
 11 34  1  0
 11 35  1  0
 12 13  2  0
 12 36  1  0
 13 19  1  0
 13 14  1  0
 14 15  1  0
 14 37  1  0
 14 38  1  0
 15 16  2  0
 15 17  1  0
 17 18  2  0
 17 39  1  0
 18 19  1  0
 18 40  1  0
 19 20  1  1
 20 41  1  0
 20 42  1  0
 20 43  1  0
 21 22  1  0
 21 44  1  6
 22 45  1  0
 22 46  1  0
M  END
>  <i_m_ct_stereo_status>  (415) 
1

>  <s_m_source_file>  (415) 
/var/tmp/pbs.5076255.sched01/tmp9yj1qf5s/135tauqa2n_.sdf

>  <i_m_source_file_index>  (415) 
24

>  <i_lp_mmshare_version>  (415) 
48012

>  <i_f3d_flags>  (415) 
0

>  <s_epik_input>  (415) 
W0NIXSNDQyg9W0NIXTEpW0NIMl1bQ0BASF0oW0NAQF0xMltDSDNdKVtDQEBIXTNbQ0BIXShbQ0gyXVtDSDJdMilbQ0BdNChbQ0gzXSlDKD1bQ0hdW0NIMl0zKVtDSDJdQyg9TylbQ0hdPVtDSF00

>  <s_epik_cmdline>  (415) 
J2VwaWtfcHl0aG9uJywgJy1waHQnLCAnMi4wJywgJy1waCcsICc3LjAnLCAnLXRuJywgJzgnLCAnLW1hJywgJzIwMCcsICctaW1hZScsICc8aW5maWxlLm1hZT4nLCAnLW9tYWUnLCAnPG91dGZpbGUubWFlPic=

>  <r_lp_tautomer_probability>  (415) 
1

>  <r_epik_Ionization_Penalty>  (415) 
0

>  <r_epik_Ionization_Penalty_Charging>  (415) 
0

>  <r_epik_Ionization_Penalty_Neutral>  (415) 
0

>  <r_epik_State_Penalty>  (415) 
-0

>  <r_epik_Charging_Adjusted_Penalty>  (415) 
0

>  <i_epik_Tot_Q>  (415) 
0

>  <i_epik_Tot_abs_Q>  (415) 
0

>  <s_lp_Force_Field>  (415) 
OPLS3e

>  <r_lp_Energy>  (415) 
35.1564

>  <b_lp_Chiralities_Consistent>  (415) 
1

>  <s_lp_Variant>  (415) 
98:0-1

>  <s_i_glide_gridfile>  (415) 
pfpi4k_grid

>  <i_i_glide_lignum>  (415) 
24

>  <i_i_glide_rotatable_bonds>  (415) 
1

>  <r_i_docking_score>  (415) 
-3.21894

>  <r_i_glide_ligand_efficiency>  (415) 
-0.146316

>  <r_i_glide_ligand_efficiency_sa>  (415) 
-0.409982

>  <r_i_glide_ligand_efficiency_ln>  (415) 
-0.786827

>  <r_i_glide_gscore>  (415) 
-3.21894

>  <r_i_glide_lipo>  (415) 
-0.529496

>  <r_i_glide_hbond>  (415) 
0

>  <r_i_glide_metal>  (415) 
-0

>  <r_i_glide_rewards>  (415) 
-1.41535

>  <r_i_glide_evdw>  (415) 
-25.86

>  <r_i_glide_ecoul>  (415) 
-1.27484

>  <r_i_glide_erotb>  (415) 
0.213512

>  <r_i_glide_esite>  (415) 
-0.00337741

>  <r_i_glide_emodel>  (415) 
-32.8474

>  <r_i_glide_energy>  (415) 
-27.1349

>  <r_i_glide_einternal>  (415) 
-0.313296

>  <r_i_glide_intrahb_reward>  (415) 
-0

>  <i_i_glide_confnum>  (415) 
1

>  <i_i_glide_posenum>  (415) 
24

>  <r_i_glide_eff_state_penalty>  (415) 
0

>  <ligand_id>  (415) 
98

>  <original_smiles>  (415) 
C#CC1=CC2(C)CCC3C(CC=C4CC(=O)C=CC43C)C2C1

>  <smiles>  (415) 
[H]C#CC1=C([H])C2(C([H])([H])[H])C([H])([H])C([H])([H])C3([H])C4(C([H])([H])[H])C([H])=C([H])C(=O)C([H])([H])C4=C([H])C([H])([H])C3([H])C2([H])C1([H])[H]

$$$$
98:0:2
     RDKit          3D

 46 49  0  0  1  0  0  0  0  0999 V2000
   -1.9806   -9.2179    2.2978 C   0  0  0  0  0  0  0  0  0  0  0  0
   -0.8548   -8.7976    2.5095 C   0  0  0  0  0  0  0  0  0  0  0  0
    0.4628   -8.2885    2.6853 C   0  0  0  0  0  0  0  0  0  0  0  0
    1.5514   -9.0195    2.9214 C   0  0  0  0  0  0  0  0  0  0  0  0
    2.8013   -8.1724    3.0491 C   0  0  1  0  0  0  0  0  0  0  0  0
    3.6343   -8.6330    4.2621 C   0  0  0  0  0  0  0  0  0  0  0  0
    3.6148   -8.2934    1.7357 C   0  0  0  0  0  0  0  0  0  0  0  0
    4.5072   -7.0761    1.4244 C   0  0  0  0  0  0  0  0  0  0  0  0
    3.6752   -5.7639    1.3667 C   0  0  1  0  0  0  0  0  0  0  0  0
    3.0305   -5.5383    2.7516 C   0  0  2  0  0  0  0  0  0  0  0  0
    4.0812   -5.0949    3.7984 C   0  0  0  0  0  0  0  0  0  0  0  0
    4.9882   -4.0085    3.2695 C   0  0  0  0  0  0  0  0  0  0  0  0
    5.1361   -3.7168    1.9634 C   0  0  0  0  0  0  0  0  0  0  0  0
    5.8289   -2.4391    1.5203 C   0  0  0  0  0  0  0  0  0  0  0  0
    4.7830   -1.5092    0.8954 C   0  0  0  0  0  0  0  0  0  0  0  0
    4.9822   -0.2981    0.9062 O   0  0  0  0  0  0  0  0  0  0  0  0
    3.5859   -2.1248    0.2774 C   0  0  0  0  0  0  0  0  0  0  0  0
    3.4294   -3.4682    0.2420 C   0  0  0  0  0  0  0  0  0  0  0  0
    4.4145   -4.4792    0.8394 C   0  0  2  0  0  0  0  0  0  0  0  0
    5.3993   -4.8431   -0.2961 C   0  0  0  0  0  0  0  0  0  0  0  0
    2.1853   -6.7458    3.2340 C   0  0  1  0  0  0  0  0  0  0  0  0
    0.7705   -6.8208    2.6196 C   0  0  0  0  0  0  0  0  0  0  0  0
   -2.9507   -9.6036    2.0865 H   0  0  0  0  0  0  0  0  0  0  0  0
    1.5631  -10.0953    3.0265 H   0  0  0  0  0  0  0  0  0  0  0  0
    4.5771   -8.0976    4.3315 H   0  0  0  0  0  0  0  0  0  0  0  0
    3.8797   -9.6930    4.1916 H   0  0  0  0  0  0  0  0  0  0  0  0
    3.0975   -8.4899    5.1988 H   0  0  0  0  0  0  0  0  0  0  0  0
    4.2147   -9.2069    1.7486 H   0  0  0  0  0  0  0  0  0  0  0  0
    2.9289   -8.4199    0.8962 H   0  0  0  0  0  0  0  0  0  0  0  0
    5.3131   -7.0019    2.1552 H   0  0  0  0  0  0  0  0  0  0  0  0
    4.9864   -7.2803    0.4659 H   0  0  0  0  0  0  0  0  0  0  0  0
    2.8761   -5.9700    0.6558 H   0  0  0  0  0  0  0  0  0  0  0  0
    2.3443   -4.6960    2.6550 H   0  0  0  0  0  0  0  0  0  0  0  0
    3.5650   -4.7004    4.6734 H   0  0  0  0  0  0  0  0  0  0  0  0
    4.7031   -5.9140    4.1519 H   0  0  0  0  0  0  0  0  0  0  0  0
    5.4803   -3.3982    4.0148 H   0  0  0  0  0  0  0  0  0  0  0  0
    6.2895   -1.9355    2.3708 H   0  0  0  0  0  0  0  0  0  0  0  0
    6.6172   -2.6461    0.7974 H   0  0  0  0  0  0  0  0  0  0  0  0
    2.8499   -1.4638   -0.1602 H   0  0  0  0  0  0  0  0  0  0  0  0
    2.5510   -3.8788   -0.2369 H   0  0  0  0  0  0  0  0  0  0  0  0
    5.7946   -3.9603   -0.8024 H   0  0  0  0  0  0  0  0  0  0  0  0
    4.9049   -5.4376   -1.0669 H   0  0  0  0  0  0  0  0  0  0  0  0
    6.2570   -5.4100    0.0727 H   0  0  0  0  0  0  0  0  0  0  0  0
    2.0095   -6.6133    4.3040 H   0  0  0  0  0  0  0  0  0  0  0  0
    0.7620   -6.5186    1.5729 H   0  0  0  0  0  0  0  0  0  0  0  0
    0.0469   -6.2221    3.1743 H   0  0  0  0  0  0  0  0  0  0  0  0
  1  2  3  0
  1 23  1  0
  2  3  1  0
  3 22  1  0
  3  4  2  0
  4  5  1  0
  4 24  1  0
  5 21  1  0
  5  6  1  1
  5  7  1  0
  6 25  1  0
  6 26  1  0
  6 27  1  0
  7  8  1  0
  7 28  1  0
  7 29  1  0
  8  9  1  0
  8 30  1  0
  8 31  1  0
  9 19  1  0
  9 10  1  0
  9 32  1  6
 10 11  1  0
 10 21  1  0
 10 33  1  6
 11 12  1  0
 11 34  1  0
 11 35  1  0
 12 13  2  0
 12 36  1  0
 13 19  1  0
 13 14  1  0
 14 15  1  0
 14 37  1  0
 14 38  1  0
 15 16  2  0
 15 17  1  0
 17 18  2  0
 17 39  1  0
 18 19  1  0
 18 40  1  0
 19 20  1  6
 20 41  1  0
 20 42  1  0
 20 43  1  0
 21 22  1  0
 21 44  1  1
 22 45  1  0
 22 46  1  0
M  END
>  <i_m_ct_stereo_status>  (416) 
1

>  <s_m_source_file>  (416) 
/var/tmp/pbs.5076255.sched01/tmp9yj1qf5s/135tauqa2n_.sdf

>  <i_m_source_file_index>  (416) 
24

>  <i_lp_mmshare_version>  (416) 
48012

>  <i_f3d_flags>  (416) 
0

>  <s_epik_input>  (416) 
W0NIXSNDQyg9W0NIXTEpW0NIMl1bQ0BASF0oW0NAQF0xMltDSDNdKVtDQEBIXTNbQ0BIXShbQ0gyXVtDSDJdMilbQ0BdNChbQ0gzXSlDKD1bQ0hdW0NIMl0zKVtDSDJdQyg9TylbQ0hdPVtDSF00

>  <s_epik_cmdline>  (416) 
J2VwaWtfcHl0aG9uJywgJy1waHQnLCAnMi4wJywgJy1waCcsICc3LjAnLCAnLXRuJywgJzgnLCAnLW1hJywgJzIwMCcsICctaW1hZScsICc8aW5maWxlLm1hZT4nLCAnLW9tYWUnLCAnPG91dGZpbGUubWFlPic=

>  <r_lp_tautomer_probability>  (416) 
1

>  <r_epik_Ionization_Penalty>  (416) 
0

>  <r_epik_Ionization_Penalty_Charging>  (416) 
0

>  <r_epik_Ionization_Penalty_Neutral>  (416) 
0

>  <r_epik_State_Penalty>  (416) 
-0

>  <r_epik_Charging_Adjusted_Penalty>  (416) 
0

>  <i_epik_Tot_Q>  (416) 
0

>  <i_epik_Tot_abs_Q>  (416) 
0

>  <s_lp_Force_Field>  (416) 
OPLS3e

>  <r_lp_Energy>  (416) 
35.1564

>  <b_lp_Chiralities_Consistent>  (416) 
1

>  <s_lp_Variant>  (416) 
98:0-1

>  <s_i_glide_gridfile>  (416) 
pfpi4k_grid

>  <i_i_glide_lignum>  (416) 
24

>  <i_i_glide_rotatable_bonds>  (416) 
1

>  <r_i_docking_score>  (416) 
-3.05606

>  <r_i_glide_ligand_efficiency>  (416) 
-0.138912

>  <r_i_glide_ligand_efficiency_sa>  (416) 
-0.389237

>  <r_i_glide_ligand_efficiency_ln>  (416) 
-0.747013

>  <r_i_glide_gscore>  (416) 
-3.05606

>  <r_i_glide_lipo>  (416) 
-0.600157

>  <r_i_glide_hbond>  (416) 
0

>  <r_i_glide_metal>  (416) 
-0

>  <r_i_glide_rewards>  (416) 
-1.45838

>  <r_i_glide_evdw>  (416) 
-24.8611

>  <r_i_glide_ecoul>  (416) 
0.213466

>  <r_i_glide_erotb>  (416) 
0.213512

>  <r_i_glide_esite>  (416) 
0

>  <r_i_glide_emodel>  (416) 
-30.0906

>  <r_i_glide_energy>  (416) 
-24.6477

>  <r_i_glide_einternal>  (416) 
-0.311945

>  <r_i_glide_intrahb_reward>  (416) 
-0

>  <i_i_glide_confnum>  (416) 
1

>  <i_i_glide_posenum>  (416) 
3

>  <r_i_glide_eff_state_penalty>  (416) 
0

>  <ligand_id>  (416) 
98

>  <original_smiles>  (416) 
C#CC1=CC2(C)CCC3C(CC=C4CC(=O)C=CC43C)C2C1

>  <smiles>  (416) 
[H]C#CC1=C([H])C2(C([H])([H])[H])C([H])([H])C([H])([H])C3([H])C4(C([H])([H])[H])C([H])=C([H])C(=O)C([H])([H])C4=C([H])C([H])([H])C3([H])C2([H])C1([H])[H]

$$$$
99:0:0
     RDKit          3D

 30 32  0  0  1  0  0  0  0  0999 V2000
    5.7556   -4.2042   -0.4548 C   0  0  0  0  0  0  0  0  0  0  0  0
    6.9461   -4.1383    0.1362 N   0  0  0  0  0  0  0  0  0  0  0  0
    7.6825   -3.3663   -0.7501 N   0  0  0  0  0  0  0  0  0  0  0  0
    6.9700   -3.0036   -1.7883 N   0  0  0  0  0  0  0  0  0  0  0  0
    5.7331   -3.5478   -1.5943 N   0  0  0  0  0  0  0  0  0  0  0  0
    4.6515   -3.3614   -2.5546 C   0  0  0  0  0  0  0  0  0  0  0  0
    4.0242   -1.9630   -2.4388 C   0  0  2  0  0  0  0  0  0  0  0  0
    2.6802   -1.8393   -3.1190 C   0  0  0  0  0  0  0  0  0  0  0  0
    2.6088   -0.3420   -3.4663 C   0  0  2  0  0  0  0  0  0  0  0  0
    1.9179    0.0184   -4.7872 C   0  0  0  0  0  0  0  0  0  0  0  0
    3.0464    0.2591   -5.7407 C   0  0  0  0  0  0  0  0  0  0  0  0
    4.0507    0.9364   -4.8512 C   0  0  0  0  0  0  0  0  0  0  0  0
    3.9605    0.2559   -3.4883 C   0  0  2  0  0  0  0  0  0  0  0  0
    4.8129   -0.9456   -3.2240 C   0  0  0  0  0  0  0  0  0  0  0  0
    4.9209   -4.7650   -0.0345 H   0  0  0  0  0  0  0  0  0  0  0  0
    5.0155   -3.5822   -3.5652 H   0  0  0  0  0  0  0  0  0  0  0  0
    3.8837   -4.0978   -2.3261 H   0  0  0  0  0  0  0  0  0  0  0  0
    3.9306   -1.6160   -1.4018 H   0  0  0  0  0  0  0  0  0  0  0  0
    2.6323   -2.4308   -4.0311 H   0  0  0  0  0  0  0  0  0  0  0  0
    1.8915   -2.1833   -2.4511 H   0  0  0  0  0  0  0  0  0  0  0  0
    2.0839    0.1452   -2.6660 H   0  0  0  0  0  0  0  0  0  0  0  0
    1.2529   -0.7750   -5.1198 H   0  0  0  0  0  0  0  0  0  0  0  0
    1.2928    0.9051   -4.7085 H   0  0  0  0  0  0  0  0  0  0  0  0
    3.4379   -0.6827   -6.1061 H   0  0  0  0  0  0  0  0  0  0  0  0
    2.7739    0.9257   -6.5460 H   0  0  0  0  0  0  0  0  0  0  0  0
    5.0199    0.9453   -5.3094 H   0  0  0  0  0  0  0  0  0  0  0  0
    3.7056    1.9645   -4.7283 H   0  0  0  0  0  0  0  0  0  0  0  0
    4.1312    0.9722   -2.7094 H   0  0  0  0  0  0  0  0  0  0  0  0
    5.6768   -0.6550   -2.6332 H   0  0  0  0  0  0  0  0  0  0  0  0
    4.9938   -1.3790   -4.2100 H   0  0  0  0  0  0  0  0  0  0  0  0
  1  5  1  0
  1  2  2  0
  1 15  1  0
  2  3  1  0
  3  4  2  0
  4  5  1  0
  5  6  1  0
  6  7  1  0
  6 16  1  0
  6 17  1  0
  7 14  1  0
  7  8  1  0
  7 18  1  1
  8  9  1  0
  8 19  1  0
  8 20  1  0
  9 13  1  0
  9 10  1  0
  9 21  1  1
 10 11  1  0
 10 22  1  0
 10 23  1  0
 11 12  1  0
 11 24  1  0
 11 25  1  0
 12 13  1  0
 12 26  1  0
 12 27  1  0
 13 14  1  0
 13 28  1  1
 14 29  1  0
 14 30  1  0
M  END
>  <i_m_ct_stereo_status>  (417) 
1

>  <s_m_source_file>  (417) 
/var/tmp/pbs.5076255.sched01/tmp9yj1qf5s/135tauqa2n_.sdf

>  <i_m_source_file_index>  (417) 
25

>  <i_lp_mmshare_version>  (417) 
48012

>  <i_f3d_flags>  (417) 
0

>  <s_epik_input>  (417) 
bjFubltjSF1uMVtDSDJdW0NASF0oW0NIMl0yKVtDSDJdW0NASF0oW0NASF0yMylbQ0gyXVtDSDJdW0NIMl0z

>  <s_epik_cmdline>  (417) 
J2VwaWtfcHl0aG9uJywgJy1waHQnLCAnMi4wJywgJy1waCcsICc3LjAnLCAnLXRuJywgJzgnLCAnLW1hJywgJzIwMCcsICctaW1hZScsICc8aW5maWxlLm1hZT4nLCAnLW9tYWUnLCAnPG91dGZpbGUubWFlPic=

>  <r_lp_tautomer_probability>  (417) 
1

>  <r_epik_Ionization_Penalty>  (417) 
3.56499e-09

>  <r_epik_Ionization_Penalty_Charging>  (417) 
0

>  <r_epik_Ionization_Penalty_Neutral>  (417) 
3.56499e-09

>  <r_epik_State_Penalty>  (417) 
-0

>  <r_epik_Charging_Adjusted_Penalty>  (417) 
0

>  <i_epik_Tot_Q>  (417) 
0

>  <i_epik_Tot_abs_Q>  (417) 
0

>  <s_lp_Force_Field>  (417) 
OPLS3e

>  <r_lp_Energy>  (417) 
3.96217

>  <b_lp_Chiralities_Consistent>  (417) 
1

>  <s_lp_Variant>  (417) 
99:0-1

>  <s_i_glide_gridfile>  (417) 
pfpi4k_grid

>  <i_i_glide_lignum>  (417) 
25

>  <i_i_glide_rotatable_bonds>  (417) 
2

>  <r_i_docking_score>  (417) 
-2.52485

>  <r_i_glide_ligand_efficiency>  (417) 
-0.180346

>  <r_i_glide_ligand_efficiency_sa>  (417) 
-0.43466

>  <r_i_glide_ligand_efficiency_ln>  (417) 
-0.693819

>  <r_i_glide_gscore>  (417) 
-2.52485

>  <r_i_glide_lipo>  (417) 
-0.425392

>  <r_i_glide_hbond>  (417) 
0

>  <r_i_glide_metal>  (417) 
-0

>  <r_i_glide_rewards>  (417) 
-2.36549

>  <r_i_glide_evdw>  (417) 
-6.80099

>  <r_i_glide_ecoul>  (417) 
-1.70438

>  <r_i_glide_erotb>  (417) 
0.872036

>  <r_i_glide_esite>  (417) 
-0.0102905

>  <r_i_glide_emodel>  (417) 
-8.45088

>  <r_i_glide_energy>  (417) 
-8.50536

>  <r_i_glide_einternal>  (417) 
1.02438

>  <r_i_glide_intrahb_reward>  (417) 
-0

>  <i_i_glide_confnum>  (417) 
1

>  <i_i_glide_posenum>  (417) 
40

>  <r_i_glide_eff_state_penalty>  (417) 
0

>  <ligand_id>  (417) 
99

>  <original_smiles>  (417) 
c1nnnn1CC1CC2CCCC2C1

>  <smiles>  (417) 
[H]c1nnnn1C([H])([H])C1([H])C([H])([H])C2([H])C([H])([H])C([H])([H])C([H])([H])C2([H])C1([H])[H]

$$$$
99:0:1
     RDKit          3D

 30 32  0  0  1  0  0  0  0  0999 V2000
    7.0360   -3.0486   -1.7799 C   0  0  0  0  0  0  0  0  0  0  0  0
    7.7469   -3.3135   -0.6959 N   0  0  0  0  0  0  0  0  0  0  0  0
    6.8400   -3.9816    0.1096 N   0  0  0  0  0  0  0  0  0  0  0  0
    5.6658   -4.0617   -0.4483 N   0  0  0  0  0  0  0  0  0  0  0  0
    5.7762   -3.4677   -1.6556 N   0  0  0  0  0  0  0  0  0  0  0  0
    4.6233   -3.3712   -2.5357 C   0  0  0  0  0  0  0  0  0  0  0  0
    3.9874   -1.9733   -2.4506 C   0  0  2  0  0  0  0  0  0  0  0  0
    2.6551   -1.8379   -3.1425 C   0  0  0  0  0  0  0  0  0  0  0  0
    2.6195   -0.3350   -3.4753 C   0  0  2  0  0  0  0  0  0  0  0  0
    1.9280    0.0421   -4.7975 C   0  0  0  0  0  0  0  0  0  0  0  0
    3.0671    0.2827   -5.7492 C   0  0  0  0  0  0  0  0  0  0  0  0
    4.0742    0.9456   -4.8492 C   0  0  0  0  0  0  0  0  0  0  0  0
    3.9773    0.2534   -3.4899 C   0  0  2  0  0  0  0  0  0  0  0  0
    4.8004   -0.9664   -3.2321 C   0  0  0  0  0  0  0  0  0  0  0  0
    7.4368   -2.5282   -2.6377 H   0  0  0  0  0  0  0  0  0  0  0  0
    4.9326   -3.6176   -3.5563 H   0  0  0  0  0  0  0  0  0  0  0  0
    3.9031   -4.1279   -2.2324 H   0  0  0  0  0  0  0  0  0  0  0  0
    3.8898   -1.6312   -1.4099 H   0  0  0  0  0  0  0  0  0  0  0  0
    2.6166   -2.4399   -4.0587 H   0  0  0  0  0  0  0  0  0  0  0  0
    1.8676   -2.1813   -2.4678 H   0  0  0  0  0  0  0  0  0  0  0  0
    2.1124    0.1424   -2.6741 H   0  0  0  0  0  0  0  0  0  0  0  0
    1.2431   -0.7173   -5.1403 H   0  0  0  0  0  0  0  0  0  0  0  0
    1.3288    0.9539   -4.7020 H   0  0  0  0  0  0  0  0  0  0  0  0
    3.4896   -0.6461   -6.1193 H   0  0  0  0  0  0  0  0  0  0  0  0
    2.7999    0.9695   -6.5462 H   0  0  0  0  0  0  0  0  0  0  0  0
    5.0216    0.9554   -5.3227 H   0  0  0  0  0  0  0  0  0  0  0  0
    3.7026    1.9672   -4.7075 H   0  0  0  0  0  0  0  0  0  0  0  0
    4.1634    0.9571   -2.6995 H   0  0  0  0  0  0  0  0  0  0  0  0
    5.6553   -0.6831   -2.6257 H   0  0  0  0  0  0  0  0  0  0  0  0
    5.0154   -1.4005   -4.2167 H   0  0  0  0  0  0  0  0  0  0  0  0
  1  5  1  0
  1  2  2  0
  1 15  1  0
  2  3  1  0
  3  4  2  0
  4  5  1  0
  5  6  1  0
  6  7  1  0
  6 16  1  0
  6 17  1  0
  7 14  1  0
  7  8  1  0
  7 18  1  1
  8  9  1  0
  8 19  1  0
  8 20  1  0
  9 13  1  0
  9 10  1  0
  9 21  1  1
 10 11  1  0
 10 22  1  0
 10 23  1  0
 11 12  1  0
 11 24  1  0
 11 25  1  0
 12 13  1  0
 12 26  1  0
 12 27  1  0
 13 14  1  0
 13 28  1  1
 14 29  1  0
 14 30  1  0
M  END
>  <i_m_ct_stereo_status>  (418) 
1

>  <s_m_source_file>  (418) 
/var/tmp/pbs.5076255.sched01/tmp9yj1qf5s/135tauqa2n_.sdf

>  <i_m_source_file_index>  (418) 
25

>  <i_lp_mmshare_version>  (418) 
48012

>  <i_f3d_flags>  (418) 
0

>  <s_epik_input>  (418) 
bjFubltjSF1uMVtDSDJdW0NASF0oW0NIMl0yKVtDSDJdW0NASF0oW0NASF0yMylbQ0gyXVtDSDJdW0NIMl0z

>  <s_epik_cmdline>  (418) 
J2VwaWtfcHl0aG9uJywgJy1waHQnLCAnMi4wJywgJy1waCcsICc3LjAnLCAnLXRuJywgJzgnLCAnLW1hJywgJzIwMCcsICctaW1hZScsICc8aW5maWxlLm1hZT4nLCAnLW9tYWUnLCAnPG91dGZpbGUubWFlPic=

>  <r_lp_tautomer_probability>  (418) 
1

>  <r_epik_Ionization_Penalty>  (418) 
3.56499e-09

>  <r_epik_Ionization_Penalty_Charging>  (418) 
0

>  <r_epik_Ionization_Penalty_Neutral>  (418) 
3.56499e-09

>  <r_epik_State_Penalty>  (418) 
-0

>  <r_epik_Charging_Adjusted_Penalty>  (418) 
0

>  <i_epik_Tot_Q>  (418) 
0

>  <i_epik_Tot_abs_Q>  (418) 
0

>  <s_lp_Force_Field>  (418) 
OPLS3e

>  <r_lp_Energy>  (418) 
3.96217

>  <b_lp_Chiralities_Consistent>  (418) 
1

>  <s_lp_Variant>  (418) 
99:0-1

>  <s_i_glide_gridfile>  (418) 
pfpi4k_grid

>  <i_i_glide_lignum>  (418) 
25

>  <i_i_glide_rotatable_bonds>  (418) 
2

>  <r_i_docking_score>  (418) 
-2.45532

>  <r_i_glide_ligand_efficiency>  (418) 
-0.17538

>  <r_i_glide_ligand_efficiency_sa>  (418) 
-0.42269

>  <r_i_glide_ligand_efficiency_ln>  (418) 
-0.674712

>  <r_i_glide_gscore>  (418) 
-2.45532

>  <r_i_glide_lipo>  (418) 
-0.438939

>  <r_i_glide_hbond>  (418) 
0

>  <r_i_glide_metal>  (418) 
-0

>  <r_i_glide_rewards>  (418) 
-2.34215

>  <r_i_glide_evdw>  (418) 
-8.15094

>  <r_i_glide_ecoul>  (418) 
-0.876765

>  <r_i_glide_erotb>  (418) 
0.872036

>  <r_i_glide_esite>  (418) 
-0.0072002

>  <r_i_glide_emodel>  (418) 
-8.30366

>  <r_i_glide_energy>  (418) 
-9.0277

>  <r_i_glide_einternal>  (418) 
0.984336

>  <r_i_glide_intrahb_reward>  (418) 
-0

>  <i_i_glide_confnum>  (418) 
2

>  <i_i_glide_posenum>  (418) 
11

>  <r_i_glide_eff_state_penalty>  (418) 
0

>  <ligand_id>  (418) 
99

>  <original_smiles>  (418) 
c1nnnn1CC1CC2CCCC2C1

>  <smiles>  (418) 
[H]c1nnnn1C([H])([H])C1([H])C([H])([H])C2([H])C([H])([H])C([H])([H])C([H])([H])C2([H])C1([H])[H]

$$$$
99:0:2
     RDKit          3D

 30 32  0  0  1  0  0  0  0  0999 V2000
    4.8785   -4.8119   -0.5843 C   0  0  0  0  0  0  0  0  0  0  0  0
    5.7809   -4.9341    0.3788 N   0  0  0  0  0  0  0  0  0  0  0  0
    6.7149   -3.9694    0.0434 N   0  0  0  0  0  0  0  0  0  0  0  0
    6.3967   -3.3378   -1.0593 N   0  0  0  0  0  0  0  0  0  0  0  0
    5.2188   -3.8810   -1.4690 N   0  0  0  0  0  0  0  0  0  0  0  0
    4.5510   -3.4325   -2.6661 C   0  0  0  0  0  0  0  0  0  0  0  0
    3.9739   -2.0128   -2.4969 C   0  0  2  0  0  0  0  0  0  0  0  0
    2.6358   -1.8251   -3.1595 C   0  0  0  0  0  0  0  0  0  0  0  0
    2.5773   -0.3078   -3.4319 C   0  0  2  0  0  0  0  0  0  0  0  0
    1.9000    0.0884   -4.7526 C   0  0  0  0  0  0  0  0  0  0  0  0
    3.0455    0.3255   -5.6980 C   0  0  0  0  0  0  0  0  0  0  0  0
    4.0464    0.9699   -4.7995 C   0  0  0  0  0  0  0  0  0  0  0  0
    3.9666    0.2402   -3.4776 C   0  0  2  0  0  0  0  0  0  0  0  0
    4.7965   -0.9884   -3.2409 C   0  0  0  0  0  0  0  0  0  0  0  0
    3.9829   -5.4158   -0.6378 H   0  0  0  0  0  0  0  0  0  0  0  0
    5.2398   -3.5274   -3.5138 H   0  0  0  0  0  0  0  0  0  0  0  0
    3.7370   -4.1230   -2.8767 H   0  0  0  0  0  0  0  0  0  0  0  0
    3.8803   -1.7018   -1.4477 H   0  0  0  0  0  0  0  0  0  0  0  0
    2.5586   -2.3742   -4.0965 H   0  0  0  0  0  0  0  0  0  0  0  0
    1.8503   -2.1915   -2.5037 H   0  0  0  0  0  0  0  0  0  0  0  0
    2.0414    0.1395   -2.6326 H   0  0  0  0  0  0  0  0  0  0  0  0
    1.2188   -0.6685   -5.1195 H   0  0  0  0  0  0  0  0  0  0  0  0
    1.2891    0.9880   -4.6483 H   0  0  0  0  0  0  0  0  0  0  0  0
    3.4242   -0.6236   -6.0874 H   0  0  0  0  0  0  0  0  0  0  0  0
    2.7716    0.9984   -6.4986 H   0  0  0  0  0  0  0  0  0  0  0  0
    5.0176    0.9377   -5.2617 H   0  0  0  0  0  0  0  0  0  0  0  0
    3.7413    2.0013   -4.6385 H   0  0  0  0  0  0  0  0  0  0  0  0
    4.1745    0.9474   -2.6932 H   0  0  0  0  0  0  0  0  0  0  0  0
    5.6711   -0.7419   -2.6475 H   0  0  0  0  0  0  0  0  0  0  0  0
    4.9833   -1.3784   -4.2345 H   0  0  0  0  0  0  0  0  0  0  0  0
  1  5  1  0
  1  2  2  0
  1 15  1  0
  2  3  1  0
  3  4  2  0
  4  5  1  0
  5  6  1  0
  6  7  1  0
  6 16  1  0
  6 17  1  0
  7 14  1  0
  7  8  1  0
  7 18  1  1
  8  9  1  0
  8 19  1  0
  8 20  1  0
  9 13  1  0
  9 10  1  0
  9 21  1  1
 10 11  1  0
 10 22  1  0
 10 23  1  0
 11 12  1  0
 11 24  1  0
 11 25  1  0
 12 13  1  0
 12 26  1  0
 12 27  1  0
 13 14  1  0
 13 28  1  1
 14 29  1  0
 14 30  1  0
M  END
>  <i_m_ct_stereo_status>  (419) 
1

>  <s_m_source_file>  (419) 
/var/tmp/pbs.5076255.sched01/tmp9yj1qf5s/135tauqa2n_.sdf

>  <i_m_source_file_index>  (419) 
25

>  <i_lp_mmshare_version>  (419) 
48012

>  <i_f3d_flags>  (419) 
0

>  <s_epik_input>  (419) 
bjFubltjSF1uMVtDSDJdW0NASF0oW0NIMl0yKVtDSDJdW0NASF0oW0NASF0yMylbQ0gyXVtDSDJdW0NIMl0z

>  <s_epik_cmdline>  (419) 
J2VwaWtfcHl0aG9uJywgJy1waHQnLCAnMi4wJywgJy1waCcsICc3LjAnLCAnLXRuJywgJzgnLCAnLW1hJywgJzIwMCcsICctaW1hZScsICc8aW5maWxlLm1hZT4nLCAnLW9tYWUnLCAnPG91dGZpbGUubWFlPic=

>  <r_lp_tautomer_probability>  (419) 
1

>  <r_epik_Ionization_Penalty>  (419) 
3.56499e-09

>  <r_epik_Ionization_Penalty_Charging>  (419) 
0

>  <r_epik_Ionization_Penalty_Neutral>  (419) 
3.56499e-09

>  <r_epik_State_Penalty>  (419) 
-0

>  <r_epik_Charging_Adjusted_Penalty>  (419) 
0

>  <i_epik_Tot_Q>  (419) 
0

>  <i_epik_Tot_abs_Q>  (419) 
0

>  <s_lp_Force_Field>  (419) 
OPLS3e

>  <r_lp_Energy>  (419) 
3.96217

>  <b_lp_Chiralities_Consistent>  (419) 
1

>  <s_lp_Variant>  (419) 
99:0-1

>  <s_i_glide_gridfile>  (419) 
pfpi4k_grid

>  <i_i_glide_lignum>  (419) 
25

>  <i_i_glide_rotatable_bonds>  (419) 
2

>  <r_i_docking_score>  (419) 
-2.36362

>  <r_i_glide_ligand_efficiency>  (419) 
-0.16883

>  <r_i_glide_ligand_efficiency_sa>  (419) 
-0.406904

>  <r_i_glide_ligand_efficiency_ln>  (419) 
-0.649514

>  <r_i_glide_gscore>  (419) 
-2.36362

>  <r_i_glide_lipo>  (419) 
-0.423484

>  <r_i_glide_hbond>  (419) 
0

>  <r_i_glide_metal>  (419) 
-0

>  <r_i_glide_rewards>  (419) 
-2.15541

>  <r_i_glide_evdw>  (419) 
-5.47327

>  <r_i_glide_ecoul>  (419) 
-2.47911

>  <r_i_glide_erotb>  (419) 
0.872036

>  <r_i_glide_esite>  (419) 
-0.0112317

>  <r_i_glide_emodel>  (419) 
-6.4685

>  <r_i_glide_energy>  (419) 
-7.95238

>  <r_i_glide_einternal>  (419) 
3.0599

>  <r_i_glide_intrahb_reward>  (419) 
-0

>  <i_i_glide_confnum>  (419) 
2

>  <i_i_glide_posenum>  (419) 
28

>  <r_i_glide_eff_state_penalty>  (419) 
0

>  <ligand_id>  (419) 
99

>  <original_smiles>  (419) 
c1nnnn1CC1CC2CCCC2C1

>  <smiles>  (419) 
[H]c1nnnn1C([H])([H])C1([H])C([H])([H])C2([H])C([H])([H])C([H])([H])C([H])([H])C2([H])C1([H])[H]

$$$$
99:1:0
     RDKit          3D

 30 32  0  0  1  0  0  0  0  0999 V2000
    8.1122   -3.2854    0.4177 C   0  0  0  0  0  0  0  0  0  0  0  0
    9.0147   -4.2336    0.3272 N   0  0  0  0  0  0  0  0  0  0  0  0
    8.3306   -5.3851    0.6865 N   0  0  0  0  0  0  0  0  0  0  0  0
    7.0900   -5.1098    0.9885 N   0  0  0  0  0  0  0  0  0  0  0  0
    6.9223   -3.7785    0.7938 N   0  0  0  0  0  0  0  0  0  0  0  0
    5.6370   -3.1158    0.9710 C   0  0  0  0  0  0  0  0  0  0  0  0
    4.9262   -2.8468   -0.3757 C   0  0  1  0  0  0  0  0  0  0  0  0
    5.7840   -2.1379   -1.4456 C   0  0  0  0  0  0  0  0  0  0  0  0
    5.1184   -2.4606   -2.7770 C   0  0  2  0  0  0  0  0  0  0  0  0
    4.1679   -1.3769   -3.2905 C   0  0  0  0  0  0  0  0  0  0  0  0
    3.0429   -2.1697   -3.9317 C   0  0  0  0  0  0  0  0  0  0  0  0
    2.8519   -3.3630   -3.0038 C   0  0  0  0  0  0  0  0  0  0  0  0
    4.2786   -3.7311   -2.5658 C   0  0  2  0  0  0  0  0  0  0  0  0
    4.4241   -4.1141   -1.0856 C   0  0  0  0  0  0  0  0  0  0  0  0
    8.2966   -2.2371    0.1859 H   0  0  0  0  0  0  0  0  0  0  0  0
    5.0079   -3.7308    1.6172 H   0  0  0  0  0  0  0  0  0  0  0  0
    5.7988   -2.1765    1.5055 H   0  0  0  0  0  0  0  0  0  0  0  0
    4.0465   -2.2295   -0.1744 H   0  0  0  0  0  0  0  0  0  0  0  0
    5.8639   -1.0630   -1.2599 H   0  0  0  0  0  0  0  0  0  0  0  0
    6.7808   -2.5703   -1.5125 H   0  0  0  0  0  0  0  0  0  0  0  0
    5.8833   -2.6619   -3.5152 H   0  0  0  0  0  0  0  0  0  0  0  0
    3.7737   -0.7979   -2.4525 H   0  0  0  0  0  0  0  0  0  0  0  0
    4.6354   -0.6836   -3.9895 H   0  0  0  0  0  0  0  0  0  0  0  0
    2.1473   -1.5695   -4.0544 H   0  0  0  0  0  0  0  0  0  0  0  0
    3.3661   -2.5260   -4.9085 H   0  0  0  0  0  0  0  0  0  0  0  0
    2.2547   -3.0656   -2.1396 H   0  0  0  0  0  0  0  0  0  0  0  0
    2.3342   -4.1804   -3.5089 H   0  0  0  0  0  0  0  0  0  0  0  0
    4.6587   -4.5421   -3.1900 H   0  0  0  0  0  0  0  0  0  0  0  0
    5.1658   -4.9086   -1.0008 H   0  0  0  0  0  0  0  0  0  0  0  0
    3.4958   -4.4969   -0.6547 H   0  0  0  0  0  0  0  0  0  0  0  0
  1  5  1  0
  1  2  2  0
  1 15  1  0
  2  3  1  0
  3  4  2  0
  4  5  1  0
  5  6  1  0
  6  7  1  0
  6 16  1  0
  6 17  1  0
  7 14  1  0
  7  8  1  0
  7 18  1  1
  8  9  1  0
  8 19  1  0
  8 20  1  0
  9 13  1  0
  9 10  1  0
  9 21  1  6
 10 11  1  0
 10 22  1  0
 10 23  1  0
 11 12  1  0
 11 24  1  0
 11 25  1  0
 12 13  1  0
 12 26  1  0
 12 27  1  0
 13 14  1  0
 13 28  1  6
 14 29  1  0
 14 30  1  0
M  END
>  <i_m_ct_stereo_status>  (420) 
1

>  <s_m_source_file>  (420) 
/var/tmp/pbs.5076255.sched01/tmp9yj1qf5s/135tauqa2n_.sdf

>  <i_m_source_file_index>  (420) 
26

>  <i_lp_mmshare_version>  (420) 
48012

>  <i_f3d_flags>  (420) 
0

>  <s_epik_input>  (420) 
bjFubltjSF1uMVtDSDJdW0NASF0oW0NIMl0yKVtDSDJdW0NASF0oW0NASF0yMylbQ0gyXVtDSDJdW0NIMl0z

>  <s_epik_cmdline>  (420) 
J2VwaWtfcHl0aG9uJywgJy1waHQnLCAnMi4wJywgJy1waCcsICc3LjAnLCAnLXRuJywgJzgnLCAnLW1hJywgJzIwMCcsICctaW1hZScsICc8aW5maWxlLm1hZT4nLCAnLW9tYWUnLCAnPG91dGZpbGUubWFlPic=

>  <r_lp_tautomer_probability>  (420) 
1

>  <r_epik_Ionization_Penalty>  (420) 
3.56499e-09

>  <r_epik_Ionization_Penalty_Charging>  (420) 
0

>  <r_epik_Ionization_Penalty_Neutral>  (420) 
3.56499e-09

>  <r_epik_State_Penalty>  (420) 
-0

>  <r_epik_Charging_Adjusted_Penalty>  (420) 
0

>  <i_epik_Tot_Q>  (420) 
0

>  <i_epik_Tot_abs_Q>  (420) 
0

>  <s_lp_Force_Field>  (420) 
OPLS3e

>  <r_lp_Energy>  (420) 
3.60341

>  <b_lp_Chiralities_Consistent>  (420) 
1

>  <s_lp_Variant>  (420) 
99:0-2

>  <s_i_glide_gridfile>  (420) 
pfpi4k_grid

>  <i_i_glide_lignum>  (420) 
26

>  <i_i_glide_rotatable_bonds>  (420) 
2

>  <r_i_docking_score>  (420) 
-3.30479

>  <r_i_glide_ligand_efficiency>  (420) 
-0.236056

>  <r_i_glide_ligand_efficiency_sa>  (420) 
-0.568929

>  <r_i_glide_ligand_efficiency_ln>  (420) 
-0.908144

>  <r_i_glide_gscore>  (420) 
-3.30479

>  <r_i_glide_lipo>  (420) 
-0.499911

>  <r_i_glide_hbond>  (420) 
0

>  <r_i_glide_metal>  (420) 
-0

>  <r_i_glide_rewards>  (420) 
-2.57142

>  <r_i_glide_evdw>  (420) 
-18.3803

>  <r_i_glide_ecoul>  (420) 
-0.977703

>  <r_i_glide_erotb>  (420) 
0.872036

>  <r_i_glide_esite>  (420) 
-0.0398219

>  <r_i_glide_emodel>  (420) 
-21.8132

>  <r_i_glide_energy>  (420) 
-19.358

>  <r_i_glide_einternal>  (420) 
3.33711

>  <r_i_glide_intrahb_reward>  (420) 
-0

>  <i_i_glide_confnum>  (420) 
1

>  <i_i_glide_posenum>  (420) 
17

>  <r_i_glide_eff_state_penalty>  (420) 
0

>  <ligand_id>  (420) 
99

>  <original_smiles>  (420) 
c1nnnn1CC1CC2CCCC2C1

>  <smiles>  (420) 
[H]c1nnnn1C([H])([H])C1([H])C([H])([H])C2([H])C([H])([H])C([H])([H])C([H])([H])C2([H])C1([H])[H]

$$$$
99:1:1
     RDKit          3D

 30 32  0  0  1  0  0  0  0  0999 V2000
    7.5885   -4.5712    0.9187 C   0  0  0  0  0  0  0  0  0  0  0  0
    8.8584   -4.2753    0.6695 N   0  0  0  0  0  0  0  0  0  0  0  0
    8.8345   -2.9199    0.4142 N   0  0  0  0  0  0  0  0  0  0  0  0
    7.6216   -2.4552    0.5006 N   0  0  0  0  0  0  0  0  0  0  0  0
    6.8111   -3.5082    0.8225 N   0  0  0  0  0  0  0  0  0  0  0  0
    5.3628   -3.3617    0.8969 C   0  0  0  0  0  0  0  0  0  0  0  0
    4.7285   -2.9828   -0.4627 C   0  0  1  0  0  0  0  0  0  0  0  0
    4.8307   -1.4838   -0.8126 C   0  0  0  0  0  0  0  0  0  0  0  0
    4.7089   -1.4143   -2.3351 C   0  0  2  0  0  0  0  0  0  0  0  0
    3.3038   -1.0848   -2.8209 C   0  0  0  0  0  0  0  0  0  0  0  0
    3.1166   -1.9395   -4.0682 C   0  0  0  0  0  0  0  0  0  0  0  0
    3.8207   -3.2457   -3.7220 C   0  0  0  0  0  0  0  0  0  0  0  0
    5.0274   -2.8187   -2.8881 C   0  0  2  0  0  0  0  0  0  0  0  0
    5.3159   -3.7208   -1.6909 C   0  0  0  0  0  0  0  0  0  0  0  0
    7.2341   -5.5750    1.1112 H   0  0  0  0  0  0  0  0  0  0  0  0
    4.9595   -4.3246    1.2192 H   0  0  0  0  0  0  0  0  0  0  0  0
    5.0786   -2.6585    1.6812 H   0  0  0  0  0  0  0  0  0  0  0  0
    3.6618   -3.2183   -0.4238 H   0  0  0  0  0  0  0  0  0  0  0  0
    4.0798   -0.8852   -0.2860 H   0  0  0  0  0  0  0  0  0  0  0  0
    5.8020   -1.0691   -0.5527 H   0  0  0  0  0  0  0  0  0  0  0  0
    5.3953   -0.6679   -2.7231 H   0  0  0  0  0  0  0  0  0  0  0  0
    2.6006   -1.4014   -2.0551 H   0  0  0  0  0  0  0  0  0  0  0  0
    3.1609   -0.0206   -3.0089 H   0  0  0  0  0  0  0  0  0  0  0  0
    2.0628   -2.0865   -4.3035 H   0  0  0  0  0  0  0  0  0  0  0  0
    3.6050   -1.4520   -4.9150 H   0  0  0  0  0  0  0  0  0  0  0  0
    3.1431   -3.8551   -3.1130 H   0  0  0  0  0  0  0  0  0  0  0  0
    4.1017   -3.8399   -4.5917 H   0  0  0  0  0  0  0  0  0  0  0  0
    5.9097   -2.7793   -3.5261 H   0  0  0  0  0  0  0  0  0  0  0  0
    6.4004   -3.8107   -1.6486 H   0  0  0  0  0  0  0  0  0  0  0  0
    4.9224   -4.7357   -1.8034 H   0  0  0  0  0  0  0  0  0  0  0  0
  1  5  1  0
  1  2  2  0
  1 15  1  0
  2  3  1  0
  3  4  2  0
  4  5  1  0
  5  6  1  0
  6  7  1  0
  6 16  1  0
  6 17  1  0
  7 14  1  0
  7  8  1  0
  7 18  1  1
  8  9  1  0
  8 19  1  0
  8 20  1  0
  9 13  1  0
  9 10  1  0
  9 21  1  6
 10 11  1  0
 10 22  1  0
 10 23  1  0
 11 12  1  0
 11 24  1  0
 11 25  1  0
 12 13  1  0
 12 26  1  0
 12 27  1  0
 13 14  1  0
 13 28  1  6
 14 29  1  0
 14 30  1  0
M  END
>  <i_m_ct_stereo_status>  (421) 
1

>  <s_m_source_file>  (421) 
/var/tmp/pbs.5076255.sched01/tmp9yj1qf5s/135tauqa2n_.sdf

>  <i_m_source_file_index>  (421) 
26

>  <i_lp_mmshare_version>  (421) 
48012

>  <i_f3d_flags>  (421) 
0

>  <s_epik_input>  (421) 
bjFubltjSF1uMVtDSDJdW0NASF0oW0NIMl0yKVtDSDJdW0NASF0oW0NASF0yMylbQ0gyXVtDSDJdW0NIMl0z

>  <s_epik_cmdline>  (421) 
J2VwaWtfcHl0aG9uJywgJy1waHQnLCAnMi4wJywgJy1waCcsICc3LjAnLCAnLXRuJywgJzgnLCAnLW1hJywgJzIwMCcsICctaW1hZScsICc8aW5maWxlLm1hZT4nLCAnLW9tYWUnLCAnPG91dGZpbGUubWFlPic=

>  <r_lp_tautomer_probability>  (421) 
1

>  <r_epik_Ionization_Penalty>  (421) 
3.56499e-09

>  <r_epik_Ionization_Penalty_Charging>  (421) 
0

>  <r_epik_Ionization_Penalty_Neutral>  (421) 
3.56499e-09

>  <r_epik_State_Penalty>  (421) 
-0

>  <r_epik_Charging_Adjusted_Penalty>  (421) 
0

>  <i_epik_Tot_Q>  (421) 
0

>  <i_epik_Tot_abs_Q>  (421) 
0

>  <s_lp_Force_Field>  (421) 
OPLS3e

>  <r_lp_Energy>  (421) 
3.60341

>  <b_lp_Chiralities_Consistent>  (421) 
1

>  <s_lp_Variant>  (421) 
99:0-2

>  <s_i_glide_gridfile>  (421) 
pfpi4k_grid

>  <i_i_glide_lignum>  (421) 
26

>  <i_i_glide_rotatable_bonds>  (421) 
2

>  <r_i_docking_score>  (421) 
-3.27819

>  <r_i_glide_ligand_efficiency>  (421) 
-0.234156

>  <r_i_glide_ligand_efficiency_sa>  (421) 
-0.56435

>  <r_i_glide_ligand_efficiency_ln>  (421) 
-0.900835

>  <r_i_glide_gscore>  (421) 
-3.27819

>  <r_i_glide_lipo>  (421) 
-0.465883

>  <r_i_glide_hbond>  (421) 
0

>  <r_i_glide_metal>  (421) 
-0

>  <r_i_glide_rewards>  (421) 
-2.4083

>  <r_i_glide_evdw>  (421) 
-19.881

>  <r_i_glide_ecoul>  (421) 
-1.71065

>  <r_i_glide_erotb>  (421) 
0.872036

>  <r_i_glide_esite>  (421) 
-0.0253943

>  <r_i_glide_emodel>  (421) 
-23.0972

>  <r_i_glide_energy>  (421) 
-21.5917

>  <r_i_glide_einternal>  (421) 
5.28233

>  <r_i_glide_intrahb_reward>  (421) 
-0

>  <i_i_glide_confnum>  (421) 
6

>  <i_i_glide_posenum>  (421) 
26

>  <r_i_glide_eff_state_penalty>  (421) 
0

>  <ligand_id>  (421) 
99

>  <original_smiles>  (421) 
c1nnnn1CC1CC2CCCC2C1

>  <smiles>  (421) 
[H]c1nnnn1C([H])([H])C1([H])C([H])([H])C2([H])C([H])([H])C([H])([H])C([H])([H])C2([H])C1([H])[H]

$$$$
99:1:2
     RDKit          3D

 30 32  0  0  1  0  0  0  0  0999 V2000
    3.3663   -5.1338    0.9612 C   0  0  0  0  0  0  0  0  0  0  0  0
    2.4031   -5.4584    1.8160 N   0  0  0  0  0  0  0  0  0  0  0  0
    2.2395   -4.3033    2.5717 N   0  0  0  0  0  0  0  0  0  0  0  0
    3.0453   -3.3624    2.1691 N   0  0  0  0  0  0  0  0  0  0  0  0
    3.7643   -3.8702    1.1326 N   0  0  0  0  0  0  0  0  0  0  0  0
    4.7488   -3.0734    0.4250 C   0  0  0  0  0  0  0  0  0  0  0  0
    4.1788   -2.4429   -0.8649 C   0  0  1  0  0  0  0  0  0  0  0  0
    5.2479   -1.7792   -1.7404 C   0  0  0  0  0  0  0  0  0  0  0  0
    4.6511   -1.7407   -3.1530 C   0  0  2  0  0  0  0  0  0  0  0  0
    3.9547   -0.4178   -3.5006 C   0  0  0  0  0  0  0  0  0  0  0  0
    2.7508   -0.8290   -4.3220 C   0  0  0  0  0  0  0  0  0  0  0  0
    2.2991   -2.1255   -3.6388 C   0  0  0  0  0  0  0  0  0  0  0  0
    3.5817   -2.8378   -3.2174 C   0  0  2  0  0  0  0  0  0  0  0  0
    3.5327   -3.4584   -1.8155 C   0  0  0  0  0  0  0  0  0  0  0  0
    3.7412   -5.7961    0.1953 H   0  0  0  0  0  0  0  0  0  0  0  0
    5.1456   -2.3027    1.0898 H   0  0  0  0  0  0  0  0  0  0  0  0
    5.5866   -3.7282    0.1808 H   0  0  0  0  0  0  0  0  0  0  0  0
    3.4278   -1.6878   -0.6078 H   0  0  0  0  0  0  0  0  0  0  0  0
    5.5367   -0.7958   -1.3656 H   0  0  0  0  0  0  0  0  0  0  0  0
    6.1435   -2.4019   -1.7639 H   0  0  0  0  0  0  0  0  0  0  0  0
    5.4052   -1.9701   -3.8975 H   0  0  0  0  0  0  0  0  0  0  0  0
    3.6149    0.0876   -2.5982 H   0  0  0  0  0  0  0  0  0  0  0  0
    4.5848    0.2739   -4.0521 H   0  0  0  0  0  0  0  0  0  0  0  0
    2.0085   -0.0298   -4.3645 H   0  0  0  0  0  0  0  0  0  0  0  0
    3.0715   -1.0346   -5.3396 H   0  0  0  0  0  0  0  0  0  0  0  0
    1.7875   -1.8800   -2.7189 H   0  0  0  0  0  0  0  0  0  0  0  0
    1.6312   -2.7421   -4.2434 H   0  0  0  0  0  0  0  0  0  0  0  0
    3.8335   -3.5957   -3.9612 H   0  0  0  0  0  0  0  0  0  0  0  0
    4.1595   -4.3494   -1.8277 H   0  0  0  0  0  0  0  0  0  0  0  0
    2.5204   -3.7406   -1.5115 H   0  0  0  0  0  0  0  0  0  0  0  0
  1  5  1  0
  1  2  2  0
  1 15  1  0
  2  3  1  0
  3  4  2  0
  4  5  1  0
  5  6  1  0
  6  7  1  0
  6 16  1  0
  6 17  1  0
  7 14  1  0
  7  8  1  0
  7 18  1  1
  8  9  1  0
  8 19  1  0
  8 20  1  0
  9 13  1  0
  9 10  1  0
  9 21  1  6
 10 11  1  0
 10 22  1  0
 10 23  1  0
 11 12  1  0
 11 24  1  0
 11 25  1  0
 12 13  1  0
 12 26  1  0
 12 27  1  0
 13 14  1  0
 13 28  1  6
 14 29  1  0
 14 30  1  0
M  END
>  <i_m_ct_stereo_status>  (422) 
1

>  <s_m_source_file>  (422) 
/var/tmp/pbs.5076255.sched01/tmp9yj1qf5s/135tauqa2n_.sdf

>  <i_m_source_file_index>  (422) 
26

>  <i_lp_mmshare_version>  (422) 
48012

>  <i_f3d_flags>  (422) 
0

>  <s_epik_input>  (422) 
bjFubltjSF1uMVtDSDJdW0NASF0oW0NIMl0yKVtDSDJdW0NASF0oW0NASF0yMylbQ0gyXVtDSDJdW0NIMl0z

>  <s_epik_cmdline>  (422) 
J2VwaWtfcHl0aG9uJywgJy1waHQnLCAnMi4wJywgJy1waCcsICc3LjAnLCAnLXRuJywgJzgnLCAnLW1hJywgJzIwMCcsICctaW1hZScsICc8aW5maWxlLm1hZT4nLCAnLW9tYWUnLCAnPG91dGZpbGUubWFlPic=

>  <r_lp_tautomer_probability>  (422) 
1

>  <r_epik_Ionization_Penalty>  (422) 
3.56499e-09

>  <r_epik_Ionization_Penalty_Charging>  (422) 
0

>  <r_epik_Ionization_Penalty_Neutral>  (422) 
3.56499e-09

>  <r_epik_State_Penalty>  (422) 
-0

>  <r_epik_Charging_Adjusted_Penalty>  (422) 
0

>  <i_epik_Tot_Q>  (422) 
0

>  <i_epik_Tot_abs_Q>  (422) 
0

>  <s_lp_Force_Field>  (422) 
OPLS3e

>  <r_lp_Energy>  (422) 
3.60341

>  <b_lp_Chiralities_Consistent>  (422) 
1

>  <s_lp_Variant>  (422) 
99:0-2

>  <s_i_glide_gridfile>  (422) 
pfpi4k_grid

>  <i_i_glide_lignum>  (422) 
26

>  <i_i_glide_rotatable_bonds>  (422) 
2

>  <r_i_docking_score>  (422) 
-2.73733

>  <r_i_glide_ligand_efficiency>  (422) 
-0.195523

>  <r_i_glide_ligand_efficiency_sa>  (422) 
-0.471239

>  <r_i_glide_ligand_efficiency_ln>  (422) 
-0.752207

>  <r_i_glide_gscore>  (422) 
-2.73733

>  <r_i_glide_lipo>  (422) 
-0.74269

>  <r_i_glide_hbond>  (422) 
0

>  <r_i_glide_metal>  (422) 
-0

>  <r_i_glide_rewards>  (422) 
-2.10801

>  <r_i_glide_evdw>  (422) 
-12.9844

>  <r_i_glide_ecoul>  (422) 
-0.503863

>  <r_i_glide_erotb>  (422) 
0.872036

>  <r_i_glide_esite>  (422) 
-0.0338603

>  <r_i_glide_emodel>  (422) 
-17.0271

>  <r_i_glide_energy>  (422) 
-13.4882

>  <r_i_glide_einternal>  (422) 
0.361474

>  <r_i_glide_intrahb_reward>  (422) 
-0

>  <i_i_glide_confnum>  (422) 
1

>  <i_i_glide_posenum>  (422) 
7

>  <r_i_glide_eff_state_penalty>  (422) 
0

>  <ligand_id>  (422) 
99

>  <original_smiles>  (422) 
c1nnnn1CC1CC2CCCC2C1

>  <smiles>  (422) 
[H]c1nnnn1C([H])([H])C1([H])C([H])([H])C2([H])C([H])([H])C([H])([H])C([H])([H])C2([H])C1([H])[H]

$$$$
100:0:0
     RDKit          3D

 59 64  0  0  1  0  0  0  0  0999 V2000
   -0.5911    2.3825    3.3342 C   0  0  0  0  0  0  0  0  0  0  0  0
    0.0490    1.0676    3.8329 C   0  0  2  0  0  0  0  0  0  0  0  0
   -0.0940    0.9739    5.3445 C   0  0  0  0  0  0  0  0  0  0  0  0
    0.8065    0.4174    6.1691 C   0  0  0  0  0  0  0  0  0  0  0  0
    2.0241   -0.2130    5.6413 C   0  0  0  0  0  0  0  0  0  0  0  0
    2.9300   -0.5465    6.4050 O   0  0  0  0  0  0  0  0  0  0  0  0
    2.0944   -0.4654    4.1035 C   0  0  1  0  0  0  0  0  0  0  0  0
    1.5212    0.7906    3.3402 C   0  0  2  0  0  0  0  0  0  0  0  0
    2.3855    2.0666    3.5327 C   0  0  0  0  0  0  0  0  0  0  0  0
    1.4586    0.4507    1.8415 C   0  0  0  0  0  0  0  0  0  0  0  0
    2.7811   -0.0781    1.2850 C   0  0  0  0  0  0  0  0  0  0  0  0
    3.1855   -1.4094    1.9508 C   0  0  2  0  0  0  0  0  0  0  0  0
    3.3824   -1.2040    3.4989 C   0  0  2  0  0  0  0  0  0  0  0  0
    3.4802   -2.5985    4.1866 C   0  0  0  0  0  0  0  0  0  0  0  0
    4.6013   -3.4409    3.9426 O   0  0  0  0  0  0  0  0  0  0  0  0
    5.3267   -3.4104    2.7247 C   0  0  2  0  0  0  0  0  0  0  0  0
    5.6824   -2.0240    2.1194 C   0  0  2  0  0  0  0  0  0  0  0  0
    5.7717   -0.9212    3.0175 O   0  0  0  0  0  0  0  0  0  0  0  0
    4.7262   -0.4699    3.7437 C   0  0  0  0  0  0  0  0  0  0  0  0
    4.8554    0.4490    4.5533 O   0  0  0  0  0  0  0  0  0  0  0  0
    4.4068   -2.1199    1.2684 C   0  0  2  0  0  0  0  0  0  0  0  0
    4.5138   -1.8716   -0.2274 C   0  0  0  0  0  0  0  0  0  0  0  0
    5.2512   -1.0639   -0.7923 O   0  0  0  0  0  0  0  0  0  0  0  0
    3.6750   -2.8494   -1.0868 C   0  0  0  0  0  0  0  0  0  0  0  0
    2.7965   -3.8657   -0.2857 C   0  0  0  0  0  0  0  0  0  0  0  0
    3.4644   -4.5787    0.9439 C   0  0  0  0  0  0  0  0  0  0  0  0
    2.3887   -4.8828    2.0106 C   0  0  0  0  0  0  0  0  0  0  0  0
    4.0315   -5.9545    0.5164 C   0  0  0  0  0  0  0  0  0  0  0  0
    4.5946   -3.6389    1.4071 C   0  0  2  0  0  0  0  0  0  0  0  0
   -1.6490    2.4140    3.5907 H   0  0  0  0  0  0  0  0  0  0  0  0
   -0.5255    2.4903    2.2518 H   0  0  0  0  0  0  0  0  0  0  0  0
   -0.1270    3.2578    3.7873 H   0  0  0  0  0  0  0  0  0  0  0  0
   -0.5844    0.2636    3.4583 H   0  0  0  0  0  0  0  0  0  0  0  0
   -0.9909    1.4105    5.7610 H   0  0  0  0  0  0  0  0  0  0  0  0
    0.6534    0.4049    7.2392 H   0  0  0  0  0  0  0  0  0  0  0  0
    1.3130   -1.2148    3.9731 H   0  0  0  0  0  0  0  0  0  0  0  0
    3.4064    1.9340    3.1878 H   0  0  0  0  0  0  0  0  0  0  0  0
    2.4316    2.3787    4.5761 H   0  0  0  0  0  0  0  0  0  0  0  0
    1.9963    2.9044    2.9550 H   0  0  0  0  0  0  0  0  0  0  0  0
    0.6980   -0.3144    1.6747 H   0  0  0  0  0  0  0  0  0  0  0  0
    1.1458    1.3155    1.2622 H   0  0  0  0  0  0  0  0  0  0  0  0
    2.6117   -0.2501    0.2193 H   0  0  0  0  0  0  0  0  0  0  0  0
    3.5767    0.6653    1.3431 H   0  0  0  0  0  0  0  0  0  0  0  0
    2.3148   -2.0426    1.8386 H   0  0  0  0  0  0  0  0  0  0  0  0
    3.5323   -2.5080    5.2667 H   0  0  0  0  0  0  0  0  0  0  0  0
    2.5584   -3.1498    4.0240 H   0  0  0  0  0  0  0  0  0  0  0  0
    6.1966   -4.0611    2.8104 H   0  0  0  0  0  0  0  0  0  0  0  0
    6.5746   -2.0900    1.4985 H   0  0  0  0  0  0  0  0  0  0  0  0
    3.0253   -2.2623   -1.7368 H   0  0  0  0  0  0  0  0  0  0  0  0
    4.3561   -3.3909   -1.7435 H   0  0  0  0  0  0  0  0  0  0  0  0
    1.9235   -3.3040    0.0486 H   0  0  0  0  0  0  0  0  0  0  0  0
    2.3863   -4.6082   -0.9703 H   0  0  0  0  0  0  0  0  0  0  0  0
    2.8337   -5.2256    2.9445 H   0  0  0  0  0  0  0  0  0  0  0  0
    1.7067   -5.6634    1.6674 H   0  0  0  0  0  0  0  0  0  0  0  0
    1.7622   -4.0220    2.2222 H   0  0  0  0  0  0  0  0  0  0  0  0
    4.5472   -6.4512    1.3364 H   0  0  0  0  0  0  0  0  0  0  0  0
    4.7231   -5.8838   -0.3243 H   0  0  0  0  0  0  0  0  0  0  0  0
    3.2331   -6.6292    0.2016 H   0  0  0  0  0  0  0  0  0  0  0  0
    5.4395   -3.9212    0.7657 H   0  0  0  0  0  0  0  0  0  0  0  0
  1  2  1  0
  1 30  1  0
  1 31  1  0
  1 32  1  0
  2  8  1  0
  2  3  1  0
  2 33  1  6
  3  4  2  0
  3 34  1  0
  4  5  1  0
  4 35  1  0
  5  6  2  0
  5  7  1  0
  7 13  1  0
  7  8  1  0
  7 36  1  1
  8  9  1  6
  8 10  1  0
  9 37  1  0
  9 38  1  0
  9 39  1  0
 10 11  1  0
 10 40  1  0
 10 41  1  0
 11 12  1  0
 11 42  1  0
 11 43  1  0
 12 21  1  0
 12 13  1  0
 12 44  1  1
 13 19  1  6
 13 14  1  0
 14 15  1  0
 14 45  1  0
 14 46  1  0
 15 16  1  0
 16 29  1  0
 16 17  1  0
 16 47  1  1
 17 18  1  0
 17 21  1  0
 17 48  1  6
 18 19  1  0
 19 20  2  0
 21 29  1  0
 21 22  1  6
 22 23  2  0
 22 24  1  0
 24 25  1  0
 24 49  1  0
 24 50  1  0
 25 26  1  0
 25 51  1  0
 25 52  1  0
 26 27  1  0
 26 28  1  0
 26 29  1  0
 27 53  1  0
 27 54  1  0
 27 55  1  0
 28 56  1  0
 28 57  1  0
 28 58  1  0
 29 59  1  6
M  END
>  <i_m_ct_stereo_status>  (423) 
1

>  <s_m_source_file>  (423) 
/var/tmp/pbs.5076255.sched01/tmp9yj1qf5s/135tauqa2n_.sdf

>  <i_m_source_file_index>  (423) 
27

>  <i_lp_mmshare_version>  (423) 
48012

>  <i_f3d_flags>  (423) 
2

>  <s_epik_input>  (423) 
Tz1DMVtDSF09W0NIXVtDQEBIXShbQ0gzXSlbQ0BdKFtDQEhdMVtDQF0yMzQpKFtDSDNdKVtDSDJdW0NIMl1bQ0BIXTJbQ0BAXTU2W0NASF0oT0M0PU8pW0NAQEhdKE9bQ0gyXTMpW0NASF02QyhbQ0gzXSkoW0NIM10pW0NIMl1bQ0gyXUM1PU8=

>  <s_epik_cmdline>  (423) 
J2VwaWtfcHl0aG9uJywgJy1waHQnLCAnMi4wJywgJy1waCcsICc3LjAnLCAnLXRuJywgJzgnLCAnLW1hJywgJzIwMCcsICctaW1hZScsICc8aW5maWxlLm1hZT4nLCAnLW9tYWUnLCAnPG91dGZpbGUubWFlPic=

>  <r_lp_tautomer_probability>  (423) 
1

>  <r_epik_Ionization_Penalty>  (423) 
4.10738e-12

>  <r_epik_Ionization_Penalty_Charging>  (423) 
0

>  <r_epik_Ionization_Penalty_Neutral>  (423) 
4.10738e-12

>  <r_epik_State_Penalty>  (423) 
-0

>  <r_epik_Charging_Adjusted_Penalty>  (423) 
0

>  <i_epik_Tot_Q>  (423) 
0

>  <i_epik_Tot_abs_Q>  (423) 
0

>  <s_epik_Chemistry_Notes>  (423) 
This compound has an ester and may undergo hydrolysis at high or low pH.

>  <s_lp_Force_Field>  (423) 
OPLS3e

>  <r_lp_Energy>  (423) 
97.4193

>  <b_lp_Chiralities_Consistent>  (423) 
0

>  <s_lp_Variant>  (423) 
100:0-1

>  <s_i_glide_gridfile>  (423) 
pfpi4k_grid

>  <i_i_glide_lignum>  (423) 
27

>  <i_i_glide_rotatable_bonds>  (423) 
0

>  <r_i_docking_score>  (423) 
-2.75111

>  <r_i_glide_ligand_efficiency>  (423) 
-0.094866

>  <r_i_glide_ligand_efficiency_sa>  (423) 
-0.291458

>  <r_i_glide_ligand_efficiency_ln>  (423) 
-0.629935

>  <r_i_glide_gscore>  (423) 
-2.75111

>  <r_i_glide_lipo>  (423) 
-0.230437

>  <r_i_glide_hbond>  (423) 
0

>  <r_i_glide_metal>  (423) 
-0

>  <r_i_glide_rewards>  (423) 
-0.802721

>  <r_i_glide_evdw>  (423) 
-27.4042

>  <r_i_glide_ecoul>  (423) 
-2.18956

>  <r_i_glide_erotb>  (423) 
0

>  <r_i_glide_esite>  (423) 
-0.0193115

>  <r_i_glide_emodel>  (423) 
-34.4274

>  <r_i_glide_energy>  (423) 
-29.5938

>  <r_i_glide_einternal>  (423) 
0

>  <r_i_glide_intrahb_reward>  (423) 
-0

>  <i_i_glide_confnum>  (423) 
2

>  <i_i_glide_posenum>  (423) 
6

>  <r_i_glide_eff_state_penalty>  (423) 
0

>  <ligand_id>  (423) 
100

>  <original_smiles>  (423) 
CC1C=CC(=O)C2C1(C)CCC1C23COC2C(OC3=O)C13C(=O)CCC(C)(C)C23

>  <smiles>  (423) 
[H]C1=C([H])C([H])(C([H])([H])[H])C2(C([H])([H])[H])C([H])([H])C([H])([H])C3([H])C4(C(=O)OC5([H])C([H])(OC4([H])[H])C4([H])C53C(=O)C([H])([H])C([H])([H])C4(C([H])([H])[H])C([H])([H])[H])C2([H])C1=O

$$$$
100:0:1
     RDKit          3D

 59 64  0  0  1  0  0  0  0  0999 V2000
   -3.1938    2.9783   10.4051 C   0  0  0  0  0  0  0  0  0  0  0  0
   -1.7647    2.8030    9.8642 C   0  0  2  0  0  0  0  0  0  0  0  0
   -0.7509    3.0634   10.9716 C   0  0  0  0  0  0  0  0  0  0  0  0
    0.4398    3.6457   10.7951 C   0  0  0  0  0  0  0  0  0  0  0  0
    0.8933    4.0329    9.4480 C   0  0  0  0  0  0  0  0  0  0  0  0
    1.8897    4.7345    9.2998 O   0  0  0  0  0  0  0  0  0  0  0  0
    0.0830    3.5057    8.2288 C   0  0  1  0  0  0  0  0  0  0  0  0
   -1.4561    3.5994    8.5457 C   0  0  2  0  0  0  0  0  0  0  0  0
   -1.9575    5.0555    8.7132 C   0  0  0  0  0  0  0  0  0  0  0  0
   -2.2372    2.9113    7.4083 C   0  0  0  0  0  0  0  0  0  0  0  0
   -1.8537    3.4112    6.0277 C   0  0  0  0  0  0  0  0  0  0  0  0
   -0.3512    3.1446    5.7152 C   0  0  2  0  0  0  0  0  0  0  0  0
    0.5671    3.8632    6.7419 C   0  0  2  0  0  0  0  0  0  0  0  0
    2.0194    3.3137    6.5898 C   0  0  0  0  0  0  0  0  0  0  0  0
    2.7815    3.6028    5.4258 O   0  0  0  0  0  0  0  0  0  0  0  0
    2.1857    3.8089    4.1487 C   0  0  2  0  0  0  0  0  0  0  0  0
    0.9227    4.7121    4.0973 C   0  0  2  0  0  0  0  0  0  0  0  0
    0.7911    5.6936    5.1092 O   0  0  0  0  0  0  0  0  0  0  0  0
    0.6208    5.3805    6.4444 C   0  0  0  0  0  0  0  0  0  0  0  0
    0.5324    6.2350    7.3067 O   0  0  0  0  0  0  0  0  0  0  0  0
    0.0609    3.4553    4.2411 C   0  0  2  0  0  0  0  0  0  0  0  0
   -1.1062    3.2441    3.3067 C   0  0  0  0  0  0  0  0  0  0  0  0
   -1.9512    4.1061    2.9732 O   0  0  0  0  0  0  0  0  0  0  0  0
   -1.1984    1.8320    2.7287 C   0  0  0  0  0  0  0  0  0  0  0  0
   -0.2468    0.7759    3.3728 C   0  0  0  0  0  0  0  0  0  0  0  0
    1.2555    1.2039    3.5364 C   0  0  0  0  0  0  0  0  0  0  0  0
    1.8424    0.5154    4.7702 C   0  0  0  0  0  0  0  0  0  0  0  0
    2.0843    0.6976    2.3250 C   0  0  0  0  0  0  0  0  0  0  0  0
    1.2417    2.7497    3.5847 C   0  0  2  0  0  0  0  0  0  0  0  0
   -3.3718    2.2772   11.2068 H   0  0  0  0  0  0  0  0  0  0  0  0
   -3.9677    2.7823    9.6653 H   0  0  0  0  0  0  0  0  0  0  0  0
   -3.3572    3.9647   10.8392 H   0  0  0  0  0  0  0  0  0  0  0  0
   -1.6389    1.7446    9.6558 H   0  0  0  0  0  0  0  0  0  0  0  0
   -1.0570    2.7470   11.9598 H   0  0  0  0  0  0  0  0  0  0  0  0
    1.1224    3.8162   11.6277 H   0  0  0  0  0  0  0  0  0  0  0  0
    0.2809    2.4374    8.2866 H   0  0  0  0  0  0  0  0  0  0  0  0
   -1.7744    5.6483    7.8283 H   0  0  0  0  0  0  0  0  0  0  0  0
   -1.4778    5.5627    9.5495 H   0  0  0  0  0  0  0  0  0  0  0  0
   -3.0355    5.1031    8.8750 H   0  0  0  0  0  0  0  0  0  0  0  0
   -2.0505    1.8383    7.4281 H   0  0  0  0  0  0  0  0  0  0  0  0
   -3.3132    3.0378    7.5376 H   0  0  0  0  0  0  0  0  0  0  0  0
   -2.5290    2.8922    5.3435 H   0  0  0  0  0  0  0  0  0  0  0  0
   -2.0448    4.4707    5.8986 H   0  0  0  0  0  0  0  0  0  0  0  0
   -0.2427    2.0772    5.8824 H   0  0  0  0  0  0  0  0  0  0  0  0
    2.6801    3.7054    7.3531 H   0  0  0  0  0  0  0  0  0  0  0  0
    2.0224    2.2394    6.7895 H   0  0  0  0  0  0  0  0  0  0  0  0
    2.9203    4.1362    3.4152 H   0  0  0  0  0  0  0  0  0  0  0  0
    0.8162    5.1510    3.1016 H   0  0  0  0  0  0  0  0  0  0  0  0
   -2.2003    1.4828    2.8795 H   0  0  0  0  0  0  0  0  0  0  0  0
   -1.0353    1.8257    1.6472 H   0  0  0  0  0  0  0  0  0  0  0  0
   -0.6686    0.5109    4.3601 H   0  0  0  0  0  0  0  0  0  0  0  0
   -0.2977   -0.1464    2.7986 H   0  0  0  0  0  0  0  0  0  0  0  0
    2.8288    0.9117    5.0202 H   0  0  0  0  0  0  0  0  0  0  0  0
    1.9494   -0.5596    4.6115 H   0  0  0  0  0  0  0  0  0  0  0  0
    1.2062    0.6049    5.6442 H   0  0  0  0  0  0  0  0  0  0  0  0
    3.1222    1.0291    2.3936 H   0  0  0  0  0  0  0  0  0  0  0  0
    1.6859    1.0265    1.3688 H   0  0  0  0  0  0  0  0  0  0  0  0
    2.1050   -0.3933    2.2940 H   0  0  0  0  0  0  0  0  0  0  0  0
    1.2504    3.0456    2.5420 H   0  0  0  0  0  0  0  0  0  0  0  0
  1  2  1  0
  1 30  1  0
  1 31  1  0
  1 32  1  0
  2  8  1  0
  2  3  1  0
  2 33  1  6
  3  4  2  0
  3 34  1  0
  4  5  1  0
  4 35  1  0
  5  6  2  0
  5  7  1  0
  7 13  1  0
  7  8  1  0
  7 36  1  6
  8  9  1  1
  8 10  1  0
  9 37  1  0
  9 38  1  0
  9 39  1  0
 10 11  1  0
 10 40  1  0
 10 41  1  0
 11 12  1  0
 11 42  1  0
 11 43  1  0
 12 21  1  0
 12 13  1  0
 12 44  1  1
 13 19  1  6
 13 14  1  0
 14 15  1  0
 14 45  1  0
 14 46  1  0
 15 16  1  0
 16 29  1  0
 16 17  1  0
 16 47  1  6
 17 18  1  0
 17 21  1  0
 17 48  1  6
 18 19  1  0
 19 20  2  0
 21 29  1  0
 21 22  1  6
 22 23  2  0
 22 24  1  0
 24 25  1  0
 24 49  1  0
 24 50  1  0
 25 26  1  0
 25 51  1  0
 25 52  1  0
 26 27  1  0
 26 28  1  0
 26 29  1  0
 27 53  1  0
 27 54  1  0
 27 55  1  0
 28 56  1  0
 28 57  1  0
 28 58  1  0
 29 59  1  6
M  END
>  <i_m_ct_stereo_status>  (424) 
1

>  <s_m_source_file>  (424) 
/var/tmp/pbs.5076255.sched01/tmp9yj1qf5s/135tauqa2n_.sdf

>  <i_m_source_file_index>  (424) 
27

>  <i_lp_mmshare_version>  (424) 
48012

>  <i_f3d_flags>  (424) 
2

>  <s_epik_input>  (424) 
Tz1DMVtDSF09W0NIXVtDQEBIXShbQ0gzXSlbQ0BdKFtDQEhdMVtDQF0yMzQpKFtDSDNdKVtDSDJdW0NIMl1bQ0BIXTJbQ0BAXTU2W0NASF0oT0M0PU8pW0NAQEhdKE9bQ0gyXTMpW0NASF02QyhbQ0gzXSkoW0NIM10pW0NIMl1bQ0gyXUM1PU8=

>  <s_epik_cmdline>  (424) 
J2VwaWtfcHl0aG9uJywgJy1waHQnLCAnMi4wJywgJy1waCcsICc3LjAnLCAnLXRuJywgJzgnLCAnLW1hJywgJzIwMCcsICctaW1hZScsICc8aW5maWxlLm1hZT4nLCAnLW9tYWUnLCAnPG91dGZpbGUubWFlPic=

>  <r_lp_tautomer_probability>  (424) 
1

>  <r_epik_Ionization_Penalty>  (424) 
4.10738e-12

>  <r_epik_Ionization_Penalty_Charging>  (424) 
0

>  <r_epik_Ionization_Penalty_Neutral>  (424) 
4.10738e-12

>  <r_epik_State_Penalty>  (424) 
-0

>  <r_epik_Charging_Adjusted_Penalty>  (424) 
0

>  <i_epik_Tot_Q>  (424) 
0

>  <i_epik_Tot_abs_Q>  (424) 
0

>  <s_epik_Chemistry_Notes>  (424) 
This compound has an ester and may undergo hydrolysis at high or low pH.

>  <s_lp_Force_Field>  (424) 
OPLS3e

>  <r_lp_Energy>  (424) 
97.4193

>  <b_lp_Chiralities_Consistent>  (424) 
0

>  <s_lp_Variant>  (424) 
100:0-1

>  <s_i_glide_gridfile>  (424) 
pfpi4k_grid

>  <i_i_glide_lignum>  (424) 
27

>  <i_i_glide_rotatable_bonds>  (424) 
0

>  <r_i_docking_score>  (424) 
-2.64042

>  <r_i_glide_ligand_efficiency>  (424) 
-0.0910491

>  <r_i_glide_ligand_efficiency_sa>  (424) 
-0.279732

>  <r_i_glide_ligand_efficiency_ln>  (424) 
-0.60459

>  <r_i_glide_gscore>  (424) 
-2.64042

>  <r_i_glide_lipo>  (424) 
-0.118915

>  <r_i_glide_hbond>  (424) 
0

>  <r_i_glide_metal>  (424) 
-0

>  <r_i_glide_rewards>  (424) 
-0.6921

>  <r_i_glide_evdw>  (424) 
-23.8211

>  <r_i_glide_ecoul>  (424) 
-3.68481

>  <r_i_glide_erotb>  (424) 
0

>  <r_i_glide_esite>  (424) 
-0.0856307

>  <r_i_glide_emodel>  (424) 
-32.0395

>  <r_i_glide_energy>  (424) 
-27.5059

>  <r_i_glide_einternal>  (424) 
0

>  <r_i_glide_intrahb_reward>  (424) 
-0

>  <i_i_glide_confnum>  (424) 
1

>  <i_i_glide_posenum>  (424) 
3

>  <r_i_glide_eff_state_penalty>  (424) 
0

>  <ligand_id>  (424) 
100

>  <original_smiles>  (424) 
CC1C=CC(=O)C2C1(C)CCC1C23COC2C(OC3=O)C13C(=O)CCC(C)(C)C23

>  <smiles>  (424) 
[H]C1=C([H])C([H])(C([H])([H])[H])C2(C([H])([H])[H])C([H])([H])C([H])([H])C3([H])C4(C(=O)OC5([H])C([H])(OC4([H])[H])C4([H])C53C(=O)C([H])([H])C([H])([H])C4(C([H])([H])[H])C([H])([H])[H])C2([H])C1=O

$$$$
100:0:2
     RDKit          3D

 59 64  0  0  1  0  0  0  0  0999 V2000
    2.9469   -0.6698    2.3091 C   0  0  0  0  0  0  0  0  0  0  0  0
    1.8630   -1.6461    2.8182 C   0  0  2  0  0  0  0  0  0  0  0  0
    0.7277   -0.8563    3.4498 C   0  0  0  0  0  0  0  0  0  0  0  0
   -0.0025   -1.2636    4.4986 C   0  0  0  0  0  0  0  0  0  0  0  0
    0.2197   -2.5795    5.1093 C   0  0  0  0  0  0  0  0  0  0  0  0
   -0.3336   -2.8649    6.1751 O   0  0  0  0  0  0  0  0  0  0  0  0
    1.1271   -3.5890    4.3346 C   0  0  1  0  0  0  0  0  0  0  0  0
    2.3716   -2.8268    3.7312 C   0  0  2  0  0  0  0  0  0  0  0  0
    3.3217   -2.2622    4.8230 C   0  0  0  0  0  0  0  0  0  0  0  0
    3.1549   -3.8087    2.8362 C   0  0  0  0  0  0  0  0  0  0  0  0
    3.5122   -5.1198    3.5381 C   0  0  0  0  0  0  0  0  0  0  0  0
    2.2354   -5.9036    3.9437 C   0  0  2  0  0  0  0  0  0  0  0  0
    1.3569   -5.0570    4.9401 C   0  0  2  0  0  0  0  0  0  0  0  0
   -0.0425   -5.7298    5.0775 C   0  0  0  0  0  0  0  0  0  0  0  0
   -0.1820   -6.9975    5.7102 O   0  0  0  0  0  0  0  0  0  0  0  0
    0.8524   -7.9684    5.7111 C   0  0  2  0  0  0  0  0  0  0  0  0
    2.2968   -7.4800    5.9925 C   0  0  2  0  0  0  0  0  0  0  0  0
    2.4332   -6.2906    6.7666 O   0  0  0  0  0  0  0  0  0  0  0  0
    2.0068   -5.0796    6.3457 C   0  0  0  0  0  0  0  0  0  0  0  0
    2.1078   -4.0764    7.0544 O   0  0  0  0  0  0  0  0  0  0  0  0
    2.5091   -7.3561    4.4713 C   0  0  2  0  0  0  0  0  0  0  0  0
    3.7335   -8.0039    3.8479 C   0  0  0  0  0  0  0  0  0  0  0  0
    4.8614   -8.0607    4.3311 O   0  0  0  0  0  0  0  0  0  0  0  0
    3.4552   -8.7210    2.5049 C   0  0  0  0  0  0  0  0  0  0  0  0
    1.9972   -8.5860    1.9591 C   0  0  0  0  0  0  0  0  0  0  0  0
    0.8264   -8.7755    2.9900 C   0  0  0  0  0  0  0  0  0  0  0  0
   -0.3749   -7.9024    2.5646 C   0  0  0  0  0  0  0  0  0  0  0  0
    0.3255  -10.2392    2.9469 C   0  0  0  0  0  0  0  0  0  0  0  0
    1.4235   -8.4417    4.3754 C   0  0  2  0  0  0  0  0  0  0  0  0
    2.5272    0.0051    1.5632 H   0  0  0  0  0  0  0  0  0  0  0  0
    3.7790   -1.1872    1.8338 H   0  0  0  0  0  0  0  0  0  0  0  0
    3.3428   -0.0485    3.1116 H   0  0  0  0  0  0  0  0  0  0  0  0
    1.4122   -2.0833    1.9276 H   0  0  0  0  0  0  0  0  0  0  0  0
    0.5129    0.1022    2.9987 H   0  0  0  0  0  0  0  0  0  0  0  0
   -0.7908   -0.6412    4.8995 H   0  0  0  0  0  0  0  0  0  0  0  0
    0.5173   -3.7921    3.4552 H   0  0  0  0  0  0  0  0  0  0  0  0
    3.7191   -3.0371    5.4723 H   0  0  0  0  0  0  0  0  0  0  0  0
    2.8260   -1.5274    5.4576 H   0  0  0  0  0  0  0  0  0  0  0  0
    4.1946   -1.7800    4.3851 H   0  0  0  0  0  0  0  0  0  0  0  0
    2.5639   -4.0547    1.9515 H   0  0  0  0  0  0  0  0  0  0  0  0
    4.0711   -3.3510    2.4688 H   0  0  0  0  0  0  0  0  0  0  0  0
    4.1099   -5.6786    2.8165 H   0  0  0  0  0  0  0  0  0  0  0  0
    4.1615   -4.9547    4.3991 H   0  0  0  0  0  0  0  0  0  0  0  0
    1.6638   -5.9786    3.0276 H   0  0  0  0  0  0  0  0  0  0  0  0
   -0.7066   -5.1286    5.6885 H   0  0  0  0  0  0  0  0  0  0  0  0
   -0.5311   -5.7461    4.1081 H   0  0  0  0  0  0  0  0  0  0  0  0
    0.5773   -8.8002    6.3600 H   0  0  0  0  0  0  0  0  0  0  0  0
    2.9049   -8.2849    6.4050 H   0  0  0  0  0  0  0  0  0  0  0  0
    4.1504   -8.3331    1.7593 H   0  0  0  0  0  0  0  0  0  0  0  0
    3.7058   -9.7763    2.6249 H   0  0  0  0  0  0  0  0  0  0  0  0
    1.9276   -7.5940    1.5085 H   0  0  0  0  0  0  0  0  0  0  0  0
    1.8663   -9.2689    1.1194 H   0  0  0  0  0  0  0  0  0  0  0  0
   -1.1434   -7.8805    3.3379 H   0  0  0  0  0  0  0  0  0  0  0  0
   -0.8360   -8.2913    1.6539 H   0  0  0  0  0  0  0  0  0  0  0  0
   -0.0853   -6.8831    2.3265 H   0  0  0  0  0  0  0  0  0  0  0  0
   -0.4546  -10.4105    3.6849 H   0  0  0  0  0  0  0  0  0  0  0  0
    1.1204  -10.9643    3.1215 H   0  0  0  0  0  0  0  0  0  0  0  0
   -0.1159  -10.4888    1.9808 H   0  0  0  0  0  0  0  0  0  0  0  0
    1.8806   -9.3888    4.6895 H   0  0  0  0  0  0  0  0  0  0  0  0
  1  2  1  0
  1 30  1  0
  1 31  1  0
  1 32  1  0
  2  8  1  0
  2  3  1  0
  2 33  1  6
  3  4  2  0
  3 34  1  0
  4  5  1  0
  4 35  1  0
  5  6  2  0
  5  7  1  0
  7 13  1  0
  7  8  1  0
  7 36  1  6
  8  9  1  1
  8 10  1  0
  9 37  1  0
  9 38  1  0
  9 39  1  0
 10 11  1  0
 10 40  1  0
 10 41  1  0
 11 12  1  0
 11 42  1  0
 11 43  1  0
 12 21  1  0
 12 13  1  0
 12 44  1  6
 13 19  1  1
 13 14  1  0
 14 15  1  0
 14 45  1  0
 14 46  1  0
 15 16  1  0
 16 29  1  0
 16 17  1  0
 16 47  1  1
 17 18  1  0
 17 21  1  0
 17 48  1  1
 18 19  1  0
 19 20  2  0
 21 29  1  0
 21 22  1  1
 22 23  2  0
 22 24  1  0
 24 25  1  0
 24 49  1  0
 24 50  1  0
 25 26  1  0
 25 51  1  0
 25 52  1  0
 26 27  1  0
 26 28  1  0
 26 29  1  0
 27 53  1  0
 27 54  1  0
 27 55  1  0
 28 56  1  0
 28 57  1  0
 28 58  1  0
 29 59  1  1
M  END
>  <i_m_ct_stereo_status>  (425) 
1

>  <s_m_source_file>  (425) 
/var/tmp/pbs.5076255.sched01/tmp9yj1qf5s/135tauqa2n_.sdf

>  <i_m_source_file_index>  (425) 
27

>  <i_lp_mmshare_version>  (425) 
48012

>  <i_f3d_flags>  (425) 
2

>  <s_epik_input>  (425) 
Tz1DMVtDSF09W0NIXVtDQEBIXShbQ0gzXSlbQ0BdKFtDQEhdMVtDQF0yMzQpKFtDSDNdKVtDSDJdW0NIMl1bQ0BIXTJbQ0BAXTU2W0NASF0oT0M0PU8pW0NAQEhdKE9bQ0gyXTMpW0NASF02QyhbQ0gzXSkoW0NIM10pW0NIMl1bQ0gyXUM1PU8=

>  <s_epik_cmdline>  (425) 
J2VwaWtfcHl0aG9uJywgJy1waHQnLCAnMi4wJywgJy1waCcsICc3LjAnLCAnLXRuJywgJzgnLCAnLW1hJywgJzIwMCcsICctaW1hZScsICc8aW5maWxlLm1hZT4nLCAnLW9tYWUnLCAnPG91dGZpbGUubWFlPic=

>  <r_lp_tautomer_probability>  (425) 
1

>  <r_epik_Ionization_Penalty>  (425) 
4.10738e-12

>  <r_epik_Ionization_Penalty_Charging>  (425) 
0

>  <r_epik_Ionization_Penalty_Neutral>  (425) 
4.10738e-12

>  <r_epik_State_Penalty>  (425) 
-0

>  <r_epik_Charging_Adjusted_Penalty>  (425) 
0

>  <i_epik_Tot_Q>  (425) 
0

>  <i_epik_Tot_abs_Q>  (425) 
0

>  <s_epik_Chemistry_Notes>  (425) 
This compound has an ester and may undergo hydrolysis at high or low pH.

>  <s_lp_Force_Field>  (425) 
OPLS3e

>  <r_lp_Energy>  (425) 
97.4193

>  <b_lp_Chiralities_Consistent>  (425) 
0

>  <s_lp_Variant>  (425) 
100:0-1

>  <s_i_glide_gridfile>  (425) 
pfpi4k_grid

>  <i_i_glide_lignum>  (425) 
27

>  <i_i_glide_rotatable_bonds>  (425) 
0

>  <r_i_docking_score>  (425) 
-2.51426

>  <r_i_glide_ligand_efficiency>  (425) 
-0.0866986

>  <r_i_glide_ligand_efficiency_sa>  (425) 
-0.266366

>  <r_i_glide_ligand_efficiency_ln>  (425) 
-0.575702

>  <r_i_glide_gscore>  (425) 
-2.51426

>  <r_i_glide_lipo>  (425) 
-0.0723829

>  <r_i_glide_hbond>  (425) 
0

>  <r_i_glide_metal>  (425) 
-0

>  <r_i_glide_rewards>  (425) 
-0.6921

>  <r_i_glide_evdw>  (425) 
-24.4306

>  <r_i_glide_ecoul>  (425) 
-3.51642

>  <r_i_glide_erotb>  (425) 
0

>  <r_i_glide_esite>  (425) 
-0.000784739

>  <r_i_glide_emodel>  (425) 
-32.3539

>  <r_i_glide_energy>  (425) 
-27.947

>  <r_i_glide_einternal>  (425) 
0

>  <r_i_glide_intrahb_reward>  (425) 
-0

>  <i_i_glide_confnum>  (425) 
2

>  <i_i_glide_posenum>  (425) 
19

>  <r_i_glide_eff_state_penalty>  (425) 
0

>  <ligand_id>  (425) 
100

>  <original_smiles>  (425) 
CC1C=CC(=O)C2C1(C)CCC1C23COC2C(OC3=O)C13C(=O)CCC(C)(C)C23

>  <smiles>  (425) 
[H]C1=C([H])C([H])(C([H])([H])[H])C2(C([H])([H])[H])C([H])([H])C([H])([H])C3([H])C4(C(=O)OC5([H])C([H])(OC4([H])[H])C4([H])C53C(=O)C([H])([H])C([H])([H])C4(C([H])([H])[H])C([H])([H])[H])C2([H])C1=O

$$$$
101:0:0
     RDKit          3D

 68 73  0  0  1  0  0  0  0  0999 V2000
    8.4446   -7.7798    4.0701 C   0  0  0  0  0  0  0  0  0  0  0  0
    7.1840   -7.4176    4.3411 C   0  0  0  0  0  0  0  0  0  0  0  0
    6.2202   -8.0823    5.3131 C   0  0  0  0  0  0  0  0  0  0  0  0
    4.8467   -7.5879    4.8340 C   0  0  1  0  0  0  0  0  0  0  0  0
    3.7005   -7.2199    5.7525 C   0  0  0  0  0  0  0  0  0  0  0  0
    2.8512   -6.3606    4.9075 N   0  0  2  0  0  0  0  0  0  0  0  0
    1.7588   -7.2588    4.3143 C   0  0  0  0  0  0  0  0  0  0  0  0
    0.7414   -7.7534    5.1581 C   0  0  0  0  0  0  0  0  0  0  0  0
   -0.2070   -8.6581    4.6383 C   0  0  0  0  0  0  0  0  0  0  0  0
   -0.1300   -9.0708    3.2869 C   0  0  0  0  0  0  0  0  0  0  0  0
    0.8902   -8.5635    2.4509 C   0  0  0  0  0  0  0  0  0  0  0  0
    1.8319   -7.6455    2.9616 C   0  0  0  0  0  0  0  0  0  0  0  0
    2.8369   -6.9874    2.0373 C   0  0  0  0  0  0  0  0  0  0  0  0
    3.0968   -5.5245    2.4759 C   0  0  2  0  0  0  0  0  0  0  0  0
    1.7779   -4.9672    2.5787 O   0  0  0  0  0  0  0  0  0  0  0  0
    3.7326   -4.5640    1.3515 C   0  0  2  0  0  0  0  0  0  0  0  0
    2.6866   -4.3234    0.2075 C   0  0  0  0  0  0  0  0  0  0  0  0
    4.9630   -5.2411    0.6622 C   0  0  1  0  0  0  0  0  0  0  0  0
    4.6009   -6.2420   -0.2628 O   0  0  0  0  0  0  0  0  0  0  0  0
    5.9733   -4.3123   -0.0383 C   0  0  0  0  0  0  0  0  0  0  0  0
    6.2843   -3.0140    0.7096 C   0  0  0  0  0  0  0  0  0  0  0  0
    5.0263   -2.2261    1.0996 C   0  0  0  0  0  0  0  0  0  0  0  0
    5.4865   -0.9502    1.8471 C   0  0  0  0  0  0  0  0  0  0  0  0
    4.3093   -1.6831   -0.1735 C   0  0  0  0  0  0  0  0  0  0  0  0
    4.0894   -3.1431    1.9862 C   0  0  2  0  0  0  0  0  0  0  0  0
    4.6049   -3.1982    3.4639 C   0  0  0  0  0  0  0  0  0  0  0  0
    3.8009   -4.0653    4.4426 C   0  0  1  0  0  0  0  0  0  0  0  0
    2.5466   -3.4550    4.6897 O   0  0  0  0  0  0  0  0  0  0  0  0
    3.7039   -5.5484    3.9646 C   0  0  1  0  0  0  0  0  0  0  0  0
    5.1011   -6.1932    4.3235 C   0  0  2  0  0  0  0  0  0  0  0  0
    6.4934   -6.2875    3.7166 C   0  0  0  0  0  0  0  0  0  0  0  0
    6.9907   -5.4530    2.9648 O   0  0  0  0  0  0  0  0  0  0  0  0
    9.0476   -7.2399    3.3590 H   0  0  0  0  0  0  0  0  0  0  0  0
    8.9032   -8.6203    4.5620 H   0  0  0  0  0  0  0  0  0  0  0  0
    6.3062   -9.1719    5.2856 H   0  0  0  0  0  0  0  0  0  0  0  0
    6.4306   -7.7311    6.3301 H   0  0  0  0  0  0  0  0  0  0  0  0
    4.4961   -8.2418    4.0312 H   0  0  0  0  0  0  0  0  0  0  0  0
    3.2181   -8.1291    6.1294 H   0  0  0  0  0  0  0  0  0  0  0  0
    4.0653   -6.6611    6.6247 H   0  0  0  0  0  0  0  0  0  0  0  0
    0.6961   -7.4762    6.1956 H   0  0  0  0  0  0  0  0  0  0  0  0
   -0.9838   -9.0568    5.2696 H   0  0  0  0  0  0  0  0  0  0  0  0
   -0.8556   -9.7708    2.9018 H   0  0  0  0  0  0  0  0  0  0  0  0
    0.9453   -8.8579    1.4159 H   0  0  0  0  0  0  0  0  0  0  0  0
    3.7708   -7.5558    2.0377 H   0  0  0  0  0  0  0  0  0  0  0  0
    2.4534   -7.0426    1.0179 H   0  0  0  0  0  0  0  0  0  0  0  0
    1.8594   -4.1156    2.9827 H   0  0  0  0  0  0  0  0  0  0  0  0
    3.1409   -4.0939   -0.7537 H   0  0  0  0  0  0  0  0  0  0  0  0
    2.0104   -3.4983    0.4313 H   0  0  0  0  0  0  0  0  0  0  0  0
    2.0611   -5.1911    0.0102 H   0  0  0  0  0  0  0  0  0  0  0  0
    5.4618   -5.8505    1.3779 H   0  0  0  0  0  0  0  0  0  0  0  0
    4.1281   -5.8558   -0.9837 H   0  0  0  0  0  0  0  0  0  0  0  0
    6.9063   -4.8594   -0.1623 H   0  0  0  0  0  0  0  0  0  0  0  0
    5.6388   -4.0812   -1.0491 H   0  0  0  0  0  0  0  0  0  0  0  0
    6.8552   -3.2622    1.6060 H   0  0  0  0  0  0  0  0  0  0  0  0
    6.9499   -2.3979    0.1087 H   0  0  0  0  0  0  0  0  0  0  0  0
    4.6449   -0.3913    2.2548 H   0  0  0  0  0  0  0  0  0  0  0  0
    6.0358   -0.2840    1.1827 H   0  0  0  0  0  0  0  0  0  0  0  0
    6.1790   -1.1813    2.6599 H   0  0  0  0  0  0  0  0  0  0  0  0
    3.2731   -1.4036    0.0266 H   0  0  0  0  0  0  0  0  0  0  0  0
    4.3021   -2.3932   -0.9981 H   0  0  0  0  0  0  0  0  0  0  0  0
    4.8088   -0.8051   -0.5807 H   0  0  0  0  0  0  0  0  0  0  0  0
    3.1546   -2.5933    2.0864 H   0  0  0  0  0  0  0  0  0  0  0  0
    5.6406   -3.5184    3.4880 H   0  0  0  0  0  0  0  0  0  0  0  0
    4.6173   -2.1996    3.8972 H   0  0  0  0  0  0  0  0  0  0  0  0
    4.2928   -4.0129    5.4152 H   0  0  0  0  0  0  0  0  0  0  0  0
    2.6995   -2.5938    5.0392 H   0  0  0  0  0  0  0  0  0  0  0  0
    5.4168   -5.6551    5.2164 H   0  0  0  0  0  0  0  0  0  0  0  0
    2.3971   -5.6733    5.5068 H   0  0  0  0  0  0  0  0  0  0  0  0
  1  2  2  0
  1 33  1  0
  1 34  1  0
  2 31  1  0
  2  3  1  0
  3  4  1  0
  3 35  1  0
  3 36  1  0
  4 30  1  0
  4  5  1  0
  4 37  1  6
  5  6  1  0
  5 38  1  0
  5 39  1  0
  6 29  1  0
  6  7  1  0
  6 68  1  1
  7 12  2  0
  7  8  1  0
  8  9  2  0
  8 40  1  0
  9 10  1  0
  9 41  1  0
 10 11  2  0
 10 42  1  0
 11 12  1  0
 11 43  1  0
 12 13  1  0
 13 14  1  0
 13 44  1  0
 13 45  1  0
 29 14  1  6
 14 15  1  1
 14 16  1  0
 15 46  1  0
 16 25  1  0
 16 17  1  6
 16 18  1  0
 17 47  1  0
 17 48  1  0
 17 49  1  0
 18 19  1  0
 18 20  1  0
 18 50  1  1
 19 51  1  0
 20 21  1  0
 20 52  1  0
 20 53  1  0
 21 22  1  0
 21 54  1  0
 21 55  1  0
 22 23  1  0
 22 24  1  0
 22 25  1  0
 23 56  1  0
 23 57  1  0
 23 58  1  0
 24 59  1  0
 24 60  1  0
 24 61  1  0
 25 26  1  0
 25 62  1  1
 26 27  1  0
 26 63  1  0
 26 64  1  0
 27 28  1  0
 27 29  1  0
 27 65  1  1
 28 66  1  0
 29 30  1  0
 30 31  1  0
 30 67  1  1
 31 32  2  0
M  CHG  1   6   1
M  END
>  <i_m_ct_stereo_status>  (426) 
1

>  <s_m_source_file>  (426) 
/var/tmp/pbs.5076255.sched01/tmp9yj1qf5s/135tauqa2n_.sdf

>  <i_m_source_file_index>  (426) 
28

>  <i_lp_mmshare_version>  (426) 
48012

>  <i_f3d_flags>  (426) 
0

>  <s_epik_input>  (426) 
W0NIMl09QyhbQ0gyXTEpQyg9TylbQ0BASF0yW0NAQEhdMVtDSDJdTihbQ0BAXTIzNCljNWMoW2NIXVtjSF1bY0hdW2NIXTUpW0NIMl1bQ0BdMyhbT0hdKVtDQEBdNihbQ0gzXSlbQ0BASF0oW0NIMl1bQ0BIXTRbT0hdKUMoW0NIM10pKFtDSDNdKVtDSDJdW0NIMl1bQ0BASF02W09IXQ==

>  <s_epik_cmdline>  (426) 
J2VwaWtfcHl0aG9uJywgJy1waHQnLCAnMi4wJywgJy1waCcsICc3LjAnLCAnLXRuJywgJzgnLCAnLW1hJywgJzIwMCcsICctaW1hZScsICc8aW5maWxlLm1hZT4nLCAnLW9tYWUnLCAnPG91dGZpbGUubWFlPic=

>  <r_epik_Ionization_Penalty>  (426) 
0.109317

>  <r_epik_Ionization_Penalty_Charging>  (426) 
0.109315

>  <r_epik_Ionization_Penalty_Neutral>  (426) 
1.67852e-06

>  <r_epik_State_Penalty>  (426) 
0.0990899

>  <r_epik_Charging_Adjusted_Penalty>  (426) 
0.208405

>  <i_epik_Tot_Q>  (426) 
1

>  <i_epik_Tot_abs_Q>  (426) 
1

>  <s_lp_Force_Field>  (426) 
OPLS3e

>  <r_lp_Energy>  (426) 
92.9117

>  <b_lp_Chiralities_Consistent>  (426) 
1

>  <s_lp_Variant>  (426) 
101:0-1

>  <s_i_glide_gridfile>  (426) 
pfpi4k_grid

>  <i_i_glide_lignum>  (426) 
28

>  <i_i_glide_rotatable_bonds>  (426) 
3

>  <r_i_docking_score>  (426) 
-3.6603

>  <r_i_glide_ligand_efficiency>  (426) 
-0.114384

>  <r_i_glide_ligand_efficiency_sa>  (426) 
-0.363147

>  <r_i_glide_ligand_efficiency_ln>  (426) 
-0.81964

>  <r_i_glide_gscore>  (426) 
-3.6603

>  <r_i_glide_lipo>  (426) 
-0.409587

>  <r_i_glide_hbond>  (426) 
-0.301996

>  <r_i_glide_metal>  (426) 
-0

>  <r_i_glide_rewards>  (426) 
-0.920324

>  <r_i_glide_evdw>  (426) 
-24.7022

>  <r_i_glide_ecoul>  (426) 
-5.28853

>  <r_i_glide_erotb>  (426) 
0

>  <r_i_glide_esite>  (426) 
0

>  <r_i_glide_emodel>  (426) 
-43.6304

>  <r_i_glide_energy>  (426) 
-29.9907

>  <r_i_glide_einternal>  (426) 
0.34714

>  <r_i_glide_intrahb_reward>  (426) 
-0.5

>  <i_i_glide_confnum>  (426) 
1

>  <i_i_glide_posenum>  (426) 
7

>  <r_i_glide_eff_state_penalty>  (426) 
0

>  <ligand_id>  (426) 
101

>  <original_smiles>  (426) 
C=C1CC2CN3c4ccccc4CC4(O)C5(C)C(O)CCC(C)(C)C5CC(O)C34C2C1=O

>  <smiles>  (426) 
[H]OC1([H])C([H])([H])C([H])([H])C(C([H])([H])[H])(C([H])([H])[H])C2([H])C([H])([H])C([H])(O[H])C34C5([H])C(=O)C(=C([H])[H])C([H])([H])C5([H])C([H])([H])[N+]3([H])c3c([H])c([H])c([H])c([H])c3C([H])([H])C4(O[H])C12C([H])([H])[H]

$$$$
101:0:1
     RDKit          3D

 68 73  0  0  1  0  0  0  0  0999 V2000
    5.9224    2.1051    6.8295 C   0  0  0  0  0  0  0  0  0  0  0  0
    5.3297    1.1052    6.1566 C   0  0  0  0  0  0  0  0  0  0  0  0
    5.9731   -0.1838    5.6803 C   0  0  0  0  0  0  0  0  0  0  0  0
    5.0140   -0.6546    4.5739 C   0  0  1  0  0  0  0  0  0  0  0  0
    4.6600   -2.1068    4.3403 C   0  0  0  0  0  0  0  0  0  0  0  0
    3.3826   -2.0243    3.5629 N   0  0  2  0  0  0  0  0  0  0  0  0
    3.7554   -2.1158    2.0843 C   0  0  0  0  0  0  0  0  0  0  0  0
    4.1913   -3.3505    1.5629 C   0  0  0  0  0  0  0  0  0  0  0  0
    4.6205   -3.4288    0.2256 C   0  0  0  0  0  0  0  0  0  0  0  0
    4.6254   -2.2765   -0.5825 C   0  0  0  0  0  0  0  0  0  0  0  0
    4.1942   -1.0418   -0.0579 C   0  0  0  0  0  0  0  0  0  0  0  0
    3.7359   -0.9595    1.2759 C   0  0  0  0  0  0  0  0  0  0  0  0
    3.1103    0.3199    1.8108 C   0  0  0  0  0  0  0  0  0  0  0  0
    1.9595   -0.0077    2.7991 C   0  0  2  0  0  0  0  0  0  0  0  0
    1.1349   -0.9452    2.0823 O   0  0  0  0  0  0  0  0  0  0  0  0
    0.9254    1.1929    3.0793 C   0  0  2  0  0  0  0  0  0  0  0  0
    0.0769    1.4384    1.7910 C   0  0  0  0  0  0  0  0  0  0  0  0
    1.6734    2.5460    3.3770 C   0  0  1  0  0  0  0  0  0  0  0  0
    2.2012    3.1811    2.2251 O   0  0  0  0  0  0  0  0  0  0  0  0
    0.8835    3.6323    4.1408 C   0  0  0  0  0  0  0  0  0  0  0  0
   -0.0045    3.1008    5.2748 C   0  0  0  0  0  0  0  0  0  0  0  0
   -0.9568    1.9762    4.8305 C   0  0  0  0  0  0  0  0  0  0  0  0
   -1.7784    1.5411    6.0714 C   0  0  0  0  0  0  0  0  0  0  0  0
   -2.0081    2.5346    3.8336 C   0  0  0  0  0  0  0  0  0  0  0  0
   -0.0983    0.7854    4.2347 C   0  0  2  0  0  0  0  0  0  0  0  0
    0.5219   -0.0903    5.3712 C   0  0  0  0  0  0  0  0  0  0  0  0
    1.3942   -1.2777    4.9392 C   0  0  1  0  0  0  0  0  0  0  0  0
    0.5929   -2.2889    4.3607 O   0  0  0  0  0  0  0  0  0  0  0  0
    2.5790   -0.8160    4.0420 C   0  0  1  0  0  0  0  0  0  0  0  0
    3.6583   -0.2184    5.0337 C   0  0  2  0  0  0  0  0  0  0  0  0
    3.9154    1.0968    5.7570 C   0  0  0  0  0  0  0  0  0  0  0  0
    3.0626    1.9104    6.0925 O   0  0  0  0  0  0  0  0  0  0  0  0
    5.3742    2.9813    7.1281 H   0  0  0  0  0  0  0  0  0  0  0  0
    6.9616    2.0538    7.1059 H   0  0  0  0  0  0  0  0  0  0  0  0
    6.9859   -0.0017    5.3120 H   0  0  0  0  0  0  0  0  0  0  0  0
    6.0104   -0.9019    6.5058 H   0  0  0  0  0  0  0  0  0  0  0  0
    5.2910   -0.1722    3.6349 H   0  0  0  0  0  0  0  0  0  0  0  0
    5.4623   -2.6236    3.8139 H   0  0  0  0  0  0  0  0  0  0  0  0
    4.4865   -2.6372    5.2812 H   0  0  0  0  0  0  0  0  0  0  0  0
    4.2154   -4.2331    2.1837 H   0  0  0  0  0  0  0  0  0  0  0  0
    4.9456   -4.3735   -0.1891 H   0  0  0  0  0  0  0  0  0  0  0  0
    4.9374   -2.3356   -1.6150 H   0  0  0  0  0  0  0  0  0  0  0  0
    4.1933   -0.1756   -0.6994 H   0  0  0  0  0  0  0  0  0  0  0  0
    3.8631    0.9275    2.3125 H   0  0  0  0  0  0  0  0  0  0  0  0
    2.7628    0.9172    0.9671 H   0  0  0  0  0  0  0  0  0  0  0  0
    1.0266   -0.6485    1.1771 H   0  0  0  0  0  0  0  0  0  0  0  0
   -0.3055    2.4509    1.7337 H   0  0  0  0  0  0  0  0  0  0  0  0
   -0.7843    0.7753    1.6980 H   0  0  0  0  0  0  0  0  0  0  0  0
    0.6573    1.3152    0.8790 H   0  0  0  0  0  0  0  0  0  0  0  0
    2.5764    2.3234    3.9058 H   0  0  0  0  0  0  0  0  0  0  0  0
    1.4821    3.5750    1.7302 H   0  0  0  0  0  0  0  0  0  0  0  0
    1.5938    4.3449    4.5631 H   0  0  0  0  0  0  0  0  0  0  0  0
    0.2790    4.2150    3.4462 H   0  0  0  0  0  0  0  0  0  0  0  0
    0.6335    2.7462    6.0824 H   0  0  0  0  0  0  0  0  0  0  0  0
   -0.5765    3.9246    5.7018 H   0  0  0  0  0  0  0  0  0  0  0  0
   -2.3877    0.6617    5.8613 H   0  0  0  0  0  0  0  0  0  0  0  0
   -2.4492    2.3368    6.3971 H   0  0  0  0  0  0  0  0  0  0  0  0
   -1.1422    1.3255    6.9298 H   0  0  0  0  0  0  0  0  0  0  0  0
   -2.4787    1.7439    3.2583 H   0  0  0  0  0  0  0  0  0  0  0  0
   -1.6066    3.2421    3.1168 H   0  0  0  0  0  0  0  0  0  0  0  0
   -2.8110    3.0708    4.3370 H   0  0  0  0  0  0  0  0  0  0  0  0
   -0.8170    0.1008    3.7850 H   0  0  0  0  0  0  0  0  0  0  0  0
    1.0943    0.5335    6.0490 H   0  0  0  0  0  0  0  0  0  0  0  0
   -0.2643   -0.5176    5.9918 H   0  0  0  0  0  0  0  0  0  0  0  0
    1.7655   -1.7588    5.8439 H   0  0  0  0  0  0  0  0  0  0  0  0
    0.2904   -1.9653    3.5181 H   0  0  0  0  0  0  0  0  0  0  0  0
    3.5051   -0.7920    5.9480 H   0  0  0  0  0  0  0  0  0  0  0  0
    2.8121   -2.8220    3.8102 H   0  0  0  0  0  0  0  0  0  0  0  0
  1  2  2  0
  1 33  1  0
  1 34  1  0
  2 31  1  0
  2  3  1  0
  3  4  1  0
  3 35  1  0
  3 36  1  0
  4 30  1  0
  4  5  1  0
  4 37  1  6
  5  6  1  0
  5 38  1  0
  5 39  1  0
  6 29  1  0
  6  7  1  0
  6 68  1  1
  7 12  2  0
  7  8  1  0
  8  9  2  0
  8 40  1  0
  9 10  1  0
  9 41  1  0
 10 11  2  0
 10 42  1  0
 11 12  1  0
 11 43  1  0
 12 13  1  0
 13 14  1  0
 13 44  1  0
 13 45  1  0
 29 14  1  6
 14 15  1  6
 14 16  1  0
 15 46  1  0
 16 25  1  0
 16 17  1  6
 16 18  1  0
 17 47  1  0
 17 48  1  0
 17 49  1  0
 18 19  1  0
 18 20  1  0
 18 50  1  1
 19 51  1  0
 20 21  1  0
 20 52  1  0
 20 53  1  0
 21 22  1  0
 21 54  1  0
 21 55  1  0
 22 23  1  0
 22 24  1  0
 22 25  1  0
 23 56  1  0
 23 57  1  0
 23 58  1  0
 24 59  1  0
 24 60  1  0
 24 61  1  0
 25 26  1  0
 25 62  1  6
 26 27  1  0
 26 63  1  0
 26 64  1  0
 27 28  1  0
 27 29  1  0
 27 65  1  1
 28 66  1  0
 29 30  1  0
 30 31  1  0
 30 67  1  1
 31 32  2  0
M  CHG  1   6   1
M  END
>  <i_m_ct_stereo_status>  (427) 
1

>  <s_m_source_file>  (427) 
/var/tmp/pbs.5076255.sched01/tmp9yj1qf5s/135tauqa2n_.sdf

>  <i_m_source_file_index>  (427) 
28

>  <i_lp_mmshare_version>  (427) 
48012

>  <i_f3d_flags>  (427) 
0

>  <s_epik_input>  (427) 
W0NIMl09QyhbQ0gyXTEpQyg9TylbQ0BASF0yW0NAQEhdMVtDSDJdTihbQ0BAXTIzNCljNWMoW2NIXVtjSF1bY0hdW2NIXTUpW0NIMl1bQ0BdMyhbT0hdKVtDQEBdNihbQ0gzXSlbQ0BASF0oW0NIMl1bQ0BIXTRbT0hdKUMoW0NIM10pKFtDSDNdKVtDSDJdW0NIMl1bQ0BASF02W09IXQ==

>  <s_epik_cmdline>  (427) 
J2VwaWtfcHl0aG9uJywgJy1waHQnLCAnMi4wJywgJy1waCcsICc3LjAnLCAnLXRuJywgJzgnLCAnLW1hJywgJzIwMCcsICctaW1hZScsICc8aW5maWxlLm1hZT4nLCAnLW9tYWUnLCAnPG91dGZpbGUubWFlPic=

>  <r_epik_Ionization_Penalty>  (427) 
0.109317

>  <r_epik_Ionization_Penalty_Charging>  (427) 
0.109315

>  <r_epik_Ionization_Penalty_Neutral>  (427) 
1.67852e-06

>  <r_epik_State_Penalty>  (427) 
0.0990899

>  <r_epik_Charging_Adjusted_Penalty>  (427) 
0.208405

>  <i_epik_Tot_Q>  (427) 
1

>  <i_epik_Tot_abs_Q>  (427) 
1

>  <s_lp_Force_Field>  (427) 
OPLS3e

>  <r_lp_Energy>  (427) 
92.9117

>  <b_lp_Chiralities_Consistent>  (427) 
1

>  <s_lp_Variant>  (427) 
101:0-1

>  <s_i_glide_gridfile>  (427) 
pfpi4k_grid

>  <i_i_glide_lignum>  (427) 
28

>  <i_i_glide_rotatable_bonds>  (427) 
3

>  <r_i_docking_score>  (427) 
-3.63863

>  <r_i_glide_ligand_efficiency>  (427) 
-0.113707

>  <r_i_glide_ligand_efficiency_sa>  (427) 
-0.360998

>  <r_i_glide_ligand_efficiency_ln>  (427) 
-0.814789

>  <r_i_glide_gscore>  (427) 
-3.63863

>  <r_i_glide_lipo>  (427) 
-0.310484

>  <r_i_glide_hbond>  (427) 
-0.152

>  <r_i_glide_metal>  (427) 
-0

>  <r_i_glide_rewards>  (427) 
-0.918779

>  <r_i_glide_evdw>  (427) 
-27.5908

>  <r_i_glide_ecoul>  (427) 
-5.85221

>  <r_i_glide_erotb>  (427) 
0

>  <r_i_glide_esite>  (427) 
0

>  <r_i_glide_emodel>  (427) 
-46.9367

>  <r_i_glide_energy>  (427) 
-33.443

>  <r_i_glide_einternal>  (427) 
0.329856

>  <r_i_glide_intrahb_reward>  (427) 
-0.5

>  <i_i_glide_confnum>  (427) 
1

>  <i_i_glide_posenum>  (427) 
24

>  <r_i_glide_eff_state_penalty>  (427) 
0

>  <ligand_id>  (427) 
101

>  <original_smiles>  (427) 
C=C1CC2CN3c4ccccc4CC4(O)C5(C)C(O)CCC(C)(C)C5CC(O)C34C2C1=O

>  <smiles>  (427) 
[H]OC1([H])C([H])([H])C([H])([H])C(C([H])([H])[H])(C([H])([H])[H])C2([H])C([H])([H])C([H])(O[H])C34C5([H])C(=O)C(=C([H])[H])C([H])([H])C5([H])C([H])([H])[N+]3([H])c3c([H])c([H])c([H])c([H])c3C([H])([H])C4(O[H])C12C([H])([H])[H]

$$$$
101:0:2
     RDKit          3D

 68 73  0  0  1  0  0  0  0  0999 V2000
    8.3551   -7.7843    4.1140 C   0  0  0  0  0  0  0  0  0  0  0  0
    7.1000   -7.4023    4.3755 C   0  0  0  0  0  0  0  0  0  0  0  0
    6.1298   -8.0321    5.3651 C   0  0  0  0  0  0  0  0  0  0  0  0
    4.7594   -7.5373    4.8651 C   0  0  1  0  0  0  0  0  0  0  0  0
    3.6235   -7.1498    5.7757 C   0  0  0  0  0  0  0  0  0  0  0  0
    2.7750   -6.3032    4.8997 N   0  0  2  0  0  0  0  0  0  0  0  0
    1.6744   -7.2002    4.3269 C   0  0  0  0  0  0  0  0  0  0  0  0
    0.6480   -7.6569    5.1743 C   0  0  0  0  0  0  0  0  0  0  0  0
   -0.3036   -8.5667    4.6784 C   0  0  0  0  0  0  0  0  0  0  0  0
   -0.2286   -9.0104    3.3408 C   0  0  0  0  0  0  0  0  0  0  0  0
    0.7919   -8.5317    2.4857 C   0  0  0  0  0  0  0  0  0  0  0  0
    1.7463   -7.6113    2.9849 C   0  0  0  0  0  0  0  0  0  0  0  0
    2.7579   -6.9946    2.0422 C   0  0  0  0  0  0  0  0  0  0  0  0
    3.0361   -5.5279    2.4488 C   0  0  2  0  0  0  0  0  0  0  0  0
    1.7240   -4.9572    2.5332 O   0  0  0  0  0  0  0  0  0  0  0  0
    3.6830   -4.5996    1.3028 C   0  0  2  0  0  0  0  0  0  0  0  0
    2.6461   -4.3793    0.1506 C   0  0  0  0  0  0  0  0  0  0  0  0
    4.9199   -5.2971    0.6470 C   0  0  1  0  0  0  0  0  0  0  0  0
    4.5916   -6.3230   -0.2521 O   0  0  0  0  0  0  0  0  0  0  0  0
    5.9324   -4.3963   -0.0795 C   0  0  0  0  0  0  0  0  0  0  0  0
    6.2548   -3.0827    0.6280 C   0  0  0  0  0  0  0  0  0  0  0  0
    5.0000   -2.2728    0.9907 C   0  0  0  0  0  0  0  0  0  0  0  0
    5.4686   -0.9813    1.7087 C   0  0  0  0  0  0  0  0  0  0  0  0
    4.2917   -1.7547   -0.2948 C   0  0  0  0  0  0  0  0  0  0  0  0
    4.0480   -3.1626    1.8978 C   0  0  2  0  0  0  0  0  0  0  0  0
    4.5546   -3.1848    3.3800 C   0  0  0  0  0  0  0  0  0  0  0  0
    3.7247   -4.0156    4.3731 C   0  0  1  0  0  0  0  0  0  0  0  0
    2.4592   -3.3813    4.5212 O   0  0  0  0  0  0  0  0  0  0  0  0
    3.6366   -5.5147    3.9407 C   0  0  1  0  0  0  0  0  0  0  0  0
    5.0331   -6.1552    4.3314 C   0  0  2  0  0  0  0  0  0  0  0  0
    6.4250   -6.2703    3.7231 C   0  0  0  0  0  0  0  0  0  0  0  0
    6.9360   -5.4563    2.9681 O   0  0  0  0  0  0  0  0  0  0  0  0
    8.9665   -7.2660    3.3991 H   0  0  0  0  0  0  0  0  0  0  0  0
    8.8073   -8.6063    4.6362 H   0  0  0  0  0  0  0  0  0  0  0  0
    6.2036   -9.1254    5.3706 H   0  0  0  0  0  0  0  0  0  0  0  0
    6.3491   -7.6462    6.3699 H   0  0  0  0  0  0  0  0  0  0  0  0
    4.4053   -8.2021    4.0769 H   0  0  0  0  0  0  0  0  0  0  0  0
    3.1207   -8.0344    6.1728 H   0  0  0  0  0  0  0  0  0  0  0  0
    3.9786   -6.5488    6.6257 H   0  0  0  0  0  0  0  0  0  0  0  0
    0.6034   -7.3524    6.2047 H   0  0  0  0  0  0  0  0  0  0  0  0
   -1.0880   -8.9501    5.3145 H   0  0  0  0  0  0  0  0  0  0  0  0
   -0.9628   -9.7200    2.9706 H   0  0  0  0  0  0  0  0  0  0  0  0
    0.8485   -8.8518    1.4669 H   0  0  0  0  0  0  0  0  0  0  0  0
    3.6854   -7.5763    2.0567 H   0  0  0  0  0  0  0  0  0  0  0  0
    2.3741   -7.0598    1.0221 H   0  0  0  0  0  0  0  0  0  0  0  0
    1.8382   -4.0869    2.8978 H   0  0  0  0  0  0  0  0  0  0  0  0
    3.1114   -4.1807   -0.8133 H   0  0  0  0  0  0  0  0  0  0  0  0
    1.9748   -3.5427    0.3523 H   0  0  0  0  0  0  0  0  0  0  0  0
    2.0149   -5.2460   -0.0247 H   0  0  0  0  0  0  0  0  0  0  0  0
    5.4002   -5.8852    1.3927 H   0  0  0  0  0  0  0  0  0  0  0  0
    4.3074   -5.9249   -1.0698 H   0  0  0  0  0  0  0  0  0  0  0  0
    6.8585   -4.9581   -0.1853 H   0  0  0  0  0  0  0  0  0  0  0  0
    5.5930   -4.1912   -1.0950 H   0  0  0  0  0  0  0  0  0  0  0  0
    6.8249   -3.3111    1.5309 H   0  0  0  0  0  0  0  0  0  0  0  0
    6.9200   -2.4912    0.0079 H   0  0  0  0  0  0  0  0  0  0  0  0
    4.6215   -0.4098    2.0907 H   0  0  0  0  0  0  0  0  0  0  0  0
    6.0219   -0.3418    1.0209 H   0  0  0  0  0  0  0  0  0  0  0  0
    6.1547   -1.2012    2.5316 H   0  0  0  0  0  0  0  0  0  0  0  0
    3.2598   -1.4528   -0.0951 H   0  0  0  0  0  0  0  0  0  0  0  0
    4.2775   -2.4893   -1.0987 H   0  0  0  0  0  0  0  0  0  0  0  0
    4.8080   -0.8945   -0.7154 H   0  0  0  0  0  0  0  0  0  0  0  0
    3.1195   -2.5960    1.9782 H   0  0  0  0  0  0  0  0  0  0  0  0
    5.5919   -3.5040    3.4160 H   0  0  0  0  0  0  0  0  0  0  0  0
    4.5583   -2.1787    3.7890 H   0  0  0  0  0  0  0  0  0  0  0  0
    4.2032   -3.9394    5.3489 H   0  0  0  0  0  0  0  0  0  0  0  0
    1.9551   -3.7805    5.2085 H   0  0  0  0  0  0  0  0  0  0  0  0
    5.3465   -5.5930    5.2121 H   0  0  0  0  0  0  0  0  0  0  0  0
    2.3478   -5.6234    5.5124 H   0  0  0  0  0  0  0  0  0  0  0  0
  1  2  2  0
  1 33  1  0
  1 34  1  0
  2 31  1  0
  2  3  1  0
  3  4  1  0
  3 35  1  0
  3 36  1  0
  4 30  1  0
  4  5  1  0
  4 37  1  6
  5  6  1  0
  5 38  1  0
  5 39  1  0
  6 29  1  0
  6  7  1  0
  6 68  1  1
  7 12  2  0
  7  8  1  0
  8  9  2  0
  8 40  1  0
  9 10  1  0
  9 41  1  0
 10 11  2  0
 10 42  1  0
 11 12  1  0
 11 43  1  0
 12 13  1  0
 13 14  1  0
 13 44  1  0
 13 45  1  0
 29 14  1  6
 14 15  1  1
 14 16  1  0
 15 46  1  0
 16 25  1  0
 16 17  1  6
 16 18  1  0
 17 47  1  0
 17 48  1  0
 17 49  1  0
 18 19  1  0
 18 20  1  0
 18 50  1  1
 19 51  1  0
 20 21  1  0
 20 52  1  0
 20 53  1  0
 21 22  1  0
 21 54  1  0
 21 55  1  0
 22 23  1  0
 22 24  1  0
 22 25  1  0
 23 56  1  0
 23 57  1  0
 23 58  1  0
 24 59  1  0
 24 60  1  0
 24 61  1  0
 25 26  1  0
 25 62  1  1
 26 27  1  0
 26 63  1  0
 26 64  1  0
 27 28  1  0
 27 29  1  0
 27 65  1  1
 28 66  1  0
 29 30  1  0
 30 31  1  0
 30 67  1  1
 31 32  2  0
M  CHG  1   6   1
M  END
>  <i_m_ct_stereo_status>  (428) 
1

>  <s_m_source_file>  (428) 
/var/tmp/pbs.5076255.sched01/tmp9yj1qf5s/135tauqa2n_.sdf

>  <i_m_source_file_index>  (428) 
28

>  <i_lp_mmshare_version>  (428) 
48012

>  <i_f3d_flags>  (428) 
0

>  <s_epik_input>  (428) 
W0NIMl09QyhbQ0gyXTEpQyg9TylbQ0BASF0yW0NAQEhdMVtDSDJdTihbQ0BAXTIzNCljNWMoW2NIXVtjSF1bY0hdW2NIXTUpW0NIMl1bQ0BdMyhbT0hdKVtDQEBdNihbQ0gzXSlbQ0BASF0oW0NIMl1bQ0BIXTRbT0hdKUMoW0NIM10pKFtDSDNdKVtDSDJdW0NIMl1bQ0BASF02W09IXQ==

>  <s_epik_cmdline>  (428) 
J2VwaWtfcHl0aG9uJywgJy1waHQnLCAnMi4wJywgJy1waCcsICc3LjAnLCAnLXRuJywgJzgnLCAnLW1hJywgJzIwMCcsICctaW1hZScsICc8aW5maWxlLm1hZT4nLCAnLW9tYWUnLCAnPG91dGZpbGUubWFlPic=

>  <r_epik_Ionization_Penalty>  (428) 
0.109317

>  <r_epik_Ionization_Penalty_Charging>  (428) 
0.109315

>  <r_epik_Ionization_Penalty_Neutral>  (428) 
1.67852e-06

>  <r_epik_State_Penalty>  (428) 
0.0990899

>  <r_epik_Charging_Adjusted_Penalty>  (428) 
0.208405

>  <i_epik_Tot_Q>  (428) 
1

>  <i_epik_Tot_abs_Q>  (428) 
1

>  <s_lp_Force_Field>  (428) 
OPLS3e

>  <r_lp_Energy>  (428) 
92.9117

>  <b_lp_Chiralities_Consistent>  (428) 
1

>  <s_lp_Variant>  (428) 
101:0-1

>  <s_i_glide_gridfile>  (428) 
pfpi4k_grid

>  <i_i_glide_lignum>  (428) 
28

>  <i_i_glide_rotatable_bonds>  (428) 
3

>  <r_i_docking_score>  (428) 
-3.57347

>  <r_i_glide_ligand_efficiency>  (428) 
-0.111671

>  <r_i_glide_ligand_efficiency_sa>  (428) 
-0.354533

>  <r_i_glide_ligand_efficiency_ln>  (428) 
-0.800198

>  <r_i_glide_gscore>  (428) 
-3.57347

>  <r_i_glide_lipo>  (428) 
-0.397828

>  <r_i_glide_hbond>  (428) 
-0.27039

>  <r_i_glide_metal>  (428) 
-0

>  <r_i_glide_rewards>  (428) 
-0.920182

>  <r_i_glide_evdw>  (428) 
-24.3481

>  <r_i_glide_ecoul>  (428) 
-5.11781

>  <r_i_glide_erotb>  (428) 
0

>  <r_i_glide_esite>  (428) 
0

>  <r_i_glide_emodel>  (428) 
-42.5075

>  <r_i_glide_energy>  (428) 
-29.4659

>  <r_i_glide_einternal>  (428) 
0.948945

>  <r_i_glide_intrahb_reward>  (428) 
-0.5

>  <i_i_glide_confnum>  (428) 
1

>  <i_i_glide_posenum>  (428) 
27

>  <r_i_glide_eff_state_penalty>  (428) 
0

>  <ligand_id>  (428) 
101

>  <original_smiles>  (428) 
C=C1CC2CN3c4ccccc4CC4(O)C5(C)C(O)CCC(C)(C)C5CC(O)C34C2C1=O

>  <smiles>  (428) 
[H]OC1([H])C([H])([H])C([H])([H])C(C([H])([H])[H])(C([H])([H])[H])C2([H])C([H])([H])C([H])(O[H])C34C5([H])C(=O)C(=C([H])[H])C([H])([H])C5([H])C([H])([H])[N+]3([H])c3c([H])c([H])c([H])c([H])c3C([H])([H])C4(O[H])C12C([H])([H])[H]

$$$$
102:0:0
     RDKit          3D

 86 91  0  0  1  0  0  0  0  0999 V2000
   -0.0631   -7.6141    3.7271 C   0  0  0  0  0  0  0  0  0  0  0  0
    1.0305   -6.5408    3.9610 C   0  0  0  0  0  0  0  0  0  0  0  0
    0.6495   -5.6989    5.1974 C   0  0  0  0  0  0  0  0  0  0  0  0
    1.3612   -5.6785    2.6951 C   0  0  2  0  0  0  0  0  0  0  0  0
    1.5590   -6.5199    1.4077 C   0  0  0  0  0  0  0  0  0  0  0  0
    2.4364   -5.6668    0.4975 C   0  0  0  0  0  0  0  0  0  0  0  0
    3.4269   -4.9676    1.4381 C   0  0  1  0  0  0  0  0  0  0  0  0
    4.6718   -5.8746    1.6355 C   0  0  0  0  0  0  0  0  0  0  0  0
    3.8607   -3.6213    0.8036 C   0  0  0  0  0  0  0  0  0  0  0  0
    4.5180   -2.6360    1.7962 C   0  0  0  0  0  0  0  0  0  0  0  0
    3.7200   -2.3946    3.1319 C   0  0  2  0  0  0  0  0  0  0  0  0
    4.6547   -2.9444    4.2692 C   0  0  0  0  0  0  0  0  0  0  0  0
    2.4009   -3.2588    3.0901 C   0  0  2  0  0  0  0  0  0  0  0  0
    1.5734   -2.9895    4.3416 C   0  0  0  0  0  0  0  0  0  0  0  0
    1.2196   -1.5388    4.5521 C   0  0  0  0  0  0  0  0  0  0  0  0
    2.4661   -0.6303    4.6864 C   0  0  1  0  0  0  0  0  0  0  0  0
    3.3704   -0.8290    3.3716 C   0  0  1  0  0  0  0  0  0  0  0  0
    4.7469   -0.1308    3.5304 C   0  0  0  0  0  0  0  0  0  0  0  0
    2.6922   -0.2580    2.0845 C   0  0  0  0  0  0  0  0  0  0  0  0
    1.5839    0.7966    2.1868 C   0  0  0  0  0  0  0  0  0  0  0  0
    1.8283    1.9777    3.1332 C   0  0  0  0  0  0  0  0  0  0  0  0
    1.2549    1.8305    4.5689 C   0  0  2  0  0  0  0  0  0  0  0  0
   -0.2763    1.5590    4.5003 C   0  0  0  0  0  0  0  0  0  0  0  0
    1.4455    3.1234    5.4521 C   0  0  1  0  0  0  0  0  0  0  0  0
    2.8796    3.0683    5.9596 C   0  0  1  0  0  0  0  0  0  0  0  0
    3.3291    1.6145    5.8365 C   0  0  0  0  0  0  0  0  0  0  0  0
    2.1036    0.7721    5.3845 C   0  0  2  0  0  0  0  0  0  0  0  0
    1.3874    0.4393    6.7460 C   0  0  0  0  0  0  0  0  0  0  0  0
    3.5819    3.9496    5.0705 O   0  0  0  0  0  0  0  0  0  0  0  0
    2.7565    4.8157    4.4327 C   0  0  0  0  0  0  0  0  0  0  0  0
    3.0976    5.6725    3.6440 O   0  0  0  0  0  0  0  0  0  0  0  0
    1.3455    4.5473    4.9082 C   0  0  1  0  0  0  0  0  0  0  0  0
    0.2243    4.9605    3.9421 C   0  0  0  0  0  0  0  0  0  0  0  0
    2.6448   -4.7766    2.7861 C   0  0  1  0  0  0  0  0  0  0  0  0
   -1.0340   -7.1577    3.5325 H   0  0  0  0  0  0  0  0  0  0  0  0
   -0.1636   -8.2088    4.6394 H   0  0  0  0  0  0  0  0  0  0  0  0
    0.1762   -8.3077    2.9191 H   0  0  0  0  0  0  0  0  0  0  0  0
    1.9422   -7.0836    4.2162 H   0  0  0  0  0  0  0  0  0  0  0  0
   -0.2618   -5.1169    4.9631 H   0  0  0  0  0  0  0  0  0  0  0  0
    1.4193   -5.0745    5.4610 H   0  0  0  0  0  0  0  0  0  0  0  0
    0.3597   -6.3619    6.0451 H   0  0  0  0  0  0  0  0  0  0  0  0
    0.5152   -5.0221    2.5037 H   0  0  0  0  0  0  0  0  0  0  0  0
    2.0677   -7.4560    1.6334 H   0  0  0  0  0  0  0  0  0  0  0  0
    0.6145   -6.7842    0.9185 H   0  0  0  0  0  0  0  0  0  0  0  0
    2.9437   -6.2288   -0.2906 H   0  0  0  0  0  0  0  0  0  0  0  0
    1.8104   -4.9396   -0.0164 H   0  0  0  0  0  0  0  0  0  0  0  0
    5.3954   -5.4248    2.3066 H   0  0  0  0  0  0  0  0  0  0  0  0
    5.1799   -6.0728    0.6947 H   0  0  0  0  0  0  0  0  0  0  0  0
    4.3982   -6.8458    2.0607 H   0  0  0  0  0  0  0  0  0  0  0  0
    4.5332   -3.8040   -0.0255 H   0  0  0  0  0  0  0  0  0  0  0  0
    2.9890   -3.1208    0.3619 H   0  0  0  0  0  0  0  0  0  0  0  0
    5.5264   -2.9913    2.0047 H   0  0  0  0  0  0  0  0  0  0  0  0
    4.6881   -1.7159    1.2459 H   0  0  0  0  0  0  0  0  0  0  0  0
    4.2290   -2.9047    5.2646 H   0  0  0  0  0  0  0  0  0  0  0  0
    5.6105   -2.4171    4.3318 H   0  0  0  0  0  0  0  0  0  0  0  0
    4.9366   -3.9857    4.1054 H   0  0  0  0  0  0  0  0  0  0  0  0
    1.7754   -2.9012    2.2541 H   0  0  0  0  0  0  0  0  0  0  0  0
    0.6350   -3.5297    4.2698 H   0  0  0  0  0  0  0  0  0  0  0  0
    2.0800   -3.3427    5.2275 H   0  0  0  0  0  0  0  0  0  0  0  0
    0.5601   -1.2227    3.7562 H   0  0  0  0  0  0  0  0  0  0  0  0
    0.6266   -1.5535    5.4645 H   0  0  0  0  0  0  0  0  0  0  0  0
    3.0552   -1.0900    5.4737 H   0  0  0  0  0  0  0  0  0  0  0  0
    4.6617    0.8986    3.2772 H   0  0  0  0  0  0  0  0  0  0  0  0
    5.5199   -0.5195    2.8627 H   0  0  0  0  0  0  0  0  0  0  0  0
    5.1343   -0.2189    4.5446 H   0  0  0  0  0  0  0  0  0  0  0  0
    3.4705    0.1470    1.4214 H   0  0  0  0  0  0  0  0  0  0  0  0
    2.2588   -1.0480    1.4859 H   0  0  0  0  0  0  0  0  0  0  0  0
    1.4860    1.2118    1.1808 H   0  0  0  0  0  0  0  0  0  0  0  0
    0.6089    0.3402    2.3358 H   0  0  0  0  0  0  0  0  0  0  0  0
    2.8890    2.2241    3.1328 H   0  0  0  0  0  0  0  0  0  0  0  0
    1.3557    2.8223    2.6496 H   0  0  0  0  0  0  0  0  0  0  0  0
   -0.7766    1.7430    5.4533 H   0  0  0  0  0  0  0  0  0  0  0  0
   -0.5279    0.5415    4.2133 H   0  0  0  0  0  0  0  0  0  0  0  0
   -0.7486    2.2124    3.7754 H   0  0  0  0  0  0  0  0  0  0  0  0
    0.7763    3.0715    6.3210 H   0  0  0  0  0  0  0  0  0  0  0  0
    2.9626    3.4350    6.9801 H   0  0  0  0  0  0  0  0  0  0  0  0
    4.1524    1.6212    5.1356 H   0  0  0  0  0  0  0  0  0  0  0  0
    3.7459    1.2433    6.7751 H   0  0  0  0  0  0  0  0  0  0  0  0
    1.3803    1.2699    7.4503 H   0  0  0  0  0  0  0  0  0  0  0  0
    1.8852   -0.3788    7.2702 H   0  0  0  0  0  0  0  0  0  0  0  0
    0.3425    0.1487    6.6394 H   0  0  0  0  0  0  0  0  0  0  0  0
    1.2336    5.1945    5.7727 H   0  0  0  0  0  0  0  0  0  0  0  0
    0.0964    6.0395    3.9291 H   0  0  0  0  0  0  0  0  0  0  0  0
   -0.7372    4.5230    4.2513 H   0  0  0  0  0  0  0  0  0  0  0  0
    0.4119    4.6699    2.9079 H   0  0  0  0  0  0  0  0  0  0  0  0
    3.2482   -5.2114    3.5863 H   0  0  0  0  0  0  0  0  0  0  0  0
  1  2  1  0
  1 35  1  0
  1 36  1  0
  1 37  1  0
  2  3  1  0
  2  4  1  0
  2 38  1  0
  3 39  1  0
  3 40  1  0
  3 41  1  0
  4 34  1  0
  4  5  1  0
  4 42  1  6
  5  6  1  0
  5 43  1  0
  5 44  1  0
  6  7  1  0
  6 45  1  0
  6 46  1  0
  7 34  1  0
  7  8  1  1
  7  9  1  0
  8 47  1  0
  8 48  1  0
  8 49  1  0
  9 10  1  0
  9 50  1  0
  9 51  1  0
 10 11  1  0
 10 52  1  0
 10 53  1  0
 11 17  1  0
 11 12  1  1
 11 13  1  0
 12 54  1  0
 12 55  1  0
 12 56  1  0
 13 14  1  0
 13 34  1  0
 13 57  1  6
 14 15  1  0
 14 58  1  0
 14 59  1  0
 15 16  1  0
 15 60  1  0
 15 61  1  0
 16 27  1  0
 16 17  1  0
 16 62  1  1
 17 18  1  1
 17 19  1  0
 18 63  1  0
 18 64  1  0
 18 65  1  0
 19 20  1  0
 19 66  1  0
 19 67  1  0
 20 21  1  0
 20 68  1  0
 20 69  1  0
 21 22  1  0
 21 70  1  0
 21 71  1  0
 22 27  1  0
 22 23  1  6
 22 24  1  0
 23 72  1  0
 23 73  1  0
 23 74  1  0
 24 32  1  0
 24 25  1  0
 24 75  1  1
 25 26  1  0
 25 29  1  0
 25 76  1  1
 26 27  1  0
 26 77  1  0
 26 78  1  0
 27 28  1  1
 28 79  1  0
 28 80  1  0
 28 81  1  0
 29 30  1  0
 30 31  2  0
 30 32  1  0
 32 33  1  0
 32 82  1  1
 33 83  1  0
 33 84  1  0
 33 85  1  0
 34 86  1  1
M  END
>  <i_m_ct_stereo_status>  (429) 
1

>  <s_m_source_file>  (429) 
/var/tmp/pbs.5076255.sched01/tmp9yj1qf5s/135tauqa2n_.sdf

>  <i_m_source_file_index>  (429) 
30

>  <i_lp_mmshare_version>  (429) 
48012

>  <i_f3d_flags>  (429) 
0

>  <s_epik_input>  (429) 
W0NIM11bQ0hdKFtDSDNdKVtDQEhdKFtDSDJdW0NIMl0xKVtDQEBIXShbQ0BAXTEyW0NIM10pW0NAQEhdM1tDQEBdKFtDSDNdKShbQ0gyXVtDSDJdMilbQ0BdNChbQ0gzXSlbQ0BIXShbQ0gyXVtDSDJdMylbQ0BdNShbQ0gzXSlbQ0BdKFtDSDNdKShbQ0gyXVtDSDJdW0NIMl00KVtDQEhdNltDQEBIXShbQ0gyXTUpT0MoPU8pW0NASF02W0NIM10=

>  <s_epik_cmdline>  (429) 
J2VwaWtfcHl0aG9uJywgJy1waHQnLCAnMi4wJywgJy1waCcsICc3LjAnLCAnLXRuJywgJzgnLCAnLW1hJywgJzIwMCcsICctaW1hZScsICc8aW5maWxlLm1hZT4nLCAnLW9tYWUnLCAnPG91dGZpbGUubWFlPic=

>  <r_lp_tautomer_probability>  (429) 
1

>  <r_epik_Ionization_Penalty>  (429) 
0

>  <r_epik_Ionization_Penalty_Charging>  (429) 
0

>  <r_epik_Ionization_Penalty_Neutral>  (429) 
0

>  <r_epik_State_Penalty>  (429) 
-0

>  <r_epik_Charging_Adjusted_Penalty>  (429) 
0

>  <i_epik_Tot_Q>  (429) 
0

>  <i_epik_Tot_abs_Q>  (429) 
0

>  <s_epik_Chemistry_Notes>  (429) 
This compound has an ester and may undergo hydrolysis at high or low pH.

>  <s_lp_Force_Field>  (429) 
OPLS3e

>  <r_lp_Energy>  (429) 
111.8

>  <b_lp_Chiralities_Consistent>  (429) 
1

>  <s_lp_Variant>  (429) 
102:0-1

>  <s_i_glide_gridfile>  (429) 
pfpi4k_grid

>  <i_i_glide_lignum>  (429) 
30

>  <i_i_glide_rotatable_bonds>  (429) 
1

>  <r_i_docking_score>  (429) 
-1.52989

>  <r_i_glide_ligand_efficiency>  (429) 
-0.0449968

>  <r_i_glide_ligand_efficiency_sa>  (429) 
-0.145772

>  <r_i_glide_ligand_efficiency_ln>  (429) 
-0.337996

>  <r_i_glide_gscore>  (429) 
-1.52989

>  <r_i_glide_lipo>  (429) 
-0.191365

>  <r_i_glide_hbond>  (429) 
0

>  <r_i_glide_metal>  (429) 
-0

>  <r_i_glide_rewards>  (429) 
-0.21304

>  <r_i_glide_evdw>  (429) 
-21.8093

>  <r_i_glide_ecoul>  (429) 
-0.167683

>  <r_i_glide_erotb>  (429) 
0

>  <r_i_glide_esite>  (429) 
-0.00987032

>  <r_i_glide_emodel>  (429) 
-21.5697

>  <r_i_glide_energy>  (429) 
-21.9769

>  <r_i_glide_einternal>  (429) 
1.35846

>  <r_i_glide_intrahb_reward>  (429) 
-0

>  <i_i_glide_confnum>  (429) 
2

>  <i_i_glide_posenum>  (429) 
34

>  <r_i_glide_eff_state_penalty>  (429) 
0

>  <ligand_id>  (429) 
102

>  <original_smiles>  (429) 
CC(C)C1CCC2(C)CCC3(C)C(CCC4C3(C)CCCC3(C)C5C(CC43C)OC(=O)C5C)C12

>  <smiles>  (429) 
[H]C([H])([H])C1([H])C(=O)OC2([H])C([H])([H])C3(C([H])([H])[H])C4([H])C([H])([H])C([H])([H])C5([H])C6([H])C([H])(C([H])(C([H])([H])[H])C([H])([H])[H])C([H])([H])C([H])([H])C6(C([H])([H])[H])C([H])([H])C([H])([H])C5(C([H])([H])[H])C4(C([H])([H])[H])C([H])([H])C([H])([H])C([H])([H])C3(C([H])([H])[H])C21[H]

$$$$
102:0:1
     RDKit          3D

 86 91  0  0  1  0  0  0  0  0999 V2000
   -0.4126   -8.5425    3.5148 C   0  0  0  0  0  0  0  0  0  0  0  0
    0.7106   -9.4271    2.9313 C   0  0  0  0  0  0  0  0  0  0  0  0
    1.0059  -10.5536    3.9435 C   0  0  0  0  0  0  0  0  0  0  0  0
    1.9700   -8.6725    2.3768 C   0  0  2  0  0  0  0  0  0  0  0  0
    2.8678   -9.5920    1.5323 C   0  0  0  0  0  0  0  0  0  0  0  0
    4.2589   -8.9903    1.5946 C   0  0  0  0  0  0  0  0  0  0  0  0
    4.3833   -8.4165    3.0200 C   0  0  1  0  0  0  0  0  0  0  0  0
    4.9260   -9.5234    3.9605 C   0  0  0  0  0  0  0  0  0  0  0  0
    5.3604   -7.2078    3.0106 C   0  0  0  0  0  0  0  0  0  0  0  0
    5.2524   -6.3089    4.2533 C   0  0  0  0  0  0  0  0  0  0  0  0
    3.8014   -5.8415    4.6406 C   0  0  2  0  0  0  0  0  0  0  0  0
    3.5272   -6.4863    6.0460 C   0  0  0  0  0  0  0  0  0  0  0  0
    2.7919   -6.4532    3.5760 C   0  0  2  0  0  0  0  0  0  0  0  0
    1.3497   -6.0180    3.8631 C   0  0  0  0  0  0  0  0  0  0  0  0
    1.2330   -4.5005    3.9224 C   0  0  0  0  0  0  0  0  0  0  0  0
    2.1346   -3.8151    4.9842 C   0  0  1  0  0  0  0  0  0  0  0  0
    3.6521   -4.2353    4.6990 C   0  0  1  0  0  0  0  0  0  0  0  0
    4.5968   -3.7690    5.8413 C   0  0  0  0  0  0  0  0  0  0  0  0
    4.2233   -3.6247    3.3773 C   0  0  0  0  0  0  0  0  0  0  0  0
    3.5640   -2.3951    2.7442 C   0  0  0  0  0  0  0  0  0  0  0  0
    3.2461   -1.2289    3.6839 C   0  0  0  0  0  0  0  0  0  0  0  0
    1.8013   -1.1859    4.2612 C   0  0  2  0  0  0  0  0  0  0  0  0
    0.7779   -1.1852    3.0925 C   0  0  0  0  0  0  0  0  0  0  0  0
    1.5023    0.0972    5.1110 C   0  0  1  0  0  0  0  0  0  0  0  0
    2.1025   -0.1801    6.4909 C   0  0  1  0  0  0  0  0  0  0  0  0
    2.2632   -1.6982    6.5972 C   0  0  0  0  0  0  0  0  0  0  0  0
    1.6154   -2.3294    5.3269 C   0  0  2  0  0  0  0  0  0  0  0  0
    0.1042   -2.4436    5.7338 C   0  0  0  0  0  0  0  0  0  0  0  0
    3.3536    0.5039    6.4623 O   0  0  0  0  0  0  0  0  0  0  0  0
    3.3943    1.4604    5.5206 C   0  0  0  0  0  0  0  0  0  0  0  0
    4.3459    2.2217    5.3038 O   0  0  0  0  0  0  0  0  0  0  0  0
    2.0680    1.4801    4.7880 C   0  0  1  0  0  0  0  0  0  0  0  0
    2.0760    2.0238    3.3483 C   0  0  0  0  0  0  0  0  0  0  0  0
    2.9323   -8.0039    3.4232 C   0  0  1  0  0  0  0  0  0  0  0  0
   -0.0975   -8.0487    4.4243 H   0  0  0  0  0  0  0  0  0  0  0  0
   -1.3064   -9.1581    3.6908 H   0  0  0  0  0  0  0  0  0  0  0  0
   -0.6759   -7.7424    2.8200 H   0  0  0  0  0  0  0  0  0  0  0  0
    0.2615   -9.9302    2.0764 H   0  0  0  0  0  0  0  0  0  0  0  0
    1.4648  -10.1748    4.8546 H   0  0  0  0  0  0  0  0  0  0  0  0
    1.6509  -11.3347    3.5373 H   0  0  0  0  0  0  0  0  0  0  0  0
    0.0793  -11.0401    4.2446 H   0  0  0  0  0  0  0  0  0  0  0  0
    1.6499   -7.8876    1.6903 H   0  0  0  0  0  0  0  0  0  0  0  0
    2.9421  -10.5912    1.9464 H   0  0  0  0  0  0  0  0  0  0  0  0
    2.5282   -9.7073    0.5033 H   0  0  0  0  0  0  0  0  0  0  0  0
    5.0247   -9.7351    1.3639 H   0  0  0  0  0  0  0  0  0  0  0  0
    4.3377   -8.2057    0.8395 H   0  0  0  0  0  0  0  0  0  0  0  0
    5.0141   -9.1755    4.9877 H   0  0  0  0  0  0  0  0  0  0  0  0
    5.9133   -9.8683    3.6525 H   0  0  0  0  0  0  0  0  0  0  0  0
    4.2747  -10.4002    3.9736 H   0  0  0  0  0  0  0  0  0  0  0  0
    6.3790   -7.5745    2.9092 H   0  0  0  0  0  0  0  0  0  0  0  0
    5.1751   -6.6070    2.1153 H   0  0  0  0  0  0  0  0  0  0  0  0
    5.7100   -6.8424    5.0875 H   0  0  0  0  0  0  0  0  0  0  0  0
    5.9302   -5.4701    4.0962 H   0  0  0  0  0  0  0  0  0  0  0  0
    2.5276   -6.3155    6.4337 H   0  0  0  0  0  0  0  0  0  0  0  0
    4.2186   -6.1421    6.8171 H   0  0  0  0  0  0  0  0  0  0  0  0
    3.6666   -7.5639    6.0452 H   0  0  0  0  0  0  0  0  0  0  0  0
    3.0346   -6.0479    2.5915 H   0  0  0  0  0  0  0  0  0  0  0  0
    0.6981   -6.3701    3.0991 H   0  0  0  0  0  0  0  0  0  0  0  0
    1.0039   -6.4513    4.7998 H   0  0  0  0  0  0  0  0  0  0  0  0
    1.4352   -4.1081    2.9293 H   0  0  0  0  0  0  0  0  0  0  0  0
    0.1857   -4.3316    4.1225 H   0  0  0  0  0  0  0  0  0  0  0  0
    1.8937   -4.3176    5.9174 H   0  0  0  0  0  0  0  0  0  0  0  0
    4.9111   -2.7388    5.7064 H   0  0  0  0  0  0  0  0  0  0  0  0
    5.5206   -4.3410    5.8862 H   0  0  0  0  0  0  0  0  0  0  0  0
    4.1132   -3.8890    6.8100 H   0  0  0  0  0  0  0  0  0  0  0  0
    5.2815   -3.4057    3.5120 H   0  0  0  0  0  0  0  0  0  0  0  0
    4.2250   -4.3650    2.5831 H   0  0  0  0  0  0  0  0  0  0  0  0
    4.2829   -2.0263    2.0165 H   0  0  0  0  0  0  0  0  0  0  0  0
    2.7166   -2.6674    2.1252 H   0  0  0  0  0  0  0  0  0  0  0  0
    3.9964   -1.1743    4.4664 H   0  0  0  0  0  0  0  0  0  0  0  0
    3.4007   -0.3424    3.0855 H   0  0  0  0  0  0  0  0  0  0  0  0
   -0.2112   -0.8579    3.4137 H   0  0  0  0  0  0  0  0  0  0  0  0
    0.6406   -2.1571    2.6279 H   0  0  0  0  0  0  0  0  0  0  0  0
    1.0837   -0.4982    2.3035 H   0  0  0  0  0  0  0  0  0  0  0  0
    0.4258    0.2274    5.2135 H   0  0  0  0  0  0  0  0  0  0  0  0
    1.4758    0.2078    7.2943 H   0  0  0  0  0  0  0  0  0  0  0  0
    3.3216   -1.8700    6.7092 H   0  0  0  0  0  0  0  0  0  0  0  0
    1.8023   -2.0789    7.5088 H   0  0  0  0  0  0  0  0  0  0  0  0
   -0.2634   -1.5835    6.2884 H   0  0  0  0  0  0  0  0  0  0  0  0
   -0.0675   -3.3051    6.3783 H   0  0  0  0  0  0  0  0  0  0  0  0
   -0.5704   -2.5490    4.8859 H   0  0  0  0  0  0  0  0  0  0  0  0
    1.4944    2.1889    5.3726 H   0  0  0  0  0  0  0  0  0  0  0  0
    2.1691    3.1116    3.3581 H   0  0  0  0  0  0  0  0  0  0  0  0
    1.1377    1.7989    2.8529 H   0  0  0  0  0  0  0  0  0  0  0  0
    2.8969    1.6564    2.7344 H   0  0  0  0  0  0  0  0  0  0  0  0
    2.7196   -8.4452    4.3904 H   0  0  0  0  0  0  0  0  0  0  0  0
  1  2  1  0
  1 35  1  0
  1 36  1  0
  1 37  1  0
  2  3  1  0
  2  4  1  0
  2 38  1  0
  3 39  1  0
  3 40  1  0
  3 41  1  0
  4 34  1  0
  4  5  1  0
  4 42  1  6
  5  6  1  0
  5 43  1  0
  5 44  1  0
  6  7  1  0
  6 45  1  0
  6 46  1  0
  7 34  1  0
  7  8  1  1
  7  9  1  0
  8 47  1  0
  8 48  1  0
  8 49  1  0
  9 10  1  0
  9 50  1  0
  9 51  1  0
 10 11  1  0
 10 52  1  0
 10 53  1  0
 11 17  1  0
 11 12  1  1
 11 13  1  0
 12 54  1  0
 12 55  1  0
 12 56  1  0
 13 14  1  0
 13 34  1  0
 13 57  1  6
 14 15  1  0
 14 58  1  0
 14 59  1  0
 15 16  1  0
 15 60  1  0
 15 61  1  0
 16 27  1  0
 16 17  1  0
 16 62  1  1
 17 18  1  1
 17 19  1  0
 18 63  1  0
 18 64  1  0
 18 65  1  0
 19 20  1  0
 19 66  1  0
 19 67  1  0
 20 21  1  0
 20 68  1  0
 20 69  1  0
 21 22  1  0
 21 70  1  0
 21 71  1  0
 22 27  1  0
 22 23  1  6
 22 24  1  0
 23 72  1  0
 23 73  1  0
 23 74  1  0
 24 32  1  0
 24 25  1  0
 24 75  1  1
 25 26  1  0
 25 29  1  0
 25 76  1  1
 26 27  1  0
 26 77  1  0
 26 78  1  0
 27 28  1  1
 28 79  1  0
 28 80  1  0
 28 81  1  0
 29 30  1  0
 30 31  2  0
 30 32  1  0
 32 33  1  0
 32 82  1  1
 33 83  1  0
 33 84  1  0
 33 85  1  0
 34 86  1  1
M  END
>  <i_m_ct_stereo_status>  (430) 
1

>  <s_m_source_file>  (430) 
/var/tmp/pbs.5076255.sched01/tmp9yj1qf5s/135tauqa2n_.sdf

>  <i_m_source_file_index>  (430) 
30

>  <i_lp_mmshare_version>  (430) 
48012

>  <i_f3d_flags>  (430) 
0

>  <s_epik_input>  (430) 
W0NIM11bQ0hdKFtDSDNdKVtDQEhdKFtDSDJdW0NIMl0xKVtDQEBIXShbQ0BAXTEyW0NIM10pW0NAQEhdM1tDQEBdKFtDSDNdKShbQ0gyXVtDSDJdMilbQ0BdNChbQ0gzXSlbQ0BIXShbQ0gyXVtDSDJdMylbQ0BdNShbQ0gzXSlbQ0BdKFtDSDNdKShbQ0gyXVtDSDJdW0NIMl00KVtDQEhdNltDQEBIXShbQ0gyXTUpT0MoPU8pW0NASF02W0NIM10=

>  <s_epik_cmdline>  (430) 
J2VwaWtfcHl0aG9uJywgJy1waHQnLCAnMi4wJywgJy1waCcsICc3LjAnLCAnLXRuJywgJzgnLCAnLW1hJywgJzIwMCcsICctaW1hZScsICc8aW5maWxlLm1hZT4nLCAnLW9tYWUnLCAnPG91dGZpbGUubWFlPic=

>  <r_lp_tautomer_probability>  (430) 
1

>  <r_epik_Ionization_Penalty>  (430) 
0

>  <r_epik_Ionization_Penalty_Charging>  (430) 
0

>  <r_epik_Ionization_Penalty_Neutral>  (430) 
0

>  <r_epik_State_Penalty>  (430) 
-0

>  <r_epik_Charging_Adjusted_Penalty>  (430) 
0

>  <i_epik_Tot_Q>  (430) 
0

>  <i_epik_Tot_abs_Q>  (430) 
0

>  <s_epik_Chemistry_Notes>  (430) 
This compound has an ester and may undergo hydrolysis at high or low pH.

>  <s_lp_Force_Field>  (430) 
OPLS3e

>  <r_lp_Energy>  (430) 
111.8

>  <b_lp_Chiralities_Consistent>  (430) 
1

>  <s_lp_Variant>  (430) 
102:0-1

>  <s_i_glide_gridfile>  (430) 
pfpi4k_grid

>  <i_i_glide_lignum>  (430) 
30

>  <i_i_glide_rotatable_bonds>  (430) 
1

>  <r_i_docking_score>  (430) 
-1.3119

>  <r_i_glide_ligand_efficiency>  (430) 
-0.0385852

>  <r_i_glide_ligand_efficiency_sa>  (430) 
-0.125001

>  <r_i_glide_ligand_efficiency_ln>  (430) 
-0.289835

>  <r_i_glide_gscore>  (430) 
-1.3119

>  <r_i_glide_lipo>  (430) 
-0.0232789

>  <r_i_glide_hbond>  (430) 
0

>  <r_i_glide_metal>  (430) 
-0

>  <r_i_glide_rewards>  (430) 
-0.21304

>  <r_i_glide_evdw>  (430) 
-19.3363

>  <r_i_glide_ecoul>  (430) 
-0.72508

>  <r_i_glide_erotb>  (430) 
0

>  <r_i_glide_esite>  (430) 
0

>  <r_i_glide_emodel>  (430) 
-20.1169

>  <r_i_glide_energy>  (430) 
-20.0614

>  <r_i_glide_einternal>  (430) 
1.92093

>  <r_i_glide_intrahb_reward>  (430) 
-0

>  <i_i_glide_confnum>  (430) 
1

>  <i_i_glide_posenum>  (430) 
8

>  <r_i_glide_eff_state_penalty>  (430) 
0

>  <ligand_id>  (430) 
102

>  <original_smiles>  (430) 
CC(C)C1CCC2(C)CCC3(C)C(CCC4C3(C)CCCC3(C)C5C(CC43C)OC(=O)C5C)C12

>  <smiles>  (430) 
[H]C([H])([H])C1([H])C(=O)OC2([H])C([H])([H])C3(C([H])([H])[H])C4([H])C([H])([H])C([H])([H])C5([H])C6([H])C([H])(C([H])(C([H])([H])[H])C([H])([H])[H])C([H])([H])C([H])([H])C6(C([H])([H])[H])C([H])([H])C([H])([H])C5(C([H])([H])[H])C4(C([H])([H])[H])C([H])([H])C([H])([H])C([H])([H])C3(C([H])([H])[H])C21[H]

$$$$
102:0:2
     RDKit          3D

 86 91  0  0  1  0  0  0  0  0999 V2000
    0.4074   -6.0807    6.2924 C   0  0  0  0  0  0  0  0  0  0  0  0
    0.6215   -6.9741    5.0487 C   0  0  0  0  0  0  0  0  0  0  0  0
    1.8206   -7.9068    5.3438 C   0  0  0  0  0  0  0  0  0  0  0  0
    0.7089   -6.2282    3.6715 C   0  0  2  0  0  0  0  0  0  0  0  0
    0.5753   -7.2004    2.4817 C   0  0  0  0  0  0  0  0  0  0  0  0
    1.2469   -6.5085    1.3079 C   0  0  0  0  0  0  0  0  0  0  0  0
    2.4361   -5.7269    1.9174 C   0  0  1  0  0  0  0  0  0  0  0  0
    3.6738   -6.6563    1.9577 C   0  0  0  0  0  0  0  0  0  0  0  0
    2.7615   -4.4800    1.0514 C   0  0  0  0  0  0  0  0  0  0  0  0
    3.6007   -3.4095    1.7694 C   0  0  0  0  0  0  0  0  0  0  0  0
    3.0950   -2.9840    3.2038 C   0  0  2  0  0  0  0  0  0  0  0  0
    4.2500   -3.4339    4.1708 C   0  0  0  0  0  0  0  0  0  0  0  0
    1.7851   -3.8075    3.5344 C   0  0  2  0  0  0  0  0  0  0  0  0
    1.2221   -3.4299    4.9124 C   0  0  0  0  0  0  0  0  0  0  0  0
    0.9686   -1.9322    5.0182 C   0  0  0  0  0  0  0  0  0  0  0  0
    2.2163   -1.0425    4.7721 C   0  0  1  0  0  0  0  0  0  0  0  0
    2.8155   -1.3969    3.3295 C   0  0  1  0  0  0  0  0  0  0  0  0
    4.1841   -0.7129    3.0933 C   0  0  0  0  0  0  0  0  0  0  0  0
    1.8826   -0.9544    2.1520 C   0  0  0  0  0  0  0  0  0  0  0  0
    0.8226    0.1326    2.3723 C   0  0  0  0  0  0  0  0  0  0  0  0
    1.2706    1.3974    3.1033 C   0  0  0  0  0  0  0  0  0  0  0  0
    1.0164    1.4243    4.6363 C   0  0  2  0  0  0  0  0  0  0  0  0
   -0.4958    1.1844    4.9256 C   0  0  0  0  0  0  0  0  0  0  0  0
    1.3852    2.7961    5.3070 C   0  0  1  0  0  0  0  0  0  0  0  0
    2.9035    2.7674    5.4993 C   0  0  1  0  0  0  0  0  0  0  0  0
    3.3128    1.2940    5.4430 C   0  0  0  0  0  0  0  0  0  0  0  0
    2.0124    0.4415    5.3640 C   0  0  2  0  0  0  0  0  0  0  0  0
    1.6068    0.2870    6.8732 C   0  0  0  0  0  0  0  0  0  0  0  0
    3.4004    3.5285    4.4011 O   0  0  0  0  0  0  0  0  0  0  0  0
    2.4717    4.3231    3.8483 C   0  0  0  0  0  0  0  0  0  0  0  0
    2.6426    5.0935    2.9063 O   0  0  0  0  0  0  0  0  0  0  0  0
    1.1789    4.1525    4.6251 C   0  0  1  0  0  0  0  0  0  0  0  0
   -0.1181    4.4857    3.8978 C   0  0  0  0  0  0  0  0  0  0  0  0
    1.9737   -5.3541    3.3673 C   0  0  1  0  0  0  0  0  0  0  0  0
    1.2608   -5.4325    6.4660 H   0  0  0  0  0  0  0  0  0  0  0  0
    0.1965   -6.7120    7.1669 H   0  0  0  0  0  0  0  0  0  0  0  0
   -0.4383   -5.4068    6.1315 H   0  0  0  0  0  0  0  0  0  0  0  0
   -0.2690   -7.6106    4.9612 H   0  0  0  0  0  0  0  0  0  0  0  0
    2.7587   -7.3542    5.4130 H   0  0  0  0  0  0  0  0  0  0  0  0
    1.9510   -8.6891    4.5939 H   0  0  0  0  0  0  0  0  0  0  0  0
    1.6863   -8.4034    6.3060 H   0  0  0  0  0  0  0  0  0  0  0  0
   -0.1391   -5.5532    3.5975 H   0  0  0  0  0  0  0  0  0  0  0  0
    1.1108   -8.1303    2.6521 H   0  0  0  0  0  0  0  0  0  0  0  0
   -0.4544   -7.4795    2.2550 H   0  0  0  0  0  0  0  0  0  0  0  0
    1.5471   -7.2259    0.5412 H   0  0  0  0  0  0  0  0  0  0  0  0
    0.5310   -5.8614    0.8284 H   0  0  0  0  0  0  0  0  0  0  0  0
    4.5293   -6.1503    2.4008 H   0  0  0  0  0  0  0  0  0  0  0  0
    3.9680   -6.9699    0.9546 H   0  0  0  0  0  0  0  0  0  0  0  0
    3.4920   -7.5620    2.5401 H   0  0  0  0  0  0  0  0  0  0  0  0
    3.2565   -4.7995    0.1332 H   0  0  0  0  0  0  0  0  0  0  0  0
    1.8478   -3.9932    0.7210 H   0  0  0  0  0  0  0  0  0  0  0  0
    4.6256   -3.7762    1.8158 H   0  0  0  0  0  0  0  0  0  0  0  0
    3.6543   -2.5619    1.0906 H   0  0  0  0  0  0  0  0  0  0  0  0
    4.0416   -3.2748    5.2240 H   0  0  0  0  0  0  0  0  0  0  0  0
    5.1963   -2.9365    3.9659 H   0  0  0  0  0  0  0  0  0  0  0  0
    4.4900   -4.4906    4.0708 H   0  0  0  0  0  0  0  0  0  0  0  0
    1.0111   -3.5282    2.8154 H   0  0  0  0  0  0  0  0  0  0  0  0
    0.2933   -3.9300    5.0838 H   0  0  0  0  0  0  0  0  0  0  0  0
    1.9048   -3.7443    5.6996 H   0  0  0  0  0  0  0  0  0  0  0  0
    0.1696   -1.6830    4.3259 H   0  0  0  0  0  0  0  0  0  0  0  0
    0.5750   -1.8115    6.0197 H   0  0  0  0  0  0  0  0  0  0  0  0
    2.9634   -1.4192    5.4659 H   0  0  0  0  0  0  0  0  0  0  0  0
    4.0649    0.3065    2.7362 H   0  0  0  0  0  0  0  0  0  0  0  0
    4.7869   -1.2102    2.3333 H   0  0  0  0  0  0  0  0  0  0  0  0
    4.7771   -0.7207    4.0093 H   0  0  0  0  0  0  0  0  0  0  0  0
    2.4991   -0.6504    1.3032 H   0  0  0  0  0  0  0  0  0  0  0  0
    1.3316   -1.7996    1.7531 H   0  0  0  0  0  0  0  0  0  0  0  0
    0.5177    0.4359    1.3702 H   0  0  0  0  0  0  0  0  0  0  0  0
   -0.0928   -0.2771    2.7894 H   0  0  0  0  0  0  0  0  0  0  0  0
    2.3041    1.6133    2.8531 H   0  0  0  0  0  0  0  0  0  0  0  0
    0.7055    2.1927    2.6390 H   0  0  0  0  0  0  0  0  0  0  0  0
   -0.7808    1.4895    5.9351 H   0  0  0  0  0  0  0  0  0  0  0  0
   -0.8083    0.1497    4.8145 H   0  0  0  0  0  0  0  0  0  0  0  0
   -1.1100    1.7738    4.2461 H   0  0  0  0  0  0  0  0  0  0  0  0
    0.9068    2.8758    6.2852 H   0  0  0  0  0  0  0  0  0  0  0  0
    3.2018    3.2204    6.4457 H   0  0  0  0  0  0  0  0  0  0  0  0
    3.9724    1.2132    4.5938 H   0  0  0  0  0  0  0  0  0  0  0  0
    3.9067    1.0187    6.3136 H   0  0  0  0  0  0  0  0  0  0  0  0
    1.7536    1.1942    7.4567 H   0  0  0  0  0  0  0  0  0  0  0  0
    2.2034   -0.4791    7.3683 H   0  0  0  0  0  0  0  0  0  0  0  0
    0.5634    0.0184    7.0250 H   0  0  0  0  0  0  0  0  0  0  0  0
    1.2809    4.8972    5.4008 H   0  0  0  0  0  0  0  0  0  0  0  0
   -0.2244    5.5648    3.7734 H   0  0  0  0  0  0  0  0  0  0  0  0
   -0.9809    4.1248    4.4468 H   0  0  0  0  0  0  0  0  0  0  0  0
   -0.1675    4.0664    2.8859 H   0  0  0  0  0  0  0  0  0  0  0  0
    2.7594   -5.6579    4.0511 H   0  0  0  0  0  0  0  0  0  0  0  0
  1  2  1  0
  1 35  1  0
  1 36  1  0
  1 37  1  0
  2  3  1  0
  2  4  1  0
  2 38  1  0
  3 39  1  0
  3 40  1  0
  3 41  1  0
  4 34  1  0
  4  5  1  0
  4 42  1  1
  5  6  1  0
  5 43  1  0
  5 44  1  0
  6  7  1  0
  6 45  1  0
  6 46  1  0
  7 34  1  0
  7  8  1  1
  7  9  1  0
  8 47  1  0
  8 48  1  0
  8 49  1  0
  9 10  1  0
  9 50  1  0
  9 51  1  0
 10 11  1  0
 10 52  1  0
 10 53  1  0
 11 17  1  0
 11 12  1  1
 11 13  1  0
 12 54  1  0
 12 55  1  0
 12 56  1  0
 13 14  1  0
 13 34  1  0
 13 57  1  6
 14 15  1  0
 14 58  1  0
 14 59  1  0
 15 16  1  0
 15 60  1  0
 15 61  1  0
 16 27  1  0
 16 17  1  0
 16 62  1  1
 17 18  1  6
 17 19  1  0
 18 63  1  0
 18 64  1  0
 18 65  1  0
 19 20  1  0
 19 66  1  0
 19 67  1  0
 20 21  1  0
 20 68  1  0
 20 69  1  0
 21 22  1  0
 21 70  1  0
 21 71  1  0
 22 27  1  0
 22 23  1  6
 22 24  1  0
 23 72  1  0
 23 73  1  0
 23 74  1  0
 24 32  1  0
 24 25  1  0
 24 75  1  1
 25 26  1  0
 25 29  1  0
 25 76  1  1
 26 27  1  0
 26 77  1  0
 26 78  1  0
 27 28  1  1
 28 79  1  0
 28 80  1  0
 28 81  1  0
 29 30  1  0
 30 31  2  0
 30 32  1  0
 32 33  1  0
 32 82  1  1
 33 83  1  0
 33 84  1  0
 33 85  1  0
 34 86  1  1
M  END
>  <i_m_ct_stereo_status>  (431) 
1

>  <s_m_source_file>  (431) 
/var/tmp/pbs.5076255.sched01/tmp9yj1qf5s/135tauqa2n_.sdf

>  <i_m_source_file_index>  (431) 
30

>  <i_lp_mmshare_version>  (431) 
48012

>  <i_f3d_flags>  (431) 
0

>  <s_epik_input>  (431) 
W0NIM11bQ0hdKFtDSDNdKVtDQEhdKFtDSDJdW0NIMl0xKVtDQEBIXShbQ0BAXTEyW0NIM10pW0NAQEhdM1tDQEBdKFtDSDNdKShbQ0gyXVtDSDJdMilbQ0BdNChbQ0gzXSlbQ0BIXShbQ0gyXVtDSDJdMylbQ0BdNShbQ0gzXSlbQ0BdKFtDSDNdKShbQ0gyXVtDSDJdW0NIMl00KVtDQEhdNltDQEBIXShbQ0gyXTUpT0MoPU8pW0NASF02W0NIM10=

>  <s_epik_cmdline>  (431) 
J2VwaWtfcHl0aG9uJywgJy1waHQnLCAnMi4wJywgJy1waCcsICc3LjAnLCAnLXRuJywgJzgnLCAnLW1hJywgJzIwMCcsICctaW1hZScsICc8aW5maWxlLm1hZT4nLCAnLW9tYWUnLCAnPG91dGZpbGUubWFlPic=

>  <r_lp_tautomer_probability>  (431) 
1

>  <r_epik_Ionization_Penalty>  (431) 
0

>  <r_epik_Ionization_Penalty_Charging>  (431) 
0

>  <r_epik_Ionization_Penalty_Neutral>  (431) 
0

>  <r_epik_State_Penalty>  (431) 
-0

>  <r_epik_Charging_Adjusted_Penalty>  (431) 
0

>  <i_epik_Tot_Q>  (431) 
0

>  <i_epik_Tot_abs_Q>  (431) 
0

>  <s_epik_Chemistry_Notes>  (431) 
This compound has an ester and may undergo hydrolysis at high or low pH.

>  <s_lp_Force_Field>  (431) 
OPLS3e

>  <r_lp_Energy>  (431) 
111.8

>  <b_lp_Chiralities_Consistent>  (431) 
1

>  <s_lp_Variant>  (431) 
102:0-1

>  <s_i_glide_gridfile>  (431) 
pfpi4k_grid

>  <i_i_glide_lignum>  (431) 
30

>  <i_i_glide_rotatable_bonds>  (431) 
1

>  <r_i_docking_score>  (431) 
-1.24606

>  <r_i_glide_ligand_efficiency>  (431) 
-0.0366488

>  <r_i_glide_ligand_efficiency_sa>  (431) 
-0.118728

>  <r_i_glide_ligand_efficiency_ln>  (431) 
-0.27529

>  <r_i_glide_gscore>  (431) 
-1.24606

>  <r_i_glide_lipo>  (431) 
-0.0838307

>  <r_i_glide_hbond>  (431) 
0

>  <r_i_glide_metal>  (431) 
-0

>  <r_i_glide_rewards>  (431) 
-0.21304

>  <r_i_glide_evdw>  (431) 
-21.7416

>  <r_i_glide_ecoul>  (431) 
1.0429

>  <r_i_glide_erotb>  (431) 
0

>  <r_i_glide_esite>  (431) 
-0.0185428

>  <r_i_glide_emodel>  (431) 
-20.4203

>  <r_i_glide_energy>  (431) 
-20.6987

>  <r_i_glide_einternal>  (431) 
2.08339

>  <r_i_glide_intrahb_reward>  (431) 
-0

>  <i_i_glide_confnum>  (431) 
2

>  <i_i_glide_posenum>  (431) 
1

>  <r_i_glide_eff_state_penalty>  (431) 
0

>  <ligand_id>  (431) 
102

>  <original_smiles>  (431) 
CC(C)C1CCC2(C)CCC3(C)C(CCC4C3(C)CCCC3(C)C5C(CC43C)OC(=O)C5C)C12

>  <smiles>  (431) 
[H]C([H])([H])C1([H])C(=O)OC2([H])C([H])([H])C3(C([H])([H])[H])C4([H])C([H])([H])C([H])([H])C5([H])C6([H])C([H])(C([H])(C([H])([H])[H])C([H])([H])[H])C([H])([H])C([H])([H])C6(C([H])([H])[H])C([H])([H])C([H])([H])C5(C([H])([H])[H])C4(C([H])([H])[H])C([H])([H])C([H])([H])C([H])([H])C3(C([H])([H])[H])C21[H]

$$$$
103:0:0
     RDKit          3D

 58 63  0  0  1  0  0  0  0  0999 V2000
    4.9923   -3.0207    5.0916 C   0  0  0  0  0  0  0  0  0  0  0  0
    4.0876   -2.8208    4.1072 C   0  0  0  0  0  0  0  0  0  0  0  0
    4.1390   -1.5687    3.3430 C   0  0  0  0  0  0  0  0  0  0  0  0
    4.7538   -0.6292    3.8555 O   0  0  0  0  0  0  0  0  0  0  0  0
    3.5879   -1.3392    1.8904 C   0  0  1  0  0  0  0  0  0  0  0  0
    2.6772   -2.3699    1.0527 C   0  0  0  0  0  0  0  0  0  0  0  0
    3.1467   -3.3986    0.0065 C   0  0  2  0  0  0  0  0  0  0  0  0
    2.9393   -4.8105    0.5221 C   0  0  0  0  0  0  0  0  0  0  0  0
    4.0732   -4.9543    1.5022 C   0  0  2  0  0  0  0  0  0  0  0  0
    3.5253   -4.9952    2.9865 C   0  0  0  0  0  0  0  0  0  0  0  0
    2.9868   -3.7949    3.8461 C   0  0  2  0  0  0  0  0  0  0  0  0
    1.4893   -3.2547    3.8931 C   0  0  0  0  0  0  0  0  0  0  0  0
    1.0864   -1.7706    4.3398 C   0  0  2  0  0  0  0  0  0  0  0  0
    0.5768   -0.7516    3.4696 O   0  0  0  0  0  0  0  0  0  0  0  0
    1.1914   -0.6953    2.1105 O   0  0  0  0  0  0  0  0  0  0  0  0
    2.5267   -0.1441    2.0503 C   0  0  1  0  0  0  0  0  0  0  0  0
    2.7230    1.1168    2.9599 C   0  0  0  0  0  0  0  0  0  0  0  0
    2.0745    1.2317    4.3788 C   0  0  0  0  0  0  0  0  0  0  0  0
    2.3276    0.1690    5.3716 N   0  0  0  0  0  0  0  0  0  0  0  0
    1.8628   -1.0925    5.4825 C   0  0  0  0  0  0  0  0  0  0  0  0
    2.0876   -1.7429    6.5014 O   0  0  0  0  0  0  0  0  0  0  0  0
    5.2249   -4.0532    0.8577 C   0  0  2  0  0  0  0  0  0  0  0  0
    6.2304   -3.2684    1.7237 C   0  0  0  0  0  0  0  0  0  0  0  0
    6.2436   -1.7145    1.5426 C   0  0  0  0  0  0  0  0  0  0  0  0
    4.9097   -1.0835    1.0312 C   0  0  1  0  0  0  0  0  0  0  0  0
    4.8825   -1.7233   -0.3455 C   0  0  0  0  0  0  0  0  0  0  0  0
    5.0821   -1.0691   -1.3752 O   0  0  0  0  0  0  0  0  0  0  0  0
    4.6169   -3.2392   -0.3352 C   0  0  2  0  0  0  0  0  0  0  0  0
    5.0024   -3.8675   -1.6966 C   0  0  0  0  0  0  0  0  0  0  0  0
    4.9728   -3.9141    5.6981 H   0  0  0  0  0  0  0  0  0  0  0  0
    5.7752   -2.3051    5.3087 H   0  0  0  0  0  0  0  0  0  0  0  0
    1.8393   -2.7829    1.5561 H   0  0  0  0  0  0  0  0  0  0  0  0
    2.2207   -1.7076    0.3394 H   0  0  0  0  0  0  0  0  0  0  0  0
    2.5496   -3.2866   -0.8983 H   0  0  0  0  0  0  0  0  0  0  0  0
    1.9476   -4.9839    0.9453 H   0  0  0  0  0  0  0  0  0  0  0  0
    3.0635   -5.5280   -0.2931 H   0  0  0  0  0  0  0  0  0  0  0  0
    4.4287   -5.9768    1.3674 H   0  0  0  0  0  0  0  0  0  0  0  0
    2.7538   -5.7628    3.0083 H   0  0  0  0  0  0  0  0  0  0  0  0
    4.3443   -5.4403    3.5568 H   0  0  0  0  0  0  0  0  0  0  0  0
    2.9738   -4.3089    4.8118 H   0  0  0  0  0  0  0  0  0  0  0  0
    0.8841   -3.6040    3.0600 H   0  0  0  0  0  0  0  0  0  0  0  0
    1.0329   -3.8618    4.6715 H   0  0  0  0  0  0  0  0  0  0  0  0
    0.1483   -1.9703    4.8603 H   0  0  0  0  0  0  0  0  0  0  0  0
    2.5448    0.3133    1.0533 H   0  0  0  0  0  0  0  0  0  0  0  0
    3.7726    1.3693    3.0173 H   0  0  0  0  0  0  0  0  0  0  0  0
    2.2984    1.9586    2.4084 H   0  0  0  0  0  0  0  0  0  0  0  0
    2.4639    2.1489    4.8233 H   0  0  0  0  0  0  0  0  0  0  0  0
    0.9999    1.4294    4.3033 H   0  0  0  0  0  0  0  0  0  0  0  0
    2.8630    0.4731    6.1677 H   0  0  0  0  0  0  0  0  0  0  0  0
    5.8698   -4.7926    0.3956 H   0  0  0  0  0  0  0  0  0  0  0  0
    6.1120   -3.5497    2.7605 H   0  0  0  0  0  0  0  0  0  0  0  0
    7.2418   -3.6155    1.4765 H   0  0  0  0  0  0  0  0  0  0  0  0
    6.6199   -1.2218    2.4379 H   0  0  0  0  0  0  0  0  0  0  0  0
    7.0274   -1.4789    0.8203 H   0  0  0  0  0  0  0  0  0  0  0  0
    5.0372   -0.0175    0.9071 H   0  0  0  0  0  0  0  0  0  0  0  0
    4.7203   -4.9122   -1.7497 H   0  0  0  0  0  0  0  0  0  0  0  0
    6.0764   -3.8200   -1.8578 H   0  0  0  0  0  0  0  0  0  0  0  0
    4.5211   -3.3599   -2.5270 H   0  0  0  0  0  0  0  0  0  0  0  0
  1  2  2  0
  1 30  1  0
  1 31  1  0
  2 11  1  0
  2  3  1  0
  3  4  2  0
  3  5  1  0
  5 16  1  0
  5 25  1  0
  5  6  1  6
  6  7  1  0
  6 32  1  0
  6 33  1  0
  7 28  1  0
  7  8  1  0
  7 34  1  6
  8  9  1  0
  8 35  1  0
  8 36  1  0
  9 10  1  0
  9 22  1  0
  9 37  1  6
 10 11  1  0
 10 38  1  0
 10 39  1  0
 11 12  1  0
 11 40  1  1
 12 13  1  0
 12 41  1  0
 12 42  1  0
 13 20  1  0
 13 14  1  0
 13 43  1  1
 14 15  1  0
 15 16  1  0
 16 17  1  0
 16 44  1  6
 17 18  1  0
 17 45  1  0
 17 46  1  0
 18 19  1  0
 18 47  1  0
 18 48  1  0
 19 20  1  0
 19 49  1  0
 20 21  2  0
 22 28  1  0
 22 23  1  0
 22 50  1  6
 23 24  1  0
 23 51  1  0
 23 52  1  0
 24 25  1  0
 24 53  1  0
 24 54  1  0
 25 26  1  0
 25 55  1  6
 26 27  2  0
 26 28  1  0
 28 29  1  6
 29 56  1  0
 29 57  1  0
 29 58  1  0
M  END
>  <i_m_ct_stereo_status>  (432) 
1

>  <s_m_source_file>  (432) 
/var/tmp/pbs.5076255.sched01/tmp9yj1qf5s/135tauqa2n_.sdf

>  <i_m_source_file_index>  (432) 
31

>  <i_lp_mmshare_version>  (432) 
48012

>  <i_f3d_flags>  (432) 
0

>  <s_epik_input>  (432) 
W0NAXTEyM1tDQEhdNE9PW0NASF0oQyg9TylbTkhdW0NIMl1bQ0gyXTQpW0NIMl1bQ0BIXShDKD1bQ0gyXSlDMT1PKVtDSDJdW0NAQEhdNVtDQEhdNltDQEBdKFtDSDNdKShbQ0BIXShbQ0gyXTIpW0NIMl01KUMoPU8pW0NIXTNbQ0gyXVtDSDJdNg==

>  <s_epik_cmdline>  (432) 
J2VwaWtfcHl0aG9uJywgJy1waHQnLCAnMi4wJywgJy1waCcsICc3LjAnLCAnLXRuJywgJzgnLCAnLW1hJywgJzIwMCcsICctaW1hZScsICc8aW5maWxlLm1hZT4nLCAnLW9tYWUnLCAnPG91dGZpbGUubWFlPic=

>  <r_lp_tautomer_probability>  (432) 
1

>  <r_epik_Ionization_Penalty>  (432) 
2.26955e-07

>  <r_epik_Ionization_Penalty_Charging>  (432) 
0

>  <r_epik_Ionization_Penalty_Neutral>  (432) 
2.26955e-07

>  <r_epik_State_Penalty>  (432) 
-0

>  <r_epik_Charging_Adjusted_Penalty>  (432) 
0

>  <i_epik_Tot_Q>  (432) 
0

>  <i_epik_Tot_abs_Q>  (432) 
0

>  <s_lp_Force_Field>  (432) 
OPLS3e

>  <r_lp_Energy>  (432) 
172.456

>  <b_lp_Chiralities_Consistent>  (432) 
1

>  <s_lp_Variant>  (432) 
103:0-1

>  <s_i_glide_gridfile>  (432) 
pfpi4k_grid

>  <i_i_glide_lignum>  (432) 
31

>  <i_i_glide_rotatable_bonds>  (432) 
0

>  <r_i_docking_score>  (432) 
-2.57446

>  <r_i_glide_ligand_efficiency>  (432) 
-0.0887745

>  <r_i_glide_ligand_efficiency_sa>  (432) 
-0.272743

>  <r_i_glide_ligand_efficiency_ln>  (432) 
-0.589486

>  <r_i_glide_gscore>  (432) 
-2.57446

>  <r_i_glide_lipo>  (432) 
-0.445575

>  <r_i_glide_hbond>  (432) 
0

>  <r_i_glide_metal>  (432) 
-0

>  <r_i_glide_rewards>  (432) 
-0.689185

>  <r_i_glide_evdw>  (432) 
-25.0672

>  <r_i_glide_ecoul>  (432) 
-1.12298

>  <r_i_glide_erotb>  (432) 
0

>  <r_i_glide_esite>  (432) 
-0.01789

>  <r_i_glide_emodel>  (432) 
-30.3963

>  <r_i_glide_energy>  (432) 
-26.1902

>  <r_i_glide_einternal>  (432) 
0

>  <r_i_glide_intrahb_reward>  (432) 
-0

>  <i_i_glide_confnum>  (432) 
1

>  <i_i_glide_posenum>  (432) 
23

>  <r_i_glide_eff_state_penalty>  (432) 
0

>  <ligand_id>  (432) 
103

>  <original_smiles>  (432) 
C=C1C(=O)C23CC4CC(CC1CC1OOC2CCNC1=O)C1CCC3C(=O)C41C

>  <smiles>  (432) 
[H]C([H])=C1C(=O)C23C([H])([H])C4([H])C([H])([H])C([H])(C([H])([H])C1([H])C([H])([H])C1([H])OOC2([H])C([H])([H])C([H])([H])N([H])C1=O)C1([H])C([H])([H])C([H])([H])C3([H])C(=O)C41C([H])([H])[H]

$$$$
103:0:1
     RDKit          3D

 58 63  0  0  1  0  0  0  0  0999 V2000
    1.8214   -5.0545    3.4489 C   0  0  0  0  0  0  0  0  0  0  0  0
    3.1326   -4.8699    3.1696 C   0  0  0  0  0  0  0  0  0  0  0  0
    3.7337   -5.6151    2.0608 C   0  0  0  0  0  0  0  0  0  0  0  0
    3.1145   -6.6093    1.6590 O   0  0  0  0  0  0  0  0  0  0  0  0
    5.0145   -5.2214    1.2394 C   0  0  1  0  0  0  0  0  0  0  0  0
    6.0746   -4.0501    1.5673 C   0  0  0  0  0  0  0  0  0  0  0  0
    6.0179   -2.5869    1.0555 C   0  0  2  0  0  0  0  0  0  0  0  0
    5.6518   -1.6011    2.1532 C   0  0  0  0  0  0  0  0  0  0  0  0
    4.1690   -1.7993    2.2849 C   0  0  2  0  0  0  0  0  0  0  0  0
    3.8094   -2.5066    3.6489 C   0  0  0  0  0  0  0  0  0  0  0  0
    3.9997   -4.0204    4.0356 C   0  0  2  0  0  0  0  0  0  0  0  0
    5.3031   -4.6905    4.6661 C   0  0  0  0  0  0  0  0  0  0  0  0
    5.6557   -6.2466    4.5548 C   0  0  2  0  0  0  0  0  0  0  0  0
    6.7260   -6.8026    3.7818 O   0  0  0  0  0  0  0  0  0  0  0  0
    6.9707   -6.1542    2.4434 O   0  0  0  0  0  0  0  0  0  0  0  0
    5.9951   -6.4691    1.4187 C   0  0  1  0  0  0  0  0  0  0  0  0
    5.5651   -7.9775    1.4093 C   0  0  0  0  0  0  0  0  0  0  0  0
    5.3553   -8.8019    2.7197 C   0  0  0  0  0  0  0  0  0  0  0  0
    4.4229   -8.2856    3.7373 N   0  0  0  0  0  0  0  0  0  0  0  0
    4.5194   -7.2797    4.6292 C   0  0  0  0  0  0  0  0  0  0  0  0
    3.6576   -7.1397    5.4905 O   0  0  0  0  0  0  0  0  0  0  0  0
    3.7332   -2.1790    0.7917 C   0  0  2  0  0  0  0  0  0  0  0  0
    2.5802   -3.1658    0.5155 C   0  0  0  0  0  0  0  0  0  0  0  0
    2.9269   -4.4304   -0.3099 C   0  0  0  0  0  0  0  0  0  0  0  0
    4.4168   -4.8926   -0.1992 C   0  0  1  0  0  0  0  0  0  0  0  0
    5.0640   -3.6924   -0.8778 C   0  0  0  0  0  0  0  0  0  0  0  0
    5.6075   -3.7661   -1.9720 O   0  0  0  0  0  0  0  0  0  0  0  0
    5.0122   -2.4011   -0.0606 C   0  0  2  0  0  0  0  0  0  0  0  0
    5.3139   -1.1789   -0.9478 C   0  0  0  0  0  0  0  0  0  0  0  0
    1.3440   -4.5464    4.2776 H   0  0  0  0  0  0  0  0  0  0  0  0
    1.1874   -5.7006    2.8550 H   0  0  0  0  0  0  0  0  0  0  0  0
    6.3282   -3.9917    2.5998 H   0  0  0  0  0  0  0  0  0  0  0  0
    7.0156   -4.3468    1.0842 H   0  0  0  0  0  0  0  0  0  0  0  0
    7.0111   -2.3233    0.7087 H   0  0  0  0  0  0  0  0  0  0  0  0
    6.2086   -1.7469    3.0827 H   0  0  0  0  0  0  0  0  0  0  0  0
    5.8731   -0.5900    1.8196 H   0  0  0  0  0  0  0  0  0  0  0  0
    3.7635   -0.7934    2.4345 H   0  0  0  0  0  0  0  0  0  0  0  0
    4.2960   -1.9274    4.4330 H   0  0  0  0  0  0  0  0  0  0  0  0
    2.7480   -2.2879    3.7911 H   0  0  0  0  0  0  0  0  0  0  0  0
    3.3952   -4.0152    4.9441 H   0  0  0  0  0  0  0  0  0  0  0  0
    6.1828   -4.0672    4.5725 H   0  0  0  0  0  0  0  0  0  0  0  0
    5.1397   -4.5632    5.7365 H   0  0  0  0  0  0  0  0  0  0  0  0
    6.1037   -6.4122    5.5351 H   0  0  0  0  0  0  0  0  0  0  0  0
    6.5973   -6.4090    0.5096 H   0  0  0  0  0  0  0  0  0  0  0  0
    4.7164   -8.1178    0.7337 H   0  0  0  0  0  0  0  0  0  0  0  0
    6.3663   -8.5113    0.8970 H   0  0  0  0  0  0  0  0  0  0  0  0
    4.9576   -9.7698    2.4152 H   0  0  0  0  0  0  0  0  0  0  0  0
    6.3134   -9.0550    3.1788 H   0  0  0  0  0  0  0  0  0  0  0  0
    3.6126   -8.8699    3.8792 H   0  0  0  0  0  0  0  0  0  0  0  0
    3.3034   -1.2437    0.4305 H   0  0  0  0  0  0  0  0  0  0  0  0
    2.0555   -3.3979    1.4329 H   0  0  0  0  0  0  0  0  0  0  0  0
    1.8172   -2.6591   -0.0846 H   0  0  0  0  0  0  0  0  0  0  0  0
    2.2124   -5.2328   -0.1206 H   0  0  0  0  0  0  0  0  0  0  0  0
    2.7202   -4.2010   -1.3569 H   0  0  0  0  0  0  0  0  0  0  0  0
    4.5789   -5.7527   -0.8319 H   0  0  0  0  0  0  0  0  0  0  0  0
    5.4213   -0.2668   -0.3647 H   0  0  0  0  0  0  0  0  0  0  0  0
    4.5222   -1.0104   -1.6721 H   0  0  0  0  0  0  0  0  0  0  0  0
    6.2211   -1.3253   -1.5106 H   0  0  0  0  0  0  0  0  0  0  0  0
  1  2  2  0
  1 30  1  0
  1 31  1  0
  2 11  1  0
  2  3  1  0
  3  4  2  0
  3  5  1  0
  5 16  1  0
  5 25  1  0
  5  6  1  1
  6  7  1  0
  6 32  1  0
  6 33  1  0
  7 28  1  0
  7  8  1  0
  7 34  1  6
  8  9  1  0
  8 35  1  0
  8 36  1  0
  9 10  1  0
  9 22  1  0
  9 37  1  1
 10 11  1  0
 10 38  1  0
 10 39  1  0
 11 12  1  0
 11 40  1  1
 12 13  1  0
 12 41  1  0
 12 42  1  0
 13 20  1  0
 13 14  1  0
 13 43  1  1
 14 15  1  0
 15 16  1  0
 16 17  1  0
 16 44  1  6
 17 18  1  0
 17 45  1  0
 17 46  1  0
 18 19  1  0
 18 47  1  0
 18 48  1  0
 19 20  1  0
 19 49  1  0
 20 21  2  0
 22 28  1  0
 22 23  1  0
 22 50  1  6
 23 24  1  0
 23 51  1  0
 23 52  1  0
 24 25  1  0
 24 53  1  0
 24 54  1  0
 25 26  1  0
 25 55  1  6
 26 27  2  0
 26 28  1  0
 28 29  1  6
 29 56  1  0
 29 57  1  0
 29 58  1  0
M  END
>  <i_m_ct_stereo_status>  (433) 
1

>  <s_m_source_file>  (433) 
/var/tmp/pbs.5076255.sched01/tmp9yj1qf5s/135tauqa2n_.sdf

>  <i_m_source_file_index>  (433) 
31

>  <i_lp_mmshare_version>  (433) 
48012

>  <i_f3d_flags>  (433) 
0

>  <s_epik_input>  (433) 
W0NAXTEyM1tDQEhdNE9PW0NASF0oQyg9TylbTkhdW0NIMl1bQ0gyXTQpW0NIMl1bQ0BIXShDKD1bQ0gyXSlDMT1PKVtDSDJdW0NAQEhdNVtDQEhdNltDQEBdKFtDSDNdKShbQ0BIXShbQ0gyXTIpW0NIMl01KUMoPU8pW0NIXTNbQ0gyXVtDSDJdNg==

>  <s_epik_cmdline>  (433) 
J2VwaWtfcHl0aG9uJywgJy1waHQnLCAnMi4wJywgJy1waCcsICc3LjAnLCAnLXRuJywgJzgnLCAnLW1hJywgJzIwMCcsICctaW1hZScsICc8aW5maWxlLm1hZT4nLCAnLW9tYWUnLCAnPG91dGZpbGUubWFlPic=

>  <r_lp_tautomer_probability>  (433) 
1

>  <r_epik_Ionization_Penalty>  (433) 
2.26955e-07

>  <r_epik_Ionization_Penalty_Charging>  (433) 
0

>  <r_epik_Ionization_Penalty_Neutral>  (433) 
2.26955e-07

>  <r_epik_State_Penalty>  (433) 
-0

>  <r_epik_Charging_Adjusted_Penalty>  (433) 
0

>  <i_epik_Tot_Q>  (433) 
0

>  <i_epik_Tot_abs_Q>  (433) 
0

>  <s_lp_Force_Field>  (433) 
OPLS3e

>  <r_lp_Energy>  (433) 
172.456

>  <b_lp_Chiralities_Consistent>  (433) 
1

>  <s_lp_Variant>  (433) 
103:0-1

>  <s_i_glide_gridfile>  (433) 
pfpi4k_grid

>  <i_i_glide_lignum>  (433) 
31

>  <i_i_glide_rotatable_bonds>  (433) 
0

>  <r_i_docking_score>  (433) 
-2.45918

>  <r_i_glide_ligand_efficiency>  (433) 
-0.0847993

>  <r_i_glide_ligand_efficiency_sa>  (433) 
-0.26053

>  <r_i_glide_ligand_efficiency_ln>  (433) 
-0.56309

>  <r_i_glide_gscore>  (433) 
-2.45918

>  <r_i_glide_lipo>  (433) 
-0.52481

>  <r_i_glide_hbond>  (433) 
0

>  <r_i_glide_metal>  (433) 
-0

>  <r_i_glide_rewards>  (433) 
-0.758547

>  <r_i_glide_evdw>  (433) 
-22.5349

>  <r_i_glide_ecoul>  (433) 
-0.327187

>  <r_i_glide_erotb>  (433) 
0

>  <r_i_glide_esite>  (433) 
0

>  <r_i_glide_emodel>  (433) 
-26.8372

>  <r_i_glide_energy>  (433) 
-22.8621

>  <r_i_glide_einternal>  (433) 
0

>  <r_i_glide_intrahb_reward>  (433) 
-0

>  <i_i_glide_confnum>  (433) 
2

>  <i_i_glide_posenum>  (433) 
15

>  <r_i_glide_eff_state_penalty>  (433) 
0

>  <ligand_id>  (433) 
103

>  <original_smiles>  (433) 
C=C1C(=O)C23CC4CC(CC1CC1OOC2CCNC1=O)C1CCC3C(=O)C41C

>  <smiles>  (433) 
[H]C([H])=C1C(=O)C23C([H])([H])C4([H])C([H])([H])C([H])(C([H])([H])C1([H])C([H])([H])C1([H])OOC2([H])C([H])([H])C([H])([H])N([H])C1=O)C1([H])C([H])([H])C([H])([H])C3([H])C(=O)C41C([H])([H])[H]

$$$$
103:0:2
     RDKit          3D

 58 63  0  0  1  0  0  0  0  0999 V2000
    4.1665   -6.5031    3.7287 C   0  0  0  0  0  0  0  0  0  0  0  0
    3.7340   -5.2785    3.3488 C   0  0  0  0  0  0  0  0  0  0  0  0
    4.6059   -4.1231    3.5397 C   0  0  0  0  0  0  0  0  0  0  0  0
    5.5227   -4.2581    4.3570 O   0  0  0  0  0  0  0  0  0  0  0  0
    4.5730   -2.7642    2.7521 C   0  0  1  0  0  0  0  0  0  0  0  0
    3.4398   -2.2447    1.7272 C   0  0  0  0  0  0  0  0  0  0  0  0
    3.4573   -2.4391    0.1819 C   0  0  2  0  0  0  0  0  0  0  0  0
    2.4303   -3.4366   -0.2700 C   0  0  0  0  0  0  0  0  0  0  0  0
    3.0331   -4.7547    0.1256 C   0  0  2  0  0  0  0  0  0  0  0  0
    2.2832   -5.4428    1.3302 C   0  0  0  0  0  0  0  0  0  0  0  0
    2.3463   -5.0595    2.8531 C   0  0  2  0  0  0  0  0  0  0  0  0
    1.4502   -3.9801    3.6110 C   0  0  0  0  0  0  0  0  0  0  0  0
    1.8801   -3.2427    4.9634 C   0  0  2  0  0  0  0  0  0  0  0  0
    2.1992   -1.8526    5.0837 O   0  0  0  0  0  0  0  0  0  0  0  0
    2.9936   -1.2630    3.9448 O   0  0  0  0  0  0  0  0  0  0  0  0
    4.3854   -1.6544    3.8962 C   0  0  1  0  0  0  0  0  0  0  0  0
    5.0680   -1.6583    5.3122 C   0  0  0  0  0  0  0  0  0  0  0  0
    4.3458   -2.1558    6.6012 C   0  0  0  0  0  0  0  0  0  0  0  0
    3.7686   -3.5109    6.6087 N   0  0  0  0  0  0  0  0  0  0  0  0
    2.6654   -4.0248    6.0289 C   0  0  0  0  0  0  0  0  0  0  0  0
    2.2958   -5.1589    6.3175 O   0  0  0  0  0  0  0  0  0  0  0  0
    4.5910   -4.4820   -0.1017 C   0  0  2  0  0  0  0  0  0  0  0  0
    5.6865   -5.1764    0.7564 C   0  0  0  0  0  0  0  0  0  0  0  0
    6.5845   -4.2007    1.5812 C   0  0  0  0  0  0  0  0  0  0  0  0
    5.9290   -2.8148    1.9237 C   0  0  1  0  0  0  0  0  0  0  0  0
    5.8357   -2.2482    0.5108 C   0  0  0  0  0  0  0  0  0  0  0  0
    6.5274   -1.3256    0.1178 O   0  0  0  0  0  0  0  0  0  0  0  0
    4.7787   -2.9465   -0.3453 C   0  0  2  0  0  0  0  0  0  0  0  0
    4.9717   -2.6120   -1.8456 C   0  0  0  0  0  0  0  0  0  0  0  0
    3.5366   -7.3779    3.6324 H   0  0  0  0  0  0  0  0  0  0  0  0
    5.1615   -6.6706    4.1265 H   0  0  0  0  0  0  0  0  0  0  0  0
    2.4247   -2.3953    2.0465 H   0  0  0  0  0  0  0  0  0  0  0  0
    3.5176   -1.1541    1.7355 H   0  0  0  0  0  0  0  0  0  0  0  0
    3.1931   -1.4837   -0.2703 H   0  0  0  0  0  0  0  0  0  0  0  0
    1.4781   -3.1819    0.1577 H   0  0  0  0  0  0  0  0  0  0  0  0
    2.2857   -3.3771   -1.3455 H   0  0  0  0  0  0  0  0  0  0  0  0
    2.7515   -5.4137   -0.6930 H   0  0  0  0  0  0  0  0  0  0  0  0
    1.2299   -5.4742    1.0688 H   0  0  0  0  0  0  0  0  0  0  0  0
    2.5809   -6.4937    1.2697 H   0  0  0  0  0  0  0  0  0  0  0  0
    1.8699   -5.9526    3.2567 H   0  0  0  0  0  0  0  0  0  0  0  0
    0.9289   -3.3117    2.9351 H   0  0  0  0  0  0  0  0  0  0  0  0
    0.5943   -4.5740    3.9340 H   0  0  0  0  0  0  0  0  0  0  0  0
    0.9150   -3.1900    5.4706 H   0  0  0  0  0  0  0  0  0  0  0  0
    4.8562   -0.7814    3.4350 H   0  0  0  0  0  0  0  0  0  0  0  0
    6.0496   -2.1326    5.2747 H   0  0  0  0  0  0  0  0  0  0  0  0
    5.3142   -0.6179    5.5262 H   0  0  0  0  0  0  0  0  0  0  0  0
    5.0984   -2.1551    7.3907 H   0  0  0  0  0  0  0  0  0  0  0  0
    3.6129   -1.4256    6.9437 H   0  0  0  0  0  0  0  0  0  0  0  0
    4.2203   -4.1487    7.2459 H   0  0  0  0  0  0  0  0  0  0  0  0
    4.7660   -4.9416   -1.0770 H   0  0  0  0  0  0  0  0  0  0  0  0
    5.2367   -5.9352    1.3927 H   0  0  0  0  0  0  0  0  0  0  0  0
    6.3448   -5.7464    0.0922 H   0  0  0  0  0  0  0  0  0  0  0  0
    6.9984   -4.7112    2.4502 H   0  0  0  0  0  0  0  0  0  0  0  0
    7.4780   -4.0130    0.9835 H   0  0  0  0  0  0  0  0  0  0  0  0
    6.6191   -2.1782    2.4492 H   0  0  0  0  0  0  0  0  0  0  0  0
    4.1512   -2.9825   -2.4618 H   0  0  0  0  0  0  0  0  0  0  0  0
    5.8844   -3.0626   -2.2238 H   0  0  0  0  0  0  0  0  0  0  0  0
    5.0351   -1.5429   -2.0142 H   0  0  0  0  0  0  0  0  0  0  0  0
  1  2  2  0
  1 30  1  0
  1 31  1  0
  2 11  1  0
  2  3  1  0
  3  4  2  0
  3  5  1  0
  5 16  1  0
  5 25  1  0
  5  6  1  6
  6  7  1  0
  6 32  1  0
  6 33  1  0
  7 28  1  0
  7  8  1  0
  7 34  1  6
  8  9  1  0
  8 35  1  0
  8 36  1  0
  9 10  1  0
  9 22  1  0
  9 37  1  6
 10 11  1  0
 10 38  1  0
 10 39  1  0
 11 12  1  0
 11 40  1  1
 12 13  1  0
 12 41  1  0
 12 42  1  0
 13 20  1  0
 13 14  1  0
 13 43  1  1
 14 15  1  0
 15 16  1  0
 16 17  1  0
 16 44  1  6
 17 18  1  0
 17 45  1  0
 17 46  1  0
 18 19  1  0
 18 47  1  0
 18 48  1  0
 19 20  1  0
 19 49  1  0
 20 21  2  0
 22 28  1  0
 22 23  1  0
 22 50  1  6
 23 24  1  0
 23 51  1  0
 23 52  1  0
 24 25  1  0
 24 53  1  0
 24 54  1  0
 25 26  1  0
 25 55  1  1
 26 27  2  0
 26 28  1  0
 28 29  1  6
 29 56  1  0
 29 57  1  0
 29 58  1  0
M  END
>  <i_m_ct_stereo_status>  (434) 
1

>  <s_m_source_file>  (434) 
/var/tmp/pbs.5076255.sched01/tmp9yj1qf5s/135tauqa2n_.sdf

>  <i_m_source_file_index>  (434) 
31

>  <i_lp_mmshare_version>  (434) 
48012

>  <i_f3d_flags>  (434) 
0

>  <s_epik_input>  (434) 
W0NAXTEyM1tDQEhdNE9PW0NASF0oQyg9TylbTkhdW0NIMl1bQ0gyXTQpW0NIMl1bQ0BIXShDKD1bQ0gyXSlDMT1PKVtDSDJdW0NAQEhdNVtDQEhdNltDQEBdKFtDSDNdKShbQ0BIXShbQ0gyXTIpW0NIMl01KUMoPU8pW0NIXTNbQ0gyXVtDSDJdNg==

>  <s_epik_cmdline>  (434) 
J2VwaWtfcHl0aG9uJywgJy1waHQnLCAnMi4wJywgJy1waCcsICc3LjAnLCAnLXRuJywgJzgnLCAnLW1hJywgJzIwMCcsICctaW1hZScsICc8aW5maWxlLm1hZT4nLCAnLW9tYWUnLCAnPG91dGZpbGUubWFlPic=

>  <r_lp_tautomer_probability>  (434) 
1

>  <r_epik_Ionization_Penalty>  (434) 
2.26955e-07

>  <r_epik_Ionization_Penalty_Charging>  (434) 
0

>  <r_epik_Ionization_Penalty_Neutral>  (434) 
2.26955e-07

>  <r_epik_State_Penalty>  (434) 
-0

>  <r_epik_Charging_Adjusted_Penalty>  (434) 
0

>  <i_epik_Tot_Q>  (434) 
0

>  <i_epik_Tot_abs_Q>  (434) 
0

>  <s_lp_Force_Field>  (434) 
OPLS3e

>  <r_lp_Energy>  (434) 
172.456

>  <b_lp_Chiralities_Consistent>  (434) 
1

>  <s_lp_Variant>  (434) 
103:0-1

>  <s_i_glide_gridfile>  (434) 
pfpi4k_grid

>  <i_i_glide_lignum>  (434) 
31

>  <i_i_glide_rotatable_bonds>  (434) 
0

>  <r_i_docking_score>  (434) 
-2.15643

>  <r_i_glide_ligand_efficiency>  (434) 
-0.0743596

>  <r_i_glide_ligand_efficiency_sa>  (434) 
-0.228456

>  <r_i_glide_ligand_efficiency_ln>  (434) 
-0.493767

>  <r_i_glide_gscore>  (434) 
-2.15643

>  <r_i_glide_lipo>  (434) 
-0.327201

>  <r_i_glide_hbond>  (434) 
-0.0329286

>  <r_i_glide_metal>  (434) 
-0

>  <r_i_glide_rewards>  (434) 
-0.782484

>  <r_i_glide_evdw>  (434) 
-16.8999

>  <r_i_glide_ecoul>  (434) 
-1.12545

>  <r_i_glide_erotb>  (434) 
0

>  <r_i_glide_esite>  (434) 
0

>  <r_i_glide_emodel>  (434) 
-21.4633

>  <r_i_glide_energy>  (434) 
-18.0254

>  <r_i_glide_einternal>  (434) 
0

>  <r_i_glide_intrahb_reward>  (434) 
-0

>  <i_i_glide_confnum>  (434) 
2

>  <i_i_glide_posenum>  (434) 
8

>  <r_i_glide_eff_state_penalty>  (434) 
0

>  <ligand_id>  (434) 
103

>  <original_smiles>  (434) 
C=C1C(=O)C23CC4CC(CC1CC1OOC2CCNC1=O)C1CCC3C(=O)C41C

>  <smiles>  (434) 
[H]C([H])=C1C(=O)C23C([H])([H])C4([H])C([H])([H])C([H])(C([H])([H])C1([H])C([H])([H])C1([H])OOC2([H])C([H])([H])C([H])([H])N([H])C1=O)C1([H])C([H])([H])C([H])([H])C3([H])C(=O)C41C([H])([H])[H]

$$$$
104:0:0
     RDKit          3D

 49 52  0  0  1  0  0  0  0  0999 V2000
    1.0154    0.1594    3.2253 C   0  0  0  0  0  0  0  0  0  0  0  0
    2.4198   -0.4063    2.9260 C   0  0  2  0  0  0  0  0  0  0  0  0
    3.0502    0.4629    1.8166 C   0  0  0  0  0  0  0  0  0  0  0  0
    4.2733   -0.1547    1.1378 C   0  0  0  0  0  0  0  0  0  0  0  0
    3.9194   -1.5160    0.5252 C   0  0  2  0  0  0  0  0  0  0  0  0
    3.4839   -2.4828    1.6606 C   0  0  2  0  0  0  0  0  0  0  0  0
    3.0536   -3.8367    1.0482 C   0  0  0  0  0  0  0  0  0  0  0  0
    4.1034   -4.4462    0.1087 C   0  0  0  0  0  0  0  0  0  0  0  0
    4.5173   -3.4659   -1.0060 C   0  0  1  0  0  0  0  0  0  0  0  0
    3.3820   -3.2947   -2.0510 C   0  0  0  0  0  0  0  0  0  0  0  0
    3.6736   -2.2290   -3.1019 C   0  0  0  0  0  0  0  0  0  0  0  0
    3.4945   -2.4204   -4.3024 O   0  0  0  0  0  0  0  0  0  0  0  0
    4.2143   -0.9168   -2.5701 C   0  0  0  0  0  0  0  0  0  0  0  0
    5.3764   -1.1975   -1.6065 C   0  0  0  0  0  0  0  0  0  0  0  0
    5.0296   -2.1214   -0.4099 C   0  0  1  0  0  0  0  0  0  0  0  0
    6.3627   -2.3483    0.3534 C   0  0  0  0  0  0  0  0  0  0  0  0
    2.3330   -1.9132    2.5559 C   0  0  1  0  0  0  0  0  0  0  0  0
    2.3262   -2.6242    3.9311 C   0  0  0  0  0  0  0  0  0  0  0  0
    3.2201   -1.7960    4.8661 C   0  0  0  0  0  0  0  0  0  0  0  0
    3.2136   -0.4166    4.2323 C   0  0  0  0  0  0  0  0  0  0  0  0
    3.7422    0.5714    4.7418 O   0  0  0  0  0  0  0  0  0  0  0  0
    0.3556    0.0380    2.3659 H   0  0  0  0  0  0  0  0  0  0  0  0
    1.0551    1.2249    3.4509 H   0  0  0  0  0  0  0  0  0  0  0  0
    0.5444   -0.3369    4.0725 H   0  0  0  0  0  0  0  0  0  0  0  0
    2.3024    0.6767    1.0548 H   0  0  0  0  0  0  0  0  0  0  0  0
    3.3403    1.4303    2.2199 H   0  0  0  0  0  0  0  0  0  0  0  0
    4.5931    0.5403    0.3688 H   0  0  0  0  0  0  0  0  0  0  0  0
    5.0994   -0.2293    1.8442 H   0  0  0  0  0  0  0  0  0  0  0  0
    3.0344   -1.3422   -0.0918 H   0  0  0  0  0  0  0  0  0  0  0  0
    4.3465   -2.6501    2.3095 H   0  0  0  0  0  0  0  0  0  0  0  0
    2.8262   -4.5552    1.8354 H   0  0  0  0  0  0  0  0  0  0  0  0
    2.1267   -3.6939    0.4939 H   0  0  0  0  0  0  0  0  0  0  0  0
    4.9726   -4.7527    0.6894 H   0  0  0  0  0  0  0  0  0  0  0  0
    3.7038   -5.3634   -0.3249 H   0  0  0  0  0  0  0  0  0  0  0  0
    5.3444   -3.9359   -1.5380 H   0  0  0  0  0  0  0  0  0  0  0  0
    3.2424   -4.2318   -2.5766 H   0  0  0  0  0  0  0  0  0  0  0  0
    2.4344   -3.0460   -1.5785 H   0  0  0  0  0  0  0  0  0  0  0  0
    4.5462   -0.2953   -3.4022 H   0  0  0  0  0  0  0  0  0  0  0  0
    3.4068   -0.3862   -2.0689 H   0  0  0  0  0  0  0  0  0  0  0  0
    6.1756   -1.6717   -2.1791 H   0  0  0  0  0  0  0  0  0  0  0  0
    5.7987   -0.2580   -1.2527 H   0  0  0  0  0  0  0  0  0  0  0  0
    7.1049   -2.8278   -0.2873 H   0  0  0  0  0  0  0  0  0  0  0  0
    6.2490   -2.9842    1.2307 H   0  0  0  0  0  0  0  0  0  0  0  0
    6.7959   -1.4067    0.6941 H   0  0  0  0  0  0  0  0  0  0  0  0
    1.3882   -2.0872    2.0390 H   0  0  0  0  0  0  0  0  0  0  0  0
    1.3118   -2.6406    4.3303 H   0  0  0  0  0  0  0  0  0  0  0  0
    2.6657   -3.6588    3.8859 H   0  0  0  0  0  0  0  0  0  0  0  0
    2.8404   -1.7688    5.8846 H   0  0  0  0  0  0  0  0  0  0  0  0
    4.2420   -2.1687    4.8929 H   0  0  0  0  0  0  0  0  0  0  0  0
  2  1  1  1
  1 22  1  0
  1 23  1  0
  1 24  1  0
  2 17  1  0
  2 20  1  0
  2  3  1  0
  3  4  1  0
  3 25  1  0
  3 26  1  0
  4  5  1  0
  4 27  1  0
  4 28  1  0
  5 15  1  0
  5  6  1  0
  5 29  1  6
  6  7  1  0
  6 17  1  0
  6 30  1  1
  7  8  1  0
  7 31  1  0
  7 32  1  0
  8  9  1  0
  8 33  1  0
  8 34  1  0
  9 15  1  0
  9 10  1  0
  9 35  1  6
 10 11  1  0
 10 36  1  0
 10 37  1  0
 11 12  2  0
 11 13  1  0
 13 14  1  0
 13 38  1  0
 13 39  1  0
 14 15  1  0
 14 40  1  0
 14 41  1  0
 15 16  1  1
 16 42  1  0
 16 43  1  0
 16 44  1  0
 17 18  1  0
 17 45  1  6
 18 19  1  0
 18 46  1  0
 18 47  1  0
 19 20  1  0
 19 48  1  0
 19 49  1  0
 20 21  2  0
M  END
>  <i_m_ct_stereo_status>  (435) 
1

>  <s_m_source_file>  (435) 
/var/tmp/pbs.5076255.sched01/tmp9yj1qf5s/135tauqa2n_.sdf

>  <i_m_source_file_index>  (435) 
32

>  <i_lp_mmshare_version>  (435) 
48012

>  <i_f3d_flags>  (435) 
0

>  <s_epik_input>  (435) 
Tz1DMVtDSDJdW0NIMl1bQ0BASF0oW0NAQF0xMltDSDNdKVtDQEBIXTNbQ0BASF0oW0NIMl1bQ0gyXTIpW0NAQF00KFtDSDNdKVtDQEBIXShbQ0gyXVtDSDJdMylbQ0gyXUMoPU8pW0NIMl1bQ0gyXTQ=

>  <s_epik_cmdline>  (435) 
J2VwaWtfcHl0aG9uJywgJy1waHQnLCAnMi4wJywgJy1waCcsICc3LjAnLCAnLXRuJywgJzgnLCAnLW1hJywgJzIwMCcsICctaW1hZScsICc8aW5maWxlLm1hZT4nLCAnLW9tYWUnLCAnPG91dGZpbGUubWFlPic=

>  <r_lp_tautomer_probability>  (435) 
1

>  <r_epik_Ionization_Penalty>  (435) 
1.47608e-13

>  <r_epik_Ionization_Penalty_Charging>  (435) 
0

>  <r_epik_Ionization_Penalty_Neutral>  (435) 
1.47608e-13

>  <r_epik_State_Penalty>  (435) 
-0

>  <r_epik_Charging_Adjusted_Penalty>  (435) 
0

>  <i_epik_Tot_Q>  (435) 
0

>  <i_epik_Tot_abs_Q>  (435) 
0

>  <s_lp_Force_Field>  (435) 
OPLS3e

>  <r_lp_Energy>  (435) 
22.9296

>  <b_lp_Chiralities_Consistent>  (435) 
1

>  <s_lp_Variant>  (435) 
104:0-1

>  <s_i_glide_gridfile>  (435) 
pfpi4k_grid

>  <i_i_glide_lignum>  (435) 
32

>  <i_i_glide_rotatable_bonds>  (435) 
0

>  <r_i_docking_score>  (435) 
-3.90809

>  <r_i_glide_ligand_efficiency>  (435) 
-0.1861

>  <r_i_glide_ligand_efficiency_sa>  (435) 
-0.513434

>  <r_i_glide_ligand_efficiency_ln>  (435) 
-0.966267

>  <r_i_glide_gscore>  (435) 
-3.90809

>  <r_i_glide_lipo>  (435) 
-0.286478

>  <r_i_glide_hbond>  (435) 
-0.32

>  <r_i_glide_metal>  (435) 
-0

>  <r_i_glide_rewards>  (435) 
-1.58306

>  <r_i_glide_evdw>  (435) 
-24.5341

>  <r_i_glide_ecoul>  (435) 
-3.279

>  <r_i_glide_erotb>  (435) 
0

>  <r_i_glide_esite>  (435) 
0

>  <r_i_glide_emodel>  (435) 
-34.0626

>  <r_i_glide_energy>  (435) 
-27.8131

>  <r_i_glide_einternal>  (435) 
0

>  <r_i_glide_intrahb_reward>  (435) 
-0

>  <i_i_glide_confnum>  (435) 
1

>  <i_i_glide_posenum>  (435) 
1

>  <r_i_glide_eff_state_penalty>  (435) 
0

>  <ligand_id>  (435) 
104

>  <original_smiles>  (435) 
CC12CCC3C(CCC4CC(=O)CCC43C)C1CCC2=O

>  <smiles>  (435) 
[H]C([H])([H])C12C(=O)C([H])([H])C([H])([H])C1([H])C1([H])C([H])([H])C([H])([H])C3([H])C([H])([H])C(=O)C([H])([H])C([H])([H])C3(C([H])([H])[H])C1([H])C([H])([H])C2([H])[H]

$$$$
104:0:1
     RDKit          3D

 49 52  0  0  1  0  0  0  0  0999 V2000
    2.5801   -0.1818    4.3945 C   0  0  0  0  0  0  0  0  0  0  0  0
    3.6924   -1.0858    3.8246 C   0  0  2  0  0  0  0  0  0  0  0  0
    4.4908   -0.2616    2.7925 C   0  0  0  0  0  0  0  0  0  0  0  0
    5.3896   -1.0782    1.8637 C   0  0  0  0  0  0  0  0  0  0  0  0
    4.5579   -2.1232    1.1013 C   0  0  2  0  0  0  0  0  0  0  0  0
    3.9058   -3.1013    2.1185 C   0  0  2  0  0  0  0  0  0  0  0  0
    3.0077   -4.1069    1.3603 C   0  0  0  0  0  0  0  0  0  0  0  0
    3.7176   -4.8216    0.2025 C   0  0  0  0  0  0  0  0  0  0  0  0
    4.3489   -3.8304   -0.7918 C   0  0  1  0  0  0  0  0  0  0  0  0
    3.2558   -3.1281   -1.6477 C   0  0  0  0  0  0  0  0  0  0  0  0
    3.8181   -2.0161   -2.5280 C   0  0  0  0  0  0  0  0  0  0  0  0
    3.4923   -1.8882   -3.7096 O   0  0  0  0  0  0  0  0  0  0  0  0
    4.7965   -1.0616   -1.8654 C   0  0  0  0  0  0  0  0  0  0  0  0
    5.8745   -1.8644   -1.1232 C   0  0  0  0  0  0  0  0  0  0  0  0
    5.3249   -2.8546   -0.0611 C   0  0  1  0  0  0  0  0  0  0  0  0
    6.5541   -3.6308    0.4747 C   0  0  0  0  0  0  0  0  0  0  0  0
    3.0792   -2.3842    3.2348 C   0  0  1  0  0  0  0  0  0  0  0  0
    2.9395   -3.3121    4.4678 C   0  0  0  0  0  0  0  0  0  0  0  0
    4.1168   -3.0084    5.4013 C   0  0  0  0  0  0  0  0  0  0  0  0
    4.5257   -1.6120    4.9912 C   0  0  0  0  0  0  0  0  0  0  0  0
    5.3830   -0.9442    5.5854 O   0  0  0  0  0  0  0  0  0  0  0  0
    1.8514    0.0787    3.6233 H   0  0  0  0  0  0  0  0  0  0  0  0
    2.9852    0.7548    4.7810 H   0  0  0  0  0  0  0  0  0  0  0  0
    2.0341   -0.6576    5.2073 H   0  0  0  0  0  0  0  0  0  0  0  0
    3.7984    0.3320    2.1797 H   0  0  0  0  0  0  0  0  0  0  0  0
    5.1234    0.4454    3.3133 H   0  0  0  0  0  0  0  0  0  0  0  0
    5.8602   -0.3736    1.1739 H   0  0  0  0  0  0  0  0  0  0  0  0
    6.1980   -1.5449    2.4336 H   0  0  0  0  0  0  0  0  0  0  0  0
    3.7422   -1.5702    0.6440 H   0  0  0  0  0  0  0  0  0  0  0  0
    4.7066   -3.6519    2.6100 H   0  0  0  0  0  0  0  0  0  0  0  0
    2.6149   -4.8580    2.0464 H   0  0  0  0  0  0  0  0  0  0  0  0
    2.1481   -3.5730    0.9651 H   0  0  0  0  0  0  0  0  0  0  0  0
    4.4760   -5.4922    0.6038 H   0  0  0  0  0  0  0  0  0  0  0  0
    3.0077   -5.4637   -0.3195 H   0  0  0  0  0  0  0  0  0  0  0  0
    4.9339   -4.4252   -1.4929 H   0  0  0  0  0  0  0  0  0  0  0  0
    2.7520   -3.8531   -2.2792 H   0  0  0  0  0  0  0  0  0  0  0  0
    2.4896   -2.6814   -1.0160 H   0  0  0  0  0  0  0  0  0  0  0  0
    5.2415   -0.4217   -2.6238 H   0  0  0  0  0  0  0  0  0  0  0  0
    4.2610   -0.4111   -1.1785 H   0  0  0  0  0  0  0  0  0  0  0  0
    6.4304   -2.4332   -1.8690 H   0  0  0  0  0  0  0  0  0  0  0  0
    6.6093   -1.1947   -0.6734 H   0  0  0  0  0  0  0  0  0  0  0  0
    7.0497   -4.1827   -0.3237 H   0  0  0  0  0  0  0  0  0  0  0  0
    6.3014   -4.3563    1.2470 H   0  0  0  0  0  0  0  0  0  0  0  0
    7.3010   -2.9593    0.9018 H   0  0  0  0  0  0  0  0  0  0  0  0
    2.0904   -2.1538    2.8249 H   0  0  0  0  0  0  0  0  0  0  0  0
    2.0067   -3.0886    4.9874 H   0  0  0  0  0  0  0  0  0  0  0  0
    2.9045   -4.3786    4.2151 H   0  0  0  0  0  0  0  0  0  0  0  0
    3.8403   -3.0598    6.4561 H   0  0  0  0  0  0  0  0  0  0  0  0
    4.9570   -3.6780    5.2326 H   0  0  0  0  0  0  0  0  0  0  0  0
  2  1  1  1
  1 22  1  0
  1 23  1  0
  1 24  1  0
  2 17  1  0
  2 20  1  0
  2  3  1  0
  3  4  1  0
  3 25  1  0
  3 26  1  0
  4  5  1  0
  4 27  1  0
  4 28  1  0
  5 15  1  0
  5  6  1  0
  5 29  1  6
  6  7  1  0
  6 17  1  0
  6 30  1  1
  7  8  1  0
  7 31  1  0
  7 32  1  0
  8  9  1  0
  8 33  1  0
  8 34  1  0
  9 15  1  0
  9 10  1  0
  9 35  1  6
 10 11  1  0
 10 36  1  0
 10 37  1  0
 11 12  2  0
 11 13  1  0
 13 14  1  0
 13 38  1  0
 13 39  1  0
 14 15  1  0
 14 40  1  0
 14 41  1  0
 15 16  1  1
 16 42  1  0
 16 43  1  0
 16 44  1  0
 17 18  1  0
 17 45  1  6
 18 19  1  0
 18 46  1  0
 18 47  1  0
 19 20  1  0
 19 48  1  0
 19 49  1  0
 20 21  2  0
M  END
>  <i_m_ct_stereo_status>  (436) 
1

>  <s_m_source_file>  (436) 
/var/tmp/pbs.5076255.sched01/tmp9yj1qf5s/135tauqa2n_.sdf

>  <i_m_source_file_index>  (436) 
32

>  <i_lp_mmshare_version>  (436) 
48012

>  <i_f3d_flags>  (436) 
0

>  <s_epik_input>  (436) 
Tz1DMVtDSDJdW0NIMl1bQ0BASF0oW0NAQF0xMltDSDNdKVtDQEBIXTNbQ0BASF0oW0NIMl1bQ0gyXTIpW0NAQF00KFtDSDNdKVtDQEBIXShbQ0gyXVtDSDJdMylbQ0gyXUMoPU8pW0NIMl1bQ0gyXTQ=

>  <s_epik_cmdline>  (436) 
J2VwaWtfcHl0aG9uJywgJy1waHQnLCAnMi4wJywgJy1waCcsICc3LjAnLCAnLXRuJywgJzgnLCAnLW1hJywgJzIwMCcsICctaW1hZScsICc8aW5maWxlLm1hZT4nLCAnLW9tYWUnLCAnPG91dGZpbGUubWFlPic=

>  <r_lp_tautomer_probability>  (436) 
1

>  <r_epik_Ionization_Penalty>  (436) 
1.47608e-13

>  <r_epik_Ionization_Penalty_Charging>  (436) 
0

>  <r_epik_Ionization_Penalty_Neutral>  (436) 
1.47608e-13

>  <r_epik_State_Penalty>  (436) 
-0

>  <r_epik_Charging_Adjusted_Penalty>  (436) 
0

>  <i_epik_Tot_Q>  (436) 
0

>  <i_epik_Tot_abs_Q>  (436) 
0

>  <s_lp_Force_Field>  (436) 
OPLS3e

>  <r_lp_Energy>  (436) 
22.9296

>  <b_lp_Chiralities_Consistent>  (436) 
1

>  <s_lp_Variant>  (436) 
104:0-1

>  <s_i_glide_gridfile>  (436) 
pfpi4k_grid

>  <i_i_glide_lignum>  (436) 
32

>  <i_i_glide_rotatable_bonds>  (436) 
0

>  <r_i_docking_score>  (436) 
-3.35357

>  <r_i_glide_ligand_efficiency>  (436) 
-0.159694

>  <r_i_glide_ligand_efficiency_sa>  (436) 
-0.440583

>  <r_i_glide_ligand_efficiency_ln>  (436) 
-0.829163

>  <r_i_glide_gscore>  (436) 
-3.35357

>  <r_i_glide_lipo>  (436) 
-0.36233

>  <r_i_glide_hbond>  (436) 
0

>  <r_i_glide_metal>  (436) 
-0

>  <r_i_glide_rewards>  (436) 
-1.46465

>  <r_i_glide_evdw>  (436) 
-24.5171

>  <r_i_glide_ecoul>  (436) 
-1.92068

>  <r_i_glide_erotb>  (436) 
0

>  <r_i_glide_esite>  (436) 
-0.0126285

>  <r_i_glide_emodel>  (436) 
-31.7553

>  <r_i_glide_energy>  (436) 
-26.4378

>  <r_i_glide_einternal>  (436) 
0

>  <r_i_glide_intrahb_reward>  (436) 
-0

>  <i_i_glide_confnum>  (436) 
2

>  <i_i_glide_posenum>  (436) 
32

>  <r_i_glide_eff_state_penalty>  (436) 
0

>  <ligand_id>  (436) 
104

>  <original_smiles>  (436) 
CC12CCC3C(CCC4CC(=O)CCC43C)C1CCC2=O

>  <smiles>  (436) 
[H]C([H])([H])C12C(=O)C([H])([H])C([H])([H])C1([H])C1([H])C([H])([H])C([H])([H])C3([H])C([H])([H])C(=O)C([H])([H])C([H])([H])C3(C([H])([H])[H])C1([H])C([H])([H])C2([H])[H]

$$$$
105:0:0
     RDKit          3D

 53 57  0  0  1  0  0  0  0  0999 V2000
    5.9146   -0.7663    0.6076 C   0  0  0  0  0  0  0  0  0  0  0  0
    5.7811   -1.7934    1.2521 C   0  0  0  0  0  0  0  0  0  0  0  0
    5.6315   -3.0087    2.0625 C   0  0  2  0  0  0  0  0  0  0  0  0
    5.1901   -4.0580    1.2042 O   0  0  0  0  0  0  0  0  0  0  0  0
    3.9430   -4.5772    1.6453 C   0  0  1  0  0  0  0  0  0  0  0  0
    3.1906   -5.0331    0.4006 C   0  0  0  0  0  0  0  0  0  0  0  0
    1.9463   -5.8510    0.7563 C   0  0  0  0  0  0  0  0  0  0  0  0
    2.3272   -7.0885    1.5903 C   0  0  2  0  0  0  0  0  0  0  0  0
    1.1439   -8.0420    1.8109 C   0  0  0  0  0  0  0  0  0  0  0  0
    0.2981   -7.8790    3.1184 C   0  0  2  0  0  0  0  0  0  0  0  0
   -0.3539   -9.2375    3.4516 C   0  0  0  0  0  0  0  0  0  0  0  0
   -1.6984   -9.1391    2.7943 C   0  0  0  0  0  0  0  0  0  0  0  0
   -2.0226   -7.6900    3.0324 C   0  0  0  0  0  0  0  0  0  0  0  0
   -0.7950   -7.0270    2.7896 O   0  0  0  0  0  0  0  0  0  0  0  0
    1.0647   -7.3150    4.3119 C   0  0  0  0  0  0  0  0  0  0  0  0
    2.0882   -6.2292    3.9279 C   0  0  0  0  0  0  0  0  0  0  0  0
    3.1008   -6.7657    2.9011 C   0  0  1  0  0  0  0  0  0  0  0  0
    3.7290   -8.0882    3.4207 C   0  0  0  0  0  0  0  0  0  0  0  0
    4.2681   -5.7665    2.6008 C   0  0  2  0  0  0  0  0  0  0  0  0
    5.1024   -5.3011    3.8285 C   0  0  0  0  0  0  0  0  0  0  0  0
    4.8048   -3.8654    4.3099 C   0  0  0  0  0  0  0  0  0  0  0  0
    4.5446   -2.8988    3.1437 C   0  0  2  0  0  0  0  0  0  0  0  0
    3.3249   -3.3626    2.3666 C   0  0  0  0  0  0  0  0  0  0  0  0
    6.0312    0.1496    0.0962 H   0  0  0  0  0  0  0  0  0  0  0  0
    6.6100   -3.2283    2.4709 H   0  0  0  0  0  0  0  0  0  0  0  0
    2.9026   -4.1666   -0.2030 H   0  0  0  0  0  0  0  0  0  0  0  0
    3.8504   -5.6202   -0.2305 H   0  0  0  0  0  0  0  0  0  0  0  0
    1.2436   -5.2466    1.3164 H   0  0  0  0  0  0  0  0  0  0  0  0
    1.4603   -6.1534   -0.1689 H   0  0  0  0  0  0  0  0  0  0  0  0
    3.0009   -7.6420    0.9292 H   0  0  0  0  0  0  0  0  0  0  0  0
    0.4451   -7.8956    0.9932 H   0  0  0  0  0  0  0  0  0  0  0  0
    1.5122   -9.0507    1.7200 H   0  0  0  0  0  0  0  0  0  0  0  0
    0.2134  -10.0980    3.0906 H   0  0  0  0  0  0  0  0  0  0  0  0
   -0.4691   -9.3800    4.5269 H   0  0  0  0  0  0  0  0  0  0  0  0
   -1.6266   -9.3449    1.7300 H   0  0  0  0  0  0  0  0  0  0  0  0
   -2.4350   -9.8042    3.2443 H   0  0  0  0  0  0  0  0  0  0  0  0
   -2.8140   -7.3847    2.3465 H   0  0  0  0  0  0  0  0  0  0  0  0
   -2.3803   -7.5545    4.0575 H   0  0  0  0  0  0  0  0  0  0  0  0
    0.3465   -6.8464    5.0111 H   0  0  0  0  0  0  0  0  0  0  0  0
    1.5438   -8.1045    4.8870 H   0  0  0  0  0  0  0  0  0  0  0  0
    1.5138   -5.4144    3.5134 H   0  0  0  0  0  0  0  0  0  0  0  0
    2.5811   -5.8479    4.8142 H   0  0  0  0  0  0  0  0  0  0  0  0
    4.0878   -7.9805    4.4396 H   0  0  0  0  0  0  0  0  0  0  0  0
    4.5582   -8.4263    2.7965 H   0  0  0  0  0  0  0  0  0  0  0  0
    3.0204   -8.9174    3.4371 H   0  0  0  0  0  0  0  0  0  0  0  0
    4.9690   -6.3696    2.0192 H   0  0  0  0  0  0  0  0  0  0  0  0
    4.9744   -5.9793    4.6709 H   0  0  0  0  0  0  0  0  0  0  0  0
    6.1543   -5.3670    3.5614 H   0  0  0  0  0  0  0  0  0  0  0  0
    3.9474   -3.8685    4.9825 H   0  0  0  0  0  0  0  0  0  0  0  0
    5.6522   -3.5154    4.9027 H   0  0  0  0  0  0  0  0  0  0  0  0
    4.4213   -1.8839    3.5222 H   0  0  0  0  0  0  0  0  0  0  0  0
    3.0218   -2.6058    1.6518 H   0  0  0  0  0  0  0  0  0  0  0  0
    2.4811   -3.5868    3.0085 H   0  0  0  0  0  0  0  0  0  0  0  0
  1  2  3  0
  1 24  1  0
  2  3  1  0
  3 22  1  0
  3  4  1  0
  3 25  1  1
  5  4  1  6
  5 19  1  0
  5 23  1  0
  5  6  1  0
  6  7  1  0
  6 26  1  0
  6 27  1  0
  7  8  1  0
  7 28  1  0
  7 29  1  0
  8 17  1  0
  8  9  1  0
  8 30  1  6
  9 10  1  0
  9 31  1  0
  9 32  1  0
 10 14  1  6
 10 11  1  0
 10 15  1  0
 11 12  1  0
 11 33  1  0
 11 34  1  0
 12 13  1  0
 12 35  1  0
 12 36  1  0
 13 14  1  0
 13 37  1  0
 13 38  1  0
 15 16  1  0
 15 39  1  0
 15 40  1  0
 16 17  1  0
 16 41  1  0
 16 42  1  0
 17 18  1  1
 17 19  1  0
 18 43  1  0
 18 44  1  0
 18 45  1  0
 19 20  1  0
 19 46  1  6
 20 21  1  0
 20 47  1  0
 20 48  1  0
 21 22  1  0
 21 49  1  0
 21 50  1  0
 22 23  1  0
 22 51  1  1
 23 52  1  0
 23 53  1  0
M  END
>  <i_m_ct_stereo_status>  (437) 
1

>  <s_m_source_file>  (437) 
/var/tmp/pbs.5076255.sched01/tmp9yj1qf5s/135tauqa2n_.sdf

>  <i_m_source_file_index>  (437) 
33

>  <i_lp_mmshare_version>  (437) 
48012

>  <i_f3d_flags>  (437) 
0

>  <s_epik_input>  (437) 
W0NIXSNDW0NASF0oTzEpW0NAQEhdKFtDSDJdMilbQ0gyXVtDSDJdW0NASF0oW0NAXTEyMylbQ0BdNChbQ0gzXSlbQ0BIXShbQ0gyXVtDSDJdMylbQ0gyXVtDQF01KFtDSDJdW0NIMl00KVtDSDJdW0NIMl1bQ0gyXU81

>  <s_epik_cmdline>  (437) 
J2VwaWtfcHl0aG9uJywgJy1waHQnLCAnMi4wJywgJy1waCcsICc3LjAnLCAnLXRuJywgJzgnLCAnLW1hJywgJzIwMCcsICctaW1hZScsICc8aW5maWxlLm1hZT4nLCAnLW9tYWUnLCAnPG91dGZpbGUubWFlPic=

>  <r_lp_tautomer_probability>  (437) 
1

>  <r_epik_Ionization_Penalty>  (437) 
1.03979e-10

>  <r_epik_Ionization_Penalty_Charging>  (437) 
0

>  <r_epik_Ionization_Penalty_Neutral>  (437) 
1.03979e-10

>  <r_epik_State_Penalty>  (437) 
-0

>  <r_epik_Charging_Adjusted_Penalty>  (437) 
0

>  <i_epik_Tot_Q>  (437) 
0

>  <i_epik_Tot_abs_Q>  (437) 
0

>  <s_lp_Force_Field>  (437) 
OPLS3e

>  <r_lp_Energy>  (437) 
51.3121

>  <b_lp_Chiralities_Consistent>  (437) 
1

>  <s_lp_Variant>  (437) 
105:0-1

>  <s_i_glide_gridfile>  (437) 
pfpi4k_grid

>  <i_i_glide_lignum>  (437) 
33

>  <i_i_glide_rotatable_bonds>  (437) 
1

>  <r_i_docking_score>  (437) 
-2.94264

>  <r_i_glide_ligand_efficiency>  (437) 
-0.127941

>  <r_i_glide_ligand_efficiency_sa>  (437) 
-0.363847

>  <r_i_glide_ligand_efficiency_ln>  (437) 
-0.711557

>  <r_i_glide_gscore>  (437) 
-2.94264

>  <r_i_glide_lipo>  (437) 
-0.357817

>  <r_i_glide_hbond>  (437) 
-0.16

>  <r_i_glide_metal>  (437) 
-0

>  <r_i_glide_rewards>  (437) 
-1.26503

>  <r_i_glide_evdw>  (437) 
-19.979

>  <r_i_glide_ecoul>  (437) 
-2.32546

>  <r_i_glide_erotb>  (437) 
0.187981

>  <r_i_glide_esite>  (437) 
0

>  <r_i_glide_emodel>  (437) 
-25.1378

>  <r_i_glide_energy>  (437) 
-22.3045

>  <r_i_glide_einternal>  (437) 
0.23793

>  <r_i_glide_intrahb_reward>  (437) 
-0

>  <i_i_glide_confnum>  (437) 
5

>  <i_i_glide_posenum>  (437) 
31

>  <r_i_glide_eff_state_penalty>  (437) 
0

>  <ligand_id>  (437) 
105

>  <original_smiles>  (437) 
C#CC1OC23CCC4CC5(CCCO5)CCC4(C)C2CCC1C3

>  <smiles>  (437) 
[H]C#CC1([H])OC23C([H])([H])C([H])([H])C4([H])C([H])([H])C5(OC([H])([H])C([H])([H])C5([H])[H])C([H])([H])C([H])([H])C4(C([H])([H])[H])C2([H])C([H])([H])C([H])([H])C1([H])C3([H])[H]

$$$$
105:0:1
     RDKit          3D

 53 57  0  0  1  0  0  0  0  0999 V2000
    5.8818   -0.5737    0.8608 C   0  0  0  0  0  0  0  0  0  0  0  0
    5.6223   -1.3691    1.7459 C   0  0  0  0  0  0  0  0  0  0  0  0
    5.2955   -2.3341    2.8053 C   0  0  2  0  0  0  0  0  0  0  0  0
    5.2685   -3.6398    2.2267 O   0  0  0  0  0  0  0  0  0  0  0  0
    3.9832   -4.2340    2.3930 C   0  0  1  0  0  0  0  0  0  0  0  0
    3.7205   -5.1049    1.1601 C   0  0  0  0  0  0  0  0  0  0  0  0
    2.5015   -5.9990    1.3590 C   0  0  0  0  0  0  0  0  0  0  0  0
    2.6986   -6.9122    2.5797 C   0  0  2  0  0  0  0  0  0  0  0  0
    1.6028   -7.9896    2.6998 C   0  0  0  0  0  0  0  0  0  0  0  0
    0.3466   -7.6557    3.5649 C   0  0  2  0  0  0  0  0  0  0  0  0
   -0.2806   -8.9606    4.0861 C   0  0  0  0  0  0  0  0  0  0  0  0
   -1.3733   -9.2957    3.0996 C   0  0  0  0  0  0  0  0  0  0  0  0
   -1.3988   -8.1370    2.1360 C   0  0  0  0  0  0  0  0  0  0  0  0
   -0.6714   -7.0857    2.7481 O   0  0  0  0  0  0  0  0  0  0  0  0
    0.5791   -6.6520    4.7267 C   0  0  0  0  0  0  0  0  0  0  0  0
    1.5895   -5.5559    4.3760 C   0  0  0  0  0  0  0  0  0  0  0  0
    2.9352   -6.1492    3.9156 C   0  0  1  0  0  0  0  0  0  0  0  0
    3.4478   -7.1624    4.9795 C   0  0  0  0  0  0  0  0  0  0  0  0
    4.0558   -5.0766    3.6983 C   0  0  2  0  0  0  0  0  0  0  0  0
    4.3789   -4.1838    4.9386 C   0  0  0  0  0  0  0  0  0  0  0  0
    3.8423   -2.7391    4.8607 C   0  0  0  0  0  0  0  0  0  0  0  0
    3.9089   -2.1548    3.4348 C   0  0  2  0  0  0  0  0  0  0  0  0
    3.0721   -3.0044    2.5002 C   0  0  0  0  0  0  0  0  0  0  0  0
    6.1320    0.1322    0.1073 H   0  0  0  0  0  0  0  0  0  0  0  0
    6.0760   -2.2677    3.5590 H   0  0  0  0  0  0  0  0  0  0  0  0
    3.6002   -4.4887    0.2775 H   0  0  0  0  0  0  0  0  0  0  0  0
    4.5957   -5.7261    0.9771 H   0  0  0  0  0  0  0  0  0  0  0  0
    1.5925   -5.4100    1.4312 H   0  0  0  0  0  0  0  0  0  0  0  0
    2.3822   -6.6188    0.4776 H   0  0  0  0  0  0  0  0  0  0  0  0
    3.6079   -7.4721    2.3578 H   0  0  0  0  0  0  0  0  0  0  0  0
    1.2902   -8.2686    1.6923 H   0  0  0  0  0  0  0  0  0  0  0  0
    2.0793   -8.8843    3.0834 H   0  0  0  0  0  0  0  0  0  0  0  0
    0.4397   -9.7826    4.1579 H   0  0  0  0  0  0  0  0  0  0  0  0
   -0.7140   -8.8496    5.0858 H   0  0  0  0  0  0  0  0  0  0  0  0
   -1.1977  -10.2435    2.5935 H   0  0  0  0  0  0  0  0  0  0  0  0
   -2.3181   -9.3707    3.6373 H   0  0  0  0  0  0  0  0  0  0  0  0
   -0.9289   -8.3911    1.1978 H   0  0  0  0  0  0  0  0  0  0  0  0
   -2.4349   -7.8796    1.9483 H   0  0  0  0  0  0  0  0  0  0  0  0
   -0.3690   -6.1781    4.9879 H   0  0  0  0  0  0  0  0  0  0  0  0
    0.8857   -7.1860    5.6271 H   0  0  0  0  0  0  0  0  0  0  0  0
    1.1328   -4.9618    3.5915 H   0  0  0  0  0  0  0  0  0  0  0  0
    1.7127   -4.8889    5.2291 H   0  0  0  0  0  0  0  0  0  0  0  0
    3.4330   -6.7382    5.9849 H   0  0  0  0  0  0  0  0  0  0  0  0
    4.4642   -7.5033    4.7624 H   0  0  0  0  0  0  0  0  0  0  0  0
    2.8424   -8.0682    5.0278 H   0  0  0  0  0  0  0  0  0  0  0  0
    4.9606   -5.6794    3.5707 H   0  0  0  0  0  0  0  0  0  0  0  0
    4.0359   -4.6274    5.8697 H   0  0  0  0  0  0  0  0  0  0  0  0
    5.4635   -4.1286    5.0325 H   0  0  0  0  0  0  0  0  0  0  0  0
    2.8054   -2.7150    5.2038 H   0  0  0  0  0  0  0  0  0  0  0  0
    4.4024   -2.1030    5.5513 H   0  0  0  0  0  0  0  0  0  0  0  0
    3.5896   -1.1103    3.4427 H   0  0  0  0  0  0  0  0  0  0  0  0
    2.9618   -2.5109    1.5344 H   0  0  0  0  0  0  0  0  0  0  0  0
    2.0755   -3.1970    2.8898 H   0  0  0  0  0  0  0  0  0  0  0  0
  1  2  3  0
  1 24  1  0
  2  3  1  0
  3 22  1  0
  3  4  1  0
  3 25  1  1
  5  4  1  6
  5 19  1  0
  5 23  1  0
  5  6  1  0
  6  7  1  0
  6 26  1  0
  6 27  1  0
  7  8  1  0
  7 28  1  0
  7 29  1  0
  8 17  1  0
  8  9  1  0
  8 30  1  6
  9 10  1  0
  9 31  1  0
  9 32  1  0
 10 14  1  6
 10 11  1  0
 10 15  1  0
 11 12  1  0
 11 33  1  0
 11 34  1  0
 12 13  1  0
 12 35  1  0
 12 36  1  0
 13 14  1  0
 13 37  1  0
 13 38  1  0
 15 16  1  0
 15 39  1  0
 15 40  1  0
 16 17  1  0
 16 41  1  0
 16 42  1  0
 17 18  1  1
 17 19  1  0
 18 43  1  0
 18 44  1  0
 18 45  1  0
 19 20  1  0
 19 46  1  6
 20 21  1  0
 20 47  1  0
 20 48  1  0
 21 22  1  0
 21 49  1  0
 21 50  1  0
 22 23  1  0
 22 51  1  1
 23 52  1  0
 23 53  1  0
M  END
>  <i_m_ct_stereo_status>  (438) 
1

>  <s_m_source_file>  (438) 
/var/tmp/pbs.5076255.sched01/tmp9yj1qf5s/135tauqa2n_.sdf

>  <i_m_source_file_index>  (438) 
33

>  <i_lp_mmshare_version>  (438) 
48012

>  <i_f3d_flags>  (438) 
0

>  <s_epik_input>  (438) 
W0NIXSNDW0NASF0oTzEpW0NAQEhdKFtDSDJdMilbQ0gyXVtDSDJdW0NASF0oW0NAXTEyMylbQ0BdNChbQ0gzXSlbQ0BIXShbQ0gyXVtDSDJdMylbQ0gyXVtDQF01KFtDSDJdW0NIMl00KVtDSDJdW0NIMl1bQ0gyXU81

>  <s_epik_cmdline>  (438) 
J2VwaWtfcHl0aG9uJywgJy1waHQnLCAnMi4wJywgJy1waCcsICc3LjAnLCAnLXRuJywgJzgnLCAnLW1hJywgJzIwMCcsICctaW1hZScsICc8aW5maWxlLm1hZT4nLCAnLW9tYWUnLCAnPG91dGZpbGUubWFlPic=

>  <r_lp_tautomer_probability>  (438) 
1

>  <r_epik_Ionization_Penalty>  (438) 
1.03979e-10

>  <r_epik_Ionization_Penalty_Charging>  (438) 
0

>  <r_epik_Ionization_Penalty_Neutral>  (438) 
1.03979e-10

>  <r_epik_State_Penalty>  (438) 
-0

>  <r_epik_Charging_Adjusted_Penalty>  (438) 
0

>  <i_epik_Tot_Q>  (438) 
0

>  <i_epik_Tot_abs_Q>  (438) 
0

>  <s_lp_Force_Field>  (438) 
OPLS3e

>  <r_lp_Energy>  (438) 
51.3121

>  <b_lp_Chiralities_Consistent>  (438) 
1

>  <s_lp_Variant>  (438) 
105:0-1

>  <s_i_glide_gridfile>  (438) 
pfpi4k_grid

>  <i_i_glide_lignum>  (438) 
33

>  <i_i_glide_rotatable_bonds>  (438) 
1

>  <r_i_docking_score>  (438) 
-2.75332

>  <r_i_glide_ligand_efficiency>  (438) 
-0.119709

>  <r_i_glide_ligand_efficiency_sa>  (438) 
-0.340438

>  <r_i_glide_ligand_efficiency_ln>  (438) 
-0.665777

>  <r_i_glide_gscore>  (438) 
-2.75332

>  <r_i_glide_lipo>  (438) 
-0.308949

>  <r_i_glide_hbond>  (438) 
-0.138135

>  <r_i_glide_metal>  (438) 
-0

>  <r_i_glide_rewards>  (438) 
-1.26503

>  <r_i_glide_evdw>  (438) 
-16.8616

>  <r_i_glide_ecoul>  (438) 
-2.57398

>  <r_i_glide_erotb>  (438) 
0.187981

>  <r_i_glide_esite>  (438) 
0

>  <r_i_glide_emodel>  (438) 
-22.1007

>  <r_i_glide_energy>  (438) 
-19.4356

>  <r_i_glide_einternal>  (438) 
0.245644

>  <r_i_glide_intrahb_reward>  (438) 
-0

>  <i_i_glide_confnum>  (438) 
1

>  <i_i_glide_posenum>  (438) 
28

>  <r_i_glide_eff_state_penalty>  (438) 
0

>  <ligand_id>  (438) 
105

>  <original_smiles>  (438) 
C#CC1OC23CCC4CC5(CCCO5)CCC4(C)C2CCC1C3

>  <smiles>  (438) 
[H]C#CC1([H])OC23C([H])([H])C([H])([H])C4([H])C([H])([H])C5(OC([H])([H])C([H])([H])C5([H])[H])C([H])([H])C([H])([H])C4(C([H])([H])[H])C2([H])C([H])([H])C([H])([H])C1([H])C3([H])[H]

$$$$
105:0:2
     RDKit          3D

 53 57  0  0  1  0  0  0  0  0999 V2000
    5.7804   -0.2794    1.2678 C   0  0  0  0  0  0  0  0  0  0  0  0
    5.3500   -0.9129    2.2150 C   0  0  0  0  0  0  0  0  0  0  0  0
    4.8238   -1.6943    3.3364 C   0  0  2  0  0  0  0  0  0  0  0  0
    5.0551   -3.0756    3.0373 O   0  0  0  0  0  0  0  0  0  0  0  0
    3.8167   -3.7870    2.9598 C   0  0  1  0  0  0  0  0  0  0  0  0
    3.9780   -4.8744    1.8924 C   0  0  0  0  0  0  0  0  0  0  0  0
    2.8278   -5.8791    1.9337 C   0  0  0  0  0  0  0  0  0  0  0  0
    2.7469   -6.5392    3.3243 C   0  0  2  0  0  0  0  0  0  0  0  0
    1.7492   -7.7125    3.3698 C   0  0  0  0  0  0  0  0  0  0  0  0
    0.2789   -7.4035    3.7970 C   0  0  2  0  0  0  0  0  0  0  0  0
   -0.3689   -8.6643    4.3881 C   0  0  0  0  0  0  0  0  0  0  0  0
   -1.1222   -9.2901    3.2414 C   0  0  0  0  0  0  0  0  0  0  0  0
   -0.9577   -8.3297    2.0835 C   0  0  0  0  0  0  0  0  0  0  0  0
   -0.5383   -7.1030    2.6625 O   0  0  0  0  0  0  0  0  0  0  0  0
    0.1096   -6.2092    4.7704 C   0  0  0  0  0  0  0  0  0  0  0  0
    1.0807   -5.0595    4.4789 C   0  0  0  0  0  0  0  0  0  0  0  0
    2.5459   -5.5384    4.5016 C   0  0  1  0  0  0  0  0  0  0  0  0
    2.8265   -6.2870    5.8361 C   0  0  0  0  0  0  0  0  0  0  0  0
    3.5915   -4.3813    4.3760 C   0  0  2  0  0  0  0  0  0  0  0  0
    3.4891   -3.2614    5.4590 C   0  0  0  0  0  0  0  0  0  0  0  0
    2.8819   -1.9332    4.9709 C   0  0  0  0  0  0  0  0  0  0  0  0
    3.3042   -1.5877    3.5250 C   0  0  2  0  0  0  0  0  0  0  0  0
    2.8235   -2.6805    2.5890 C   0  0  0  0  0  0  0  0  0  0  0  0
    6.1944    0.2562    0.4582 H   0  0  0  0  0  0  0  0  0  0  0  0
    5.3759   -1.3958    4.2309 H   0  0  0  0  0  0  0  0  0  0  0  0
    4.0579   -4.4324    0.9047 H   0  0  0  0  0  0  0  0  0  0  0  0
    4.9178   -5.3989    2.0633 H   0  0  0  0  0  0  0  0  0  0  0  0
    1.8891   -5.4084    1.6502 H   0  0  0  0  0  0  0  0  0  0  0  0
    3.0119   -6.6430    1.1803 H   0  0  0  0  0  0  0  0  0  0  0  0
    3.7237   -7.0055    3.4542 H   0  0  0  0  0  0  0  0  0  0  0  0
    1.7576   -8.1905    2.3917 H   0  0  0  0  0  0  0  0  0  0  0  0
    2.1734   -8.4623    4.0336 H   0  0  0  0  0  0  0  0  0  0  0  0
    0.3666   -9.3656    4.7951 H   0  0  0  0  0  0  0  0  0  0  0  0
   -1.0598   -8.4514    5.2089 H   0  0  0  0  0  0  0  0  0  0  0  0
   -0.7237  -10.2721    2.9949 H   0  0  0  0  0  0  0  0  0  0  0  0
   -2.1655   -9.4150    3.5200 H   0  0  0  0  0  0  0  0  0  0  0  0
   -0.1714   -8.6547    1.4181 H   0  0  0  0  0  0  0  0  0  0  0  0
   -1.8798   -8.2651    1.5146 H   0  0  0  0  0  0  0  0  0  0  0  0
   -0.9111   -5.8381    4.6868 H   0  0  0  0  0  0  0  0  0  0  0  0
    0.2071   -6.5411    5.8071 H   0  0  0  0  0  0  0  0  0  0  0  0
    0.8153   -4.6704    3.5020 H   0  0  0  0  0  0  0  0  0  0  0  0
    0.9146   -4.2462    5.1858 H   0  0  0  0  0  0  0  0  0  0  0  0
    2.5012   -5.7070    6.6999 H   0  0  0  0  0  0  0  0  0  0  0  0
    3.8867   -6.5244    5.9598 H   0  0  0  0  0  0  0  0  0  0  0  0
    2.3074   -7.2419    5.9059 H   0  0  0  0  0  0  0  0  0  0  0  0
    4.5394   -4.8755    4.6035 H   0  0  0  0  0  0  0  0  0  0  0  0
    2.9400   -3.5865    6.3375 H   0  0  0  0  0  0  0  0  0  0  0  0
    4.4996   -3.0545    5.8138 H   0  0  0  0  0  0  0  0  0  0  0  0
    1.7927   -1.9854    5.0154 H   0  0  0  0  0  0  0  0  0  0  0  0
    3.1770   -1.1258    5.6411 H   0  0  0  0  0  0  0  0  0  0  0  0
    2.9151   -0.6082    3.2448 H   0  0  0  0  0  0  0  0  0  0  0  0
    2.9450   -2.3718    1.5473 H   0  0  0  0  0  0  0  0  0  0  0  0
    1.7768   -2.9318    2.7369 H   0  0  0  0  0  0  0  0  0  0  0  0
  1  2  3  0
  1 24  1  0
  2  3  1  0
  3 22  1  0
  3  4  1  0
  3 25  1  1
  5  4  1  1
  5 19  1  0
  5 23  1  0
  5  6  1  0
  6  7  1  0
  6 26  1  0
  6 27  1  0
  7  8  1  0
  7 28  1  0
  7 29  1  0
  8 17  1  0
  8  9  1  0
  8 30  1  1
  9 10  1  0
  9 31  1  0
  9 32  1  0
 10 14  1  6
 10 11  1  0
 10 15  1  0
 11 12  1  0
 11 33  1  0
 11 34  1  0
 12 13  1  0
 12 35  1  0
 12 36  1  0
 13 14  1  0
 13 37  1  0
 13 38  1  0
 15 16  1  0
 15 39  1  0
 15 40  1  0
 16 17  1  0
 16 41  1  0
 16 42  1  0
 17 18  1  1
 17 19  1  0
 18 43  1  0
 18 44  1  0
 18 45  1  0
 19 20  1  0
 19 46  1  1
 20 21  1  0
 20 47  1  0
 20 48  1  0
 21 22  1  0
 21 49  1  0
 21 50  1  0
 22 23  1  0
 22 51  1  6
 23 52  1  0
 23 53  1  0
M  END
>  <i_m_ct_stereo_status>  (439) 
1

>  <s_m_source_file>  (439) 
/var/tmp/pbs.5076255.sched01/tmp9yj1qf5s/135tauqa2n_.sdf

>  <i_m_source_file_index>  (439) 
33

>  <i_lp_mmshare_version>  (439) 
48012

>  <i_f3d_flags>  (439) 
0

>  <s_epik_input>  (439) 
W0NIXSNDW0NASF0oTzEpW0NAQEhdKFtDSDJdMilbQ0gyXVtDSDJdW0NASF0oW0NAXTEyMylbQ0BdNChbQ0gzXSlbQ0BIXShbQ0gyXVtDSDJdMylbQ0gyXVtDQF01KFtDSDJdW0NIMl00KVtDSDJdW0NIMl1bQ0gyXU81

>  <s_epik_cmdline>  (439) 
J2VwaWtfcHl0aG9uJywgJy1waHQnLCAnMi4wJywgJy1waCcsICc3LjAnLCAnLXRuJywgJzgnLCAnLW1hJywgJzIwMCcsICctaW1hZScsICc8aW5maWxlLm1hZT4nLCAnLW9tYWUnLCAnPG91dGZpbGUubWFlPic=

>  <r_lp_tautomer_probability>  (439) 
1

>  <r_epik_Ionization_Penalty>  (439) 
1.03979e-10

>  <r_epik_Ionization_Penalty_Charging>  (439) 
0

>  <r_epik_Ionization_Penalty_Neutral>  (439) 
1.03979e-10

>  <r_epik_State_Penalty>  (439) 
-0

>  <r_epik_Charging_Adjusted_Penalty>  (439) 
0

>  <i_epik_Tot_Q>  (439) 
0

>  <i_epik_Tot_abs_Q>  (439) 
0

>  <s_lp_Force_Field>  (439) 
OPLS3e

>  <r_lp_Energy>  (439) 
51.3121

>  <b_lp_Chiralities_Consistent>  (439) 
1

>  <s_lp_Variant>  (439) 
105:0-1

>  <s_i_glide_gridfile>  (439) 
pfpi4k_grid

>  <i_i_glide_lignum>  (439) 
33

>  <i_i_glide_rotatable_bonds>  (439) 
1

>  <r_i_docking_score>  (439) 
-2.72371

>  <r_i_glide_ligand_efficiency>  (439) 
-0.118422

>  <r_i_glide_ligand_efficiency_sa>  (439) 
-0.336777

>  <r_i_glide_ligand_efficiency_ln>  (439) 
-0.658617

>  <r_i_glide_gscore>  (439) 
-2.72371

>  <r_i_glide_lipo>  (439) 
-0.227661

>  <r_i_glide_hbond>  (439) 
-0.1149

>  <r_i_glide_metal>  (439) 
-0

>  <r_i_glide_rewards>  (439) 
-1.26503

>  <r_i_glide_evdw>  (439) 
-16.7886

>  <r_i_glide_ecoul>  (439) 
-3.09775

>  <r_i_glide_erotb>  (439) 
0.187981

>  <r_i_glide_esite>  (439) 
0

>  <r_i_glide_emodel>  (439) 
-22.5106

>  <r_i_glide_energy>  (439) 
-19.8864

>  <r_i_glide_einternal>  (439) 
0.223604

>  <r_i_glide_intrahb_reward>  (439) 
-0

>  <i_i_glide_confnum>  (439) 
4

>  <i_i_glide_posenum>  (439) 
6

>  <r_i_glide_eff_state_penalty>  (439) 
0

>  <ligand_id>  (439) 
105

>  <original_smiles>  (439) 
C#CC1OC23CCC4CC5(CCCO5)CCC4(C)C2CCC1C3

>  <smiles>  (439) 
[H]C#CC1([H])OC23C([H])([H])C([H])([H])C4([H])C([H])([H])C5(OC([H])([H])C([H])([H])C5([H])[H])C([H])([H])C([H])([H])C4(C([H])([H])[H])C2([H])C([H])([H])C([H])([H])C1([H])C3([H])[H]

$$$$
106:0:0
     RDKit          3D

 41 44  0  0  1  0  0  0  0  0999 V2000
    0.6936   -6.5954    4.3478 C   0  0  0  0  0  0  0  0  0  0  0  0
    1.8363   -6.2330    3.4018 C   0  0  0  0  0  0  0  0  0  0  0  0
    1.7140   -5.0094    2.8667 N   0  0  0  0  0  0  0  0  0  0  0  0
    2.7083   -4.5842    2.0480 C   0  0  0  0  0  0  0  0  0  0  0  0
    2.6670   -2.9908    1.3342 S   0  0  0  0  0  0  0  0  0  0  0  0
    4.1661   -3.2926    0.4810 C   0  0  0  0  0  0  0  0  0  0  0  0
    4.6881   -2.1868   -0.3599 C   0  0  0  0  0  0  0  0  0  0  0  0
    3.8101   -1.3531   -0.9060 N   0  0  0  0  0  0  0  0  0  0  0  0
    5.8885   -2.0777   -0.5928 O   0  0  0  0  0  0  0  0  0  0  0  0
    4.6798   -4.5423    0.7240 C   0  0  0  0  0  0  0  0  0  0  0  0
    5.8483   -5.0433    0.1231 N   0  0  0  0  0  0  0  0  0  0  0  0
    3.8694   -5.3257    1.6775 C   0  0  0  0  0  0  0  0  0  0  0  0
    3.9847   -6.6187    2.2716 C   0  0  0  0  0  0  0  0  0  0  0  0
    5.1654   -7.4559    1.9595 C   0  0  0  0  0  0  0  0  0  0  0  0
    5.2845   -8.6799    1.3551 C   0  0  0  0  0  0  0  0  0  0  0  0
    6.6293   -9.0050    1.2806 N   0  0  0  0  0  0  0  0  0  0  0  0
    7.3305   -8.0520    1.8255 N   0  0  0  0  0  0  0  0  0  0  0  0
    6.4760   -7.0978    2.2545 N   0  0  0  0  0  0  0  0  0  0  0  0
    7.0226   -5.9144    2.9005 C   0  0  0  0  0  0  0  0  0  0  0  0
    2.9374   -7.0974    3.1393 C   0  0  0  0  0  0  0  0  0  0  0  0
    3.0578   -8.4355    3.8111 C   0  0  0  0  0  0  0  0  0  0  0  0
    4.0662   -8.7832    4.4318 O   0  0  0  0  0  0  0  0  0  0  0  0
    1.8656   -9.3640    3.7334 C   0  0  0  0  0  0  0  0  0  0  0  0
    2.0828  -10.8272    3.4008 C   0  0  0  0  0  0  0  0  0  0  0  0
    1.4977   -9.9067    2.3587 C   0  0  0  0  0  0  0  0  0  0  0  0
    0.2231   -7.5405    4.0790 H   0  0  0  0  0  0  0  0  0  0  0  0
   -0.0638   -5.7925    4.3432 H   0  0  0  0  0  0  0  0  0  0  0  0
    1.0679   -6.6572    5.3775 H   0  0  0  0  0  0  0  0  0  0  0  0
    2.8084   -1.4477   -0.7349 H   0  0  0  0  0  0  0  0  0  0  0  0
    4.1542   -0.6248   -1.5083 H   0  0  0  0  0  0  0  0  0  0  0  0
    6.2864   -5.8664    0.5047 H   0  0  0  0  0  0  0  0  0  0  0  0
    6.4840   -4.3981   -0.3316 H   0  0  0  0  0  0  0  0  0  0  0  0
    4.5410   -9.3482    0.9633 H   0  0  0  0  0  0  0  0  0  0  0  0
    6.3030   -5.0995    2.8919 H   0  0  0  0  0  0  0  0  0  0  0  0
    7.9098   -5.5823    2.3564 H   0  0  0  0  0  0  0  0  0  0  0  0
    7.2864   -6.1288    3.9370 H   0  0  0  0  0  0  0  0  0  0  0  0
    1.0914   -9.1957    4.4883 H   0  0  0  0  0  0  0  0  0  0  0  0
    3.1102  -11.1923    3.2883 H   0  0  0  0  0  0  0  0  0  0  0  0
    1.4081  -11.5102    3.9061 H   0  0  0  0  0  0  0  0  0  0  0  0
    0.4408  -10.0060    2.1286 H   0  0  0  0  0  0  0  0  0  0  0  0
    2.1292   -9.6742    1.4913 H   0  0  0  0  0  0  0  0  0  0  0  0
  1  2  1  0
  1 26  1  0
  1 27  1  0
  1 28  1  0
  2 20  2  0
  2  3  1  0
  3  4  2  0
  4 12  1  0
  4  5  1  0
  5  6  1  0
  6  7  1  0
  6 10  2  0
  7  8  1  0
  7  9  2  0
  8 29  1  0
  8 30  1  0
 10 11  1  0
 10 12  1  0
 11 31  1  0
 11 32  1  0
 12 13  2  0
 13 14  1  0
 13 20  1  0
 14 18  1  0
 14 15  2  0
 15 16  1  0
 15 33  1  0
 16 17  2  0
 17 18  1  0
 18 19  1  0
 19 34  1  0
 19 35  1  0
 19 36  1  0
 20 21  1  0
 21 22  2  0
 21 23  1  0
 23 25  1  0
 23 24  1  0
 23 37  1  0
 24 25  1  0
 24 38  1  0
 24 39  1  0
 25 40  1  0
 25 41  1  0
M  END
>  <i_m_ct_stereo_status>  (440) 
1

>  <s_m_source_file>  (440) 
/var/tmp/pbs.5076255.sched01/tmp9yj1qf5s/135tauqa2n_.sdf

>  <i_m_source_file_index>  (440) 
34

>  <i_lp_mmshare_version>  (440) 
48012

>  <i_f3d_flags>  (440) 
0

>  <s_epik_input>  (440) 
W05IMl1DKD1PKWMoczEpYyhbTkgyXSljKGMxMiljKGMoYyhuMilbQ0gzXSlDKD1PKVtDSF0zW0NIMl1bQ0gyXTMpLWM0W2NIXW5ubjRbQ0gzXQ==

>  <s_epik_cmdline>  (440) 
J2VwaWtfcHl0aG9uJywgJy1waHQnLCAnMi4wJywgJy1waCcsICc3LjAnLCAnLXRuJywgJzgnLCAnLW1hJywgJzIwMCcsICctaW1hZScsICc8aW5maWxlLm1hZT4nLCAnLW9tYWUnLCAnPG91dGZpbGUubWFlPic=

>  <r_lp_tautomer_probability>  (440) 
0.9999

>  <r_epik_Ionization_Penalty>  (440) 
0.00129312

>  <r_epik_Ionization_Penalty_Charging>  (440) 
0

>  <r_epik_Ionization_Penalty_Neutral>  (440) 
0.00129312

>  <r_epik_State_Penalty>  (440) 
0.00121269

>  <r_epik_Charging_Adjusted_Penalty>  (440) 
0.00121269

>  <i_epik_Tot_Q>  (440) 
0

>  <i_epik_Tot_abs_Q>  (440) 
0

>  <s_lp_Force_Field>  (440) 
OPLS3e

>  <r_lp_Energy>  (440) 
38.2889

>  <b_lp_Chiralities_Consistent>  (440) 
1

>  <s_lp_Variant>  (440) 
106:0-1

>  <s_i_glide_gridfile>  (440) 
pfpi4k_grid

>  <i_i_glide_lignum>  (440) 
34

>  <i_i_glide_rotatable_bonds>  (440) 
4

>  <r_i_docking_score>  (440) 
-3.43215

>  <r_i_glide_ligand_efficiency>  (440) 
-0.137286

>  <r_i_glide_ligand_efficiency_sa>  (440) 
-0.401427

>  <r_i_glide_ligand_efficiency_ln>  (440) 
-0.813524

>  <r_i_glide_gscore>  (440) 
-3.43215

>  <r_i_glide_lipo>  (440) 
-0.344775

>  <r_i_glide_hbond>  (440) 
-0.120466

>  <r_i_glide_metal>  (440) 
-0

>  <r_i_glide_rewards>  (440) 
-1.52398

>  <r_i_glide_evdw>  (440) 
-24.9154

>  <r_i_glide_ecoul>  (440) 
-3.69853

>  <r_i_glide_erotb>  (440) 
0.451853

>  <r_i_glide_esite>  (440) 
-0.0942369

>  <r_i_glide_emodel>  (440) 
-38.1243

>  <r_i_glide_energy>  (440) 
-28.6139

>  <r_i_glide_einternal>  (440) 
3.54754

>  <r_i_glide_intrahb_reward>  (440) 
-0.5

>  <i_i_glide_confnum>  (440) 
2

>  <i_i_glide_posenum>  (440) 
4

>  <r_i_glide_eff_state_penalty>  (440) 
0

>  <ligand_id>  (440) 
106

>  <original_smiles>  (440) 
Cc1nc2sc(C(N)=O)c(N)c2c(-c2cnnn2C)c1C(=O)C1CC1

>  <smiles>  (440) 
[H]c1nnn(C([H])([H])[H])c1-c1c(C(=O)C2([H])C([H])([H])C2([H])[H])c(C([H])([H])[H])nc2sc(C(=O)N([H])[H])c(N([H])[H])c12

$$$$
106:0:1
     RDKit          3D

 41 44  0  0  1  0  0  0  0  0999 V2000
   -1.1938   -7.9799    2.9639 C   0  0  0  0  0  0  0  0  0  0  0  0
    0.2996   -7.8418    2.7030 C   0  0  0  0  0  0  0  0  0  0  0  0
    0.6130   -6.8173    1.8839 N   0  0  0  0  0  0  0  0  0  0  0  0
    1.9418   -6.6615    1.6160 C   0  0  0  0  0  0  0  0  0  0  0  0
    2.5111   -5.3713    0.5716 S   0  0  0  0  0  0  0  0  0  0  0  0
    4.1663   -5.8728    0.7896 C   0  0  0  0  0  0  0  0  0  0  0  0
    5.2028   -5.0451    0.1263 C   0  0  0  0  0  0  0  0  0  0  0  0
    4.9343   -4.5815   -1.0948 N   0  0  0  0  0  0  0  0  0  0  0  0
    6.2991   -4.8587    0.6465 O   0  0  0  0  0  0  0  0  0  0  0  0
    4.3067   -6.9740    1.6048 C   0  0  0  0  0  0  0  0  0  0  0  0
    5.5304   -7.5842    1.9353 N   0  0  0  0  0  0  0  0  0  0  0  0
    3.0220   -7.4640    2.1045 C   0  0  0  0  0  0  0  0  0  0  0  0
    2.6386   -8.5394    2.9581 C   0  0  0  0  0  0  0  0  0  0  0  0
    3.6689   -9.4206    3.5118 C   0  0  0  0  0  0  0  0  0  0  0  0
    4.0470  -10.6988    3.2172 C   0  0  0  0  0  0  0  0  0  0  0  0
    5.1092  -11.0521    4.0481 N   0  0  0  0  0  0  0  0  0  0  0  0
    5.3752  -10.0667    4.8424 N   0  0  0  0  0  0  0  0  0  0  0  0
    4.5226   -9.0628    4.5400 N   0  0  0  0  0  0  0  0  0  0  0  0
    4.6310   -7.8232    5.2866 C   0  0  0  0  0  0  0  0  0  0  0  0
    1.2609   -8.7216    3.2748 C   0  0  0  0  0  0  0  0  0  0  0  0
    0.8347   -9.8272    4.1824 C   0  0  0  0  0  0  0  0  0  0  0  0
    1.0482  -11.0167    3.9544 O   0  0  0  0  0  0  0  0  0  0  0  0
    0.1228   -9.4020    5.4339 C   0  0  0  0  0  0  0  0  0  0  0  0
    0.7381   -8.2956    6.2631 C   0  0  0  0  0  0  0  0  0  0  0  0
    0.7684   -9.7174    6.7627 C   0  0  0  0  0  0  0  0  0  0  0  0
   -1.5371   -9.0081    2.8169 H   0  0  0  0  0  0  0  0  0  0  0  0
   -1.7698   -7.3430    2.2930 H   0  0  0  0  0  0  0  0  0  0  0  0
   -1.4287   -7.6636    3.9815 H   0  0  0  0  0  0  0  0  0  0  0  0
    4.0795   -4.8562   -1.5672 H   0  0  0  0  0  0  0  0  0  0  0  0
    5.6671   -4.1044   -1.5948 H   0  0  0  0  0  0  0  0  0  0  0  0
    5.5781   -8.3621    2.5803 H   0  0  0  0  0  0  0  0  0  0  0  0
    6.4143   -7.1819    1.6495 H   0  0  0  0  0  0  0  0  0  0  0  0
    3.6524  -11.3901    2.4843 H   0  0  0  0  0  0  0  0  0  0  0  0
    4.1605   -7.0102    4.7366 H   0  0  0  0  0  0  0  0  0  0  0  0
    5.6844   -7.5806    5.4363 H   0  0  0  0  0  0  0  0  0  0  0  0
    4.1510   -7.9408    6.2586 H   0  0  0  0  0  0  0  0  0  0  0  0
   -0.9599   -9.4525    5.4029 H   0  0  0  0  0  0  0  0  0  0  0  0
    1.6764   -7.8626    5.9208 H   0  0  0  0  0  0  0  0  0  0  0  0
    0.0534   -7.6057    6.7482 H   0  0  0  0  0  0  0  0  0  0  0  0
    0.1007   -9.9778    7.5807 H   0  0  0  0  0  0  0  0  0  0  0  0
    1.7186  -10.2506    6.7461 H   0  0  0  0  0  0  0  0  0  0  0  0
  1  2  1  0
  1 26  1  0
  1 27  1  0
  1 28  1  0
  2 20  2  0
  2  3  1  0
  3  4  2  0
  4 12  1  0
  4  5  1  0
  5  6  1  0
  6  7  1  0
  6 10  2  0
  7  8  1  0
  7  9  2  0
  8 29  1  0
  8 30  1  0
 10 11  1  0
 10 12  1  0
 11 31  1  0
 11 32  1  0
 12 13  2  0
 13 14  1  0
 13 20  1  0
 14 18  1  0
 14 15  2  0
 15 16  1  0
 15 33  1  0
 16 17  2  0
 17 18  1  0
 18 19  1  0
 19 34  1  0
 19 35  1  0
 19 36  1  0
 20 21  1  0
 21 22  2  0
 21 23  1  0
 23 25  1  0
 23 24  1  0
 23 37  1  0
 24 25  1  0
 24 38  1  0
 24 39  1  0
 25 40  1  0
 25 41  1  0
M  END
>  <i_m_ct_stereo_status>  (441) 
1

>  <s_m_source_file>  (441) 
/var/tmp/pbs.5076255.sched01/tmp9yj1qf5s/135tauqa2n_.sdf

>  <i_m_source_file_index>  (441) 
34

>  <i_lp_mmshare_version>  (441) 
48012

>  <i_f3d_flags>  (441) 
0

>  <s_epik_input>  (441) 
W05IMl1DKD1PKWMoczEpYyhbTkgyXSljKGMxMiljKGMoYyhuMilbQ0gzXSlDKD1PKVtDSF0zW0NIMl1bQ0gyXTMpLWM0W2NIXW5ubjRbQ0gzXQ==

>  <s_epik_cmdline>  (441) 
J2VwaWtfcHl0aG9uJywgJy1waHQnLCAnMi4wJywgJy1waCcsICc3LjAnLCAnLXRuJywgJzgnLCAnLW1hJywgJzIwMCcsICctaW1hZScsICc8aW5maWxlLm1hZT4nLCAnLW9tYWUnLCAnPG91dGZpbGUubWFlPic=

>  <r_lp_tautomer_probability>  (441) 
0.9999

>  <r_epik_Ionization_Penalty>  (441) 
0.00129312

>  <r_epik_Ionization_Penalty_Charging>  (441) 
0

>  <r_epik_Ionization_Penalty_Neutral>  (441) 
0.00129312

>  <r_epik_State_Penalty>  (441) 
0.00121269

>  <r_epik_Charging_Adjusted_Penalty>  (441) 
0.00121269

>  <i_epik_Tot_Q>  (441) 
0

>  <i_epik_Tot_abs_Q>  (441) 
0

>  <s_lp_Force_Field>  (441) 
OPLS3e

>  <r_lp_Energy>  (441) 
38.2889

>  <b_lp_Chiralities_Consistent>  (441) 
1

>  <s_lp_Variant>  (441) 
106:0-1

>  <s_i_glide_gridfile>  (441) 
pfpi4k_grid

>  <i_i_glide_lignum>  (441) 
34

>  <i_i_glide_rotatable_bonds>  (441) 
4

>  <r_i_docking_score>  (441) 
-3.18301

>  <r_i_glide_ligand_efficiency>  (441) 
-0.127321

>  <r_i_glide_ligand_efficiency_sa>  (441) 
-0.372288

>  <r_i_glide_ligand_efficiency_ln>  (441) 
-0.75447

>  <r_i_glide_gscore>  (441) 
-3.18301

>  <r_i_glide_lipo>  (441) 
-0.149842

>  <r_i_glide_hbond>  (441) 
-0.32

>  <r_i_glide_metal>  (441) 
-0

>  <r_i_glide_rewards>  (441) 
-1.05473

>  <r_i_glide_evdw>  (441) 
-26.1674

>  <r_i_glide_ecoul>  (441) 
-4.91427

>  <r_i_glide_erotb>  (441) 
0.451853

>  <r_i_glide_esite>  (441) 
-0.0647834

>  <r_i_glide_emodel>  (441) 
-35.9542

>  <r_i_glide_energy>  (441) 
-31.0817

>  <r_i_glide_einternal>  (441) 
3.18808

>  <r_i_glide_intrahb_reward>  (441) 
-0

>  <i_i_glide_confnum>  (441) 
3

>  <i_i_glide_posenum>  (441) 
10

>  <r_i_glide_eff_state_penalty>  (441) 
0

>  <ligand_id>  (441) 
106

>  <original_smiles>  (441) 
Cc1nc2sc(C(N)=O)c(N)c2c(-c2cnnn2C)c1C(=O)C1CC1

>  <smiles>  (441) 
[H]c1nnn(C([H])([H])[H])c1-c1c(C(=O)C2([H])C([H])([H])C2([H])[H])c(C([H])([H])[H])nc2sc(C(=O)N([H])[H])c(N([H])[H])c12

$$$$
106:0:2
     RDKit          3D

 41 44  0  0  1  0  0  0  0  0999 V2000
    0.8931   -4.6964    4.5552 C   0  0  0  0  0  0  0  0  0  0  0  0
    1.6383   -3.7549    3.6160 C   0  0  0  0  0  0  0  0  0  0  0  0
    2.3153   -4.4052    2.6509 N   0  0  0  0  0  0  0  0  0  0  0  0
    3.0212   -3.6273    1.7814 C   0  0  0  0  0  0  0  0  0  0  0  0
    3.9264   -4.3342    0.4513 S   0  0  0  0  0  0  0  0  0  0  0  0
    4.4254   -2.7525   -0.0933 C   0  0  0  0  0  0  0  0  0  0  0  0
    5.3073   -2.7050   -1.2818 C   0  0  0  0  0  0  0  0  0  0  0  0
    5.0318   -3.5491   -2.2793 N   0  0  0  0  0  0  0  0  0  0  0  0
    6.2177   -1.8841   -1.3725 O   0  0  0  0  0  0  0  0  0  0  0  0
    3.9762   -1.7229    0.7084 C   0  0  0  0  0  0  0  0  0  0  0  0
    4.2737   -0.3620    0.5207 N   0  0  0  0  0  0  0  0  0  0  0  0
    3.1243   -2.2022    1.7963 C   0  0  0  0  0  0  0  0  0  0  0  0
    2.4035   -1.5552    2.8459 C   0  0  0  0  0  0  0  0  0  0  0  0
    2.4275   -0.0996    2.9100 C   0  0  0  0  0  0  0  0  0  0  0  0
    1.8245    0.8538    2.1397 C   0  0  0  0  0  0  0  0  0  0  0  0
    2.1935    2.1084    2.6218 N   0  0  0  0  0  0  0  0  0  0  0  0
    2.9786    1.9643    3.6381 N   0  0  0  0  0  0  0  0  0  0  0  0
    3.1551    0.6383    3.8285 N   0  0  0  0  0  0  0  0  0  0  0  0
    4.0219    0.2086    4.9162 C   0  0  0  0  0  0  0  0  0  0  0  0
    1.6231   -2.3383    3.7550 C   0  0  0  0  0  0  0  0  0  0  0  0
    0.8332   -1.6895    4.8476 C   0  0  0  0  0  0  0  0  0  0  0  0
    1.3046   -0.9136    5.6790 O   0  0  0  0  0  0  0  0  0  0  0  0
   -0.6272   -2.0259    4.8950 C   0  0  0  0  0  0  0  0  0  0  0  0
   -1.5818   -1.0320    5.5200 C   0  0  0  0  0  0  0  0  0  0  0  0
   -1.2261   -2.2970    6.2602 C   0  0  0  0  0  0  0  0  0  0  0  0
    1.0892   -4.4572    5.6035 H   0  0  0  0  0  0  0  0  0  0  0  0
    1.1861   -5.7363    4.3931 H   0  0  0  0  0  0  0  0  0  0  0  0
   -0.1797   -4.6536    4.3761 H   0  0  0  0  0  0  0  0  0  0  0  0
    4.2569   -4.1953   -2.2020 H   0  0  0  0  0  0  0  0  0  0  0  0
    5.5856   -3.5042   -3.1188 H   0  0  0  0  0  0  0  0  0  0  0  0
    3.7844    0.3505    1.0456 H   0  0  0  0  0  0  0  0  0  0  0  0
    4.7493   -0.0325   -0.3101 H   0  0  0  0  0  0  0  0  0  0  0  0
    1.1739    0.7522    1.2841 H   0  0  0  0  0  0  0  0  0  0  0  0
    3.8173   -0.8292    5.1734 H   0  0  0  0  0  0  0  0  0  0  0  0
    3.8289    0.8294    5.7955 H   0  0  0  0  0  0  0  0  0  0  0  0
    5.0695    0.3015    4.6240 H   0  0  0  0  0  0  0  0  0  0  0  0
   -0.9974   -2.6250    4.0718 H   0  0  0  0  0  0  0  0  0  0  0  0
   -1.1670   -0.0895    5.8799 H   0  0  0  0  0  0  0  0  0  0  0  0
   -2.5611   -0.9633    5.0545 H   0  0  0  0  0  0  0  0  0  0  0  0
   -1.9947   -3.0602    6.3308 H   0  0  0  0  0  0  0  0  0  0  0  0
   -0.5807   -2.2107    7.1367 H   0  0  0  0  0  0  0  0  0  0  0  0
  1  2  1  0
  1 26  1  0
  1 27  1  0
  1 28  1  0
  2 20  2  0
  2  3  1  0
  3  4  2  0
  4 12  1  0
  4  5  1  0
  5  6  1  0
  6  7  1  0
  6 10  2  0
  7  8  1  0
  7  9  2  0
  8 29  1  0
  8 30  1  0
 10 11  1  0
 10 12  1  0
 11 31  1  0
 11 32  1  0
 12 13  2  0
 13 14  1  0
 13 20  1  0
 14 18  1  0
 14 15  2  0
 15 16  1  0
 15 33  1  0
 16 17  2  0
 17 18  1  0
 18 19  1  0
 19 34  1  0
 19 35  1  0
 19 36  1  0
 20 21  1  0
 21 22  2  0
 21 23  1  0
 23 25  1  0
 23 24  1  0
 23 37  1  0
 24 25  1  0
 24 38  1  0
 24 39  1  0
 25 40  1  0
 25 41  1  0
M  END
>  <i_m_ct_stereo_status>  (442) 
1

>  <s_m_source_file>  (442) 
/var/tmp/pbs.5076255.sched01/tmp9yj1qf5s/135tauqa2n_.sdf

>  <i_m_source_file_index>  (442) 
34

>  <i_lp_mmshare_version>  (442) 
48012

>  <i_f3d_flags>  (442) 
0

>  <s_epik_input>  (442) 
W05IMl1DKD1PKWMoczEpYyhbTkgyXSljKGMxMiljKGMoYyhuMilbQ0gzXSlDKD1PKVtDSF0zW0NIMl1bQ0gyXTMpLWM0W2NIXW5ubjRbQ0gzXQ==

>  <s_epik_cmdline>  (442) 
J2VwaWtfcHl0aG9uJywgJy1waHQnLCAnMi4wJywgJy1waCcsICc3LjAnLCAnLXRuJywgJzgnLCAnLW1hJywgJzIwMCcsICctaW1hZScsICc8aW5maWxlLm1hZT4nLCAnLW9tYWUnLCAnPG91dGZpbGUubWFlPic=

>  <r_lp_tautomer_probability>  (442) 
0.9999

>  <r_epik_Ionization_Penalty>  (442) 
0.00129312

>  <r_epik_Ionization_Penalty_Charging>  (442) 
0

>  <r_epik_Ionization_Penalty_Neutral>  (442) 
0.00129312

>  <r_epik_State_Penalty>  (442) 
0.00121269

>  <r_epik_Charging_Adjusted_Penalty>  (442) 
0.00121269

>  <i_epik_Tot_Q>  (442) 
0

>  <i_epik_Tot_abs_Q>  (442) 
0

>  <s_lp_Force_Field>  (442) 
OPLS3e

>  <r_lp_Energy>  (442) 
38.2889

>  <b_lp_Chiralities_Consistent>  (442) 
1

>  <s_lp_Variant>  (442) 
106:0-1

>  <s_i_glide_gridfile>  (442) 
pfpi4k_grid

>  <i_i_glide_lignum>  (442) 
34

>  <i_i_glide_rotatable_bonds>  (442) 
4

>  <r_i_docking_score>  (442) 
-3.05588

>  <r_i_glide_ligand_efficiency>  (442) 
-0.122235

>  <r_i_glide_ligand_efficiency_sa>  (442) 
-0.357418

>  <r_i_glide_ligand_efficiency_ln>  (442) 
-0.724336

>  <r_i_glide_gscore>  (442) 
-3.05588

>  <r_i_glide_lipo>  (442) 
-0.0482469

>  <r_i_glide_hbond>  (442) 
-0.294815

>  <r_i_glide_metal>  (442) 
-0

>  <r_i_glide_rewards>  (442) 
-0.979069

>  <r_i_glide_evdw>  (442) 
-27.8573

>  <r_i_glide_ecoul>  (442) 
-5.03975

>  <r_i_glide_erotb>  (442) 
0.451853

>  <r_i_glide_esite>  (442) 
-0.0367764

>  <r_i_glide_emodel>  (442) 
-37.5262

>  <r_i_glide_energy>  (442) 
-32.8971

>  <r_i_glide_einternal>  (442) 
2.96401

>  <r_i_glide_intrahb_reward>  (442) 
-0

>  <i_i_glide_confnum>  (442) 
4

>  <i_i_glide_posenum>  (442) 
2

>  <r_i_glide_eff_state_penalty>  (442) 
0

>  <ligand_id>  (442) 
106

>  <original_smiles>  (442) 
Cc1nc2sc(C(N)=O)c(N)c2c(-c2cnnn2C)c1C(=O)C1CC1

>  <smiles>  (442) 
[H]c1nnn(C([H])([H])[H])c1-c1c(C(=O)C2([H])C([H])([H])C2([H])[H])c(C([H])([H])[H])nc2sc(C(=O)N([H])[H])c(N([H])[H])c12

$$$$
107:0:0
     RDKit          3D

 96104  0  0  1  0  0  0  0  0999 V2000
   -1.9564   -7.4707    2.7106 C   0  0  0  0  0  0  0  0  0  0  0  0
   -0.4383   -7.5554    2.9688 C   0  0  2  0  0  0  0  0  0  0  0  0
    0.2964   -7.5764    1.6424 C   0  0  0  0  0  0  0  0  0  0  0  0
    1.8186   -7.6226    1.7701 C   0  0  0  0  0  0  0  0  0  0  0  0
    2.3657   -8.7703    2.5850 C   0  0  2  0  0  0  0  0  0  0  0  0
    2.5353   -9.9532    1.6313 C   0  0  0  0  0  0  0  0  0  0  0  0
    1.5246   -9.0697    3.8273 C   0  0  2  0  0  0  0  0  0  0  0  0
   -0.0151   -8.8130    3.8025 C   0  0  0  0  0  0  0  0  0  0  0  0
   -0.5669   -8.6323    5.2188 C   0  0  0  0  0  0  0  0  0  0  0  0
   -0.6373  -10.0998    3.2186 C   0  0  0  0  0  0  0  0  0  0  0  0
    2.5589   -8.3153    4.6926 C   0  0  2  0  0  0  0  0  0  0  0  0
    2.8643   -9.0323    6.0154 C   0  0  0  0  0  0  0  0  0  0  0  0
    2.3065   -6.8608    5.0594 C   0  0  0  0  0  0  0  0  0  0  0  0
    3.6114   -6.0728    5.1553 C   0  0  0  0  0  0  0  0  0  0  0  0
    4.3214   -5.8924    3.8004 C   0  0  2  0  0  0  0  0  0  0  0  0
    3.3934   -5.1999    2.9318 O   0  0  0  0  0  0  0  0  0  0  0  0
    3.6335   -4.1945    1.9826 C   0  0  1  0  0  0  0  0  0  0  0  0
    2.7611   -4.5588    0.7704 C   0  0  0  0  0  0  0  0  0  0  0  0
    2.9958   -2.9814    2.3700 O   0  0  0  0  0  0  0  0  0  0  0  0
    3.2030   -2.3142    3.6082 C   0  0  2  0  0  0  0  0  0  0  0  0
    2.2956   -2.8618    4.7145 C   0  0  0  0  0  0  0  0  0  0  0  0
    2.8454   -0.8120    3.3804 C   0  0  0  0  0  0  0  0  0  0  0  0
    1.6482   -0.4623    3.3165 O   0  0  0  0  0  0  0  0  0  0  0  0
    3.9591    0.2536    3.1809 C   0  0  1  0  0  0  0  0  0  0  0  0
    3.9582    1.1515    4.2731 O   0  0  0  0  0  0  0  0  0  0  0  0
    5.2637   -0.2708    2.9732 O   0  0  0  0  0  0  0  0  0  0  0  0
    5.4170   -1.6849    2.7948 C   0  0  1  0  0  0  0  0  0  0  0  0
    4.9853   -1.4512    1.2647 C   0  0  1  0  0  0  0  0  0  0  0  0
    5.8077   -0.5944    0.5000 O   0  0  0  0  0  0  0  0  0  0  0  0
    5.7521   -2.6028    1.6357 C   0  0  2  0  0  0  0  0  0  0  0  0
    5.1978   -4.0188    1.5199 C   0  0  2  0  0  0  0  0  0  0  0  0
    5.4157   -4.3308    0.0105 C   0  0  0  0  0  0  0  0  0  0  0  0
    6.1004   -4.9433    2.4118 C   0  0  2  0  0  0  0  0  0  0  0  0
    6.4292   -6.3484    1.8157 C   0  0  0  0  0  0  0  0  0  0  0  0
    5.2329   -7.3125    1.8413 C   0  0  0  0  0  0  0  0  0  0  0  0
    4.6237   -7.3497    3.2467 C   0  0  2  0  0  0  0  0  0  0  0  0
    3.5830   -8.5191    3.5297 C   0  0  2  0  0  0  0  0  0  0  0  0
    4.4835   -9.7750    3.7007 C   0  0  0  0  0  0  0  0  0  0  0  0
    5.6116   -4.9872    3.8871 C   0  0  2  0  0  0  0  0  0  0  0  0
    6.6942   -5.6442    4.8072 C   0  0  0  0  0  0  0  0  0  0  0  0
    5.3602   -3.6001    4.6036 C   0  0  0  0  0  0  0  0  0  0  0  0
    4.6990   -2.3293    3.9479 C   0  0  2  0  0  0  0  0  0  0  0  0
   -2.3776   -8.2862    2.1206 H   0  0  0  0  0  0  0  0  0  0  0  0
   -2.1483   -6.5806    2.1315 H   0  0  0  0  0  0  0  0  0  0  0  0
   -2.5256   -7.3978    3.6365 H   0  0  0  0  0  0  0  0  0  0  0  0
   -0.1791   -6.6432    3.5031 H   0  0  0  0  0  0  0  0  0  0  0  0
   -0.0969   -8.5264    1.2716 H   0  0  0  0  0  0  0  0  0  0  0  0
   -0.0313   -6.7770    0.9625 H   0  0  0  0  0  0  0  0  0  0  0  0
    2.3244   -7.5964    0.8282 H   0  0  0  0  0  0  0  0  0  0  0  0
    2.0559   -6.7070    2.2371 H   0  0  0  0  0  0  0  0  0  0  0  0
    2.6990  -10.9022    2.1386 H   0  0  0  0  0  0  0  0  0  0  0  0
    3.3656   -9.8024    0.9444 H   0  0  0  0  0  0  0  0  0  0  0  0
    1.6452  -10.1112    1.0496 H   0  0  0  0  0  0  0  0  0  0  0  0
    1.6875  -10.1293    4.0472 H   0  0  0  0  0  0  0  0  0  0  0  0
   -0.1926   -9.3979    5.9022 H   0  0  0  0  0  0  0  0  0  0  0  0
   -1.6544   -8.6860    5.2312 H   0  0  0  0  0  0  0  0  0  0  0  0
   -0.2973   -7.6543    5.6075 H   0  0  0  0  0  0  0  0  0  0  0  0
   -0.3393  -10.9599    3.8109 H   0  0  0  0  0  0  0  0  0  0  0  0
   -0.3570  -10.3476    2.1992 H   0  0  0  0  0  0  0  0  0  0  0  0
   -1.7217  -10.0303    3.2400 H   0  0  0  0  0  0  0  0  0  0  0  0
    3.8169   -8.7009    6.4227 H   0  0  0  0  0  0  0  0  0  0  0  0
    2.9270  -10.1108    5.8934 H   0  0  0  0  0  0  0  0  0  0  0  0
    2.0894   -8.8622    6.7589 H   0  0  0  0  0  0  0  0  0  0  0  0
    1.6841   -6.3743    4.3289 H   0  0  0  0  0  0  0  0  0  0  0  0
    1.7622   -6.7884    5.9963 H   0  0  0  0  0  0  0  0  0  0  0  0
    3.3686   -5.1364    5.6346 H   0  0  0  0  0  0  0  0  0  0  0  0
    4.2780   -6.5795    5.8465 H   0  0  0  0  0  0  0  0  0  0  0  0
    1.7374   -4.6780    1.1329 H   0  0  0  0  0  0  0  0  0  0  0  0
    3.0711   -5.4994    0.3179 H   0  0  0  0  0  0  0  0  0  0  0  0
    2.7735   -3.7610    0.0230 H   0  0  0  0  0  0  0  0  0  0  0  0
    2.7434   -2.7411    5.7039 H   0  0  0  0  0  0  0  0  0  0  0  0
    2.0464   -3.9089    4.5546 H   0  0  0  0  0  0  0  0  0  0  0  0
    1.3320   -2.3552    4.7573 H   0  0  0  0  0  0  0  0  0  0  0  0
    3.7020    0.8780    2.3137 H   0  0  0  0  0  0  0  0  0  0  0  0
    3.5076    1.9095    3.9953 H   0  0  0  0  0  0  0  0  0  0  0  0
    3.9740   -1.5821    0.8426 H   0  0  0  0  0  0  0  0  0  0  0  0
    5.3445    0.2286    0.4609 H   0  0  0  0  0  0  0  0  0  0  0  0
    6.7797   -2.5510    1.2881 H   0  0  0  0  0  0  0  0  0  0  0  0
    6.4786   -4.2426   -0.2326 H   0  0  0  0  0  0  0  0  0  0  0  0
    4.9091   -3.6079   -0.6335 H   0  0  0  0  0  0  0  0  0  0  0  0
    5.1150   -5.3302   -0.2980 H   0  0  0  0  0  0  0  0  0  0  0  0
    7.0868   -4.4823    2.3369 H   0  0  0  0  0  0  0  0  0  0  0  0
    6.8497   -6.2889    0.8179 H   0  0  0  0  0  0  0  0  0  0  0  0
    7.2397   -6.7840    2.3922 H   0  0  0  0  0  0  0  0  0  0  0  0
    4.4897   -6.9892    1.1313 H   0  0  0  0  0  0  0  0  0  0  0  0
    5.5581   -8.2982    1.5125 H   0  0  0  0  0  0  0  0  0  0  0  0
    5.4551   -7.6618    3.8598 H   0  0  0  0  0  0  0  0  0  0  0  0
    5.1967   -9.6633    4.5186 H   0  0  0  0  0  0  0  0  0  0  0  0
    5.0502   -9.9883    2.7982 H   0  0  0  0  0  0  0  0  0  0  0  0
    3.9183  -10.6723    3.9238 H   0  0  0  0  0  0  0  0  0  0  0  0
    7.6008   -5.0763    4.8455 H   0  0  0  0  0  0  0  0  0  0  0  0
    7.0248   -6.6261    4.5253 H   0  0  0  0  0  0  0  0  0  0  0  0
    6.3353   -5.7147    5.8239 H   0  0  0  0  0  0  0  0  0  0  0  0
    4.8566   -3.7786    5.5439 H   0  0  0  0  0  0  0  0  0  0  0  0
    6.3122   -3.2318    4.9940 H   0  0  0  0  0  0  0  0  0  0  0  0
    4.8197   -1.6403    4.7858 H   0  0  0  0  0  0  0  0  0  0  0  0
  1  2  1  0
  1 43  1  0
  1 44  1  0
  1 45  1  0
  2  8  1  0
  2  3  1  0
  2 46  1  1
  3  4  1  0
  3 47  1  0
  3 48  1  0
  4  5  1  0
  4 49  1  0
  4 50  1  0
  5 37  1  0
  5  6  1  6
  5  7  1  0
  6 51  1  0
  6 52  1  0
  6 53  1  0
  7  8  1  0
  7 11  1  0
  7 54  1  1
  8  9  1  0
  8 10  1  0
  9 55  1  0
  9 56  1  0
  9 57  1  0
 10 58  1  0
 10 59  1  0
 10 60  1  0
 11 37  1  0
 11 12  1  1
 11 13  1  0
 12 61  1  0
 12 62  1  0
 12 63  1  0
 13 14  1  0
 13 64  1  0
 13 65  1  0
 14 15  1  0
 14 66  1  0
 14 67  1  0
 15 36  1  0
 15 39  1  0
 15 16  1  6
 16 17  1  0
 17 31  1  0
 17 18  1  6
 17 19  1  0
 18 68  1  0
 18 69  1  0
 18 70  1  0
 19 20  1  0
 20 42  1  0
 20 21  1  1
 20 22  1  0
 21 71  1  0
 21 72  1  0
 21 73  1  0
 22 23  2  0
 22 24  1  0
 24 25  1  0
 24 26  1  0
 24 74  1  6
 25 75  1  0
 27 26  1  6
 27 30  1  0
 27 42  1  0
 27 28  1  0
 28 29  1  0
 28 30  1  0
 28 76  1  1
 29 77  1  0
 30 31  1  0
 30 78  1  6
 31 32  1  6
 31 33  1  0
 32 79  1  0
 32 80  1  0
 32 81  1  0
 33 34  1  0
 33 39  1  0
 33 82  1  1
 34 35  1  0
 34 83  1  0
 34 84  1  0
 35 36  1  0
 35 85  1  0
 35 86  1  0
 36 37  1  0
 36 87  1  1
 37 38  1  1
 38 88  1  0
 38 89  1  0
 38 90  1  0
 39 40  1  1
 39 41  1  0
 40 91  1  0
 40 92  1  0
 40 93  1  0
 41 42  1  0
 41 94  1  0
 41 95  1  0
 42 96  1  1
M  END
>  <i_m_ct_stereo_status>  (443) 
1

>  <s_m_source_file>  (443) 
/var/tmp/pbs.5076255.sched01/tmp9yj1qf5s/135tauqa2n_.sdf

>  <i_m_source_file_index>  (443) 
35

>  <i_lp_mmshare_version>  (443) 
48012

>  <i_f3d_flags>  (443) 
0

>  <s_epik_input>  (443) 
W0NIMl0xW0NIMl1bQ0BASF0oW0NIM10pQyhbQ0gzXSkoW0NIM10pW0NASF0oW0NAXTIoW0NIM10pW0NIMl1bQ0gyXTMpW0NAXTEoW0NIM10pW0NAQF0yKFtDSDNdKVtDQEhdKFtDQF0zNDUpW0NIMl1bQ0gyXVtDQEhdNltDQEBdNyhbQ0gzXSlbQ0BdKE80KShbQ0gzXSlPW0NAQF04KFtDSDNdKVtDQEBIXShbQ0gyXVtDQEBdNTZbQ0gzXSlbQ0BAXTkoT1tDQEBIXShDOD1PKVtPSF0pW0NAQEhdN1tDQEBIXTlbT0hd

>  <s_epik_cmdline>  (443) 
J2VwaWtfcHl0aG9uJywgJy1waHQnLCAnMi4wJywgJy1waCcsICc3LjAnLCAnLXRuJywgJzgnLCAnLW1hJywgJzIwMCcsICctaW1hZScsICc8aW5maWxlLm1hZT4nLCAnLW9tYWUnLCAnPG91dGZpbGUubWFlPic=

>  <r_lp_tautomer_probability>  (443) 
1

>  <r_epik_Ionization_Penalty>  (443) 
1.30014e-05

>  <r_epik_Ionization_Penalty_Charging>  (443) 
0

>  <r_epik_Ionization_Penalty_Neutral>  (443) 
1.30014e-05

>  <r_epik_State_Penalty>  (443) 
-0

>  <r_epik_Charging_Adjusted_Penalty>  (443) 
0

>  <i_epik_Tot_Q>  (443) 
0

>  <i_epik_Tot_abs_Q>  (443) 
0

>  <s_epik_Chemistry_Notes>  (443) 
This compound contains an acetal/aminal-like group ( X-CH(R)-Y where X, Y are N, S, or O) that may be acid/base labile, releasing an aldehyde.

>  <s_lp_Force_Field>  (443) 
OPLS3e

>  <r_lp_Energy>  (443) 
209.997

>  <b_lp_Chiralities_Consistent>  (443) 
1

>  <s_lp_Variant>  (443) 
107:0-1

>  <s_i_glide_gridfile>  (443) 
pfpi4k_grid

>  <i_i_glide_lignum>  (443) 
35

>  <i_i_glide_rotatable_bonds>  (443) 
2

>  <r_i_docking_score>  (443) 
-1.76565

>  <r_i_glide_ligand_efficiency>  (443) 
-0.0420393

>  <r_i_glide_ligand_efficiency_sa>  (443) 
-0.14613

>  <r_i_glide_ligand_efficiency_ln>  (443) 
-0.372683

>  <r_i_glide_gscore>  (443) 
-1.76565

>  <r_i_glide_lipo>  (443) 
-0.517959

>  <r_i_glide_hbond>  (443) 
-0.0147575

>  <r_i_glide_metal>  (443) 
-0

>  <r_i_glide_rewards>  (443) 
-0.00476973

>  <r_i_glide_evdw>  (443) 
-21.4149

>  <r_i_glide_ecoul>  (443) 
-1.0306

>  <r_i_glide_erotb>  (443) 
0

>  <r_i_glide_esite>  (443) 
-0.00282684

>  <r_i_glide_emodel>  (443) 
-21.0196

>  <r_i_glide_energy>  (443) 
-22.4455

>  <r_i_glide_einternal>  (443) 
3.28443

>  <r_i_glide_intrahb_reward>  (443) 
-0

>  <i_i_glide_confnum>  (443) 
2

>  <i_i_glide_posenum>  (443) 
15

>  <r_i_glide_eff_state_penalty>  (443) 
0

>  <ligand_id>  (443) 
107

>  <original_smiles>  (443) 
CC1CCC2(C)C(C1(C)C)C1(C)CCC34OC5(C)OC6(C)C(=O)C(O)OC78C(O)C7C5(C)C(CCC3C21C)C4(C)CC68

>  <smiles>  (443) 
[H]OC1([H])OC23C([H])(O[H])C2([H])C2(C([H])([H])[H])C4(C([H])([H])[H])OC(C([H])([H])[H])(C1=O)C3([H])C([H])([H])C1(C([H])([H])[H])C2([H])C([H])([H])C([H])([H])C2([H])C1(O4)C([H])([H])C([H])([H])C1(C([H])([H])[H])C3([H])C(C([H])([H])[H])(C([H])([H])[H])C([H])(C([H])([H])[H])C([H])([H])C([H])([H])C3(C([H])([H])[H])C21C([H])([H])[H]

$$$$
107:0:1
     RDKit          3D

 96104  0  0  1  0  0  0  0  0999 V2000
   -0.0512   -6.7370    1.5090 C   0  0  0  0  0  0  0  0  0  0  0  0
    0.7499   -6.1977    2.7153 C   0  0  2  0  0  0  0  0  0  0  0  0
    2.1548   -5.7500    2.2759 C   0  0  0  0  0  0  0  0  0  0  0  0
    2.8787   -4.9978    3.4005 C   0  0  0  0  0  0  0  0  0  0  0  0
    3.0186   -5.7883    4.7007 C   0  0  2  0  0  0  0  0  0  0  0  0
    4.2824   -6.6518    4.4976 C   0  0  0  0  0  0  0  0  0  0  0  0
    1.7489   -6.5734    5.0760 C   0  0  2  0  0  0  0  0  0  0  0  0
    0.7948   -7.1315    3.9675 C   0  0  0  0  0  0  0  0  0  0  0  0
   -0.6293   -7.3370    4.5293 C   0  0  0  0  0  0  0  0  0  0  0  0
    1.3109   -8.5285    3.5349 C   0  0  0  0  0  0  0  0  0  0  0  0
    1.3997   -5.4954    6.1427 C   0  0  2  0  0  0  0  0  0  0  0  0
    0.9131   -6.0900    7.4831 C   0  0  0  0  0  0  0  0  0  0  0  0
    0.3942   -4.3848    5.8175 C   0  0  0  0  0  0  0  0  0  0  0  0
    0.7195   -3.0676    6.5386 C   0  0  0  0  0  0  0  0  0  0  0  0
    2.0215   -2.4115    6.0124 C   0  0  2  0  0  0  0  0  0  0  0  0
    1.8586   -2.1993    4.6048 O   0  0  0  0  0  0  0  0  0  0  0  0
    2.2506   -1.0689    3.8371 C   0  0  1  0  0  0  0  0  0  0  0  0
    2.7660   -1.6947    2.5194 C   0  0  0  0  0  0  0  0  0  0  0  0
    1.1112   -0.3916    3.3335 O   0  0  0  0  0  0  0  0  0  0  0  0
    0.0686    0.1763    4.1332 C   0  0  2  0  0  0  0  0  0  0  0  0
   -1.0257   -0.8718    4.4493 C   0  0  0  0  0  0  0  0  0  0  0  0
   -0.5782    1.3234    3.2867 C   0  0  0  0  0  0  0  0  0  0  0  0
   -1.3323    1.0778    2.3561 O   0  0  0  0  0  0  0  0  0  0  0  0
   -0.2333    2.8310    3.5982 C   0  0  1  0  0  0  0  0  0  0  0  0
   -1.3967    3.4804    4.0540 O   0  0  0  0  0  0  0  0  0  0  0  0
    0.8453    3.0151    4.4989 O   0  0  0  0  0  0  0  0  0  0  0  0
    1.6535    1.8858    4.8425 C   0  0  1  0  0  0  0  0  0  0  0  0
    2.3768    2.0132    3.4215 C   0  0  1  0  0  0  0  0  0  0  0  0
    3.0167    3.2326    3.1365 O   0  0  0  0  0  0  0  0  0  0  0  0
    3.0490    1.3969    4.5343 C   0  0  2  0  0  0  0  0  0  0  0  0
    3.3858   -0.1045    4.5293 C   0  0  2  0  0  0  0  0  0  0  0  0
    4.7285   -0.0997    3.7274 C   0  0  0  0  0  0  0  0  0  0  0  0
    3.6271   -0.5347    6.0101 C   0  0  2  0  0  0  0  0  0  0  0  0
    4.8056   -1.5375    6.2218 C   0  0  0  0  0  0  0  0  0  0  0  0
    4.5178   -2.9600    5.7122 C   0  0  0  0  0  0  0  0  0  0  0  0
    3.1766   -3.4714    6.2642 C   0  0  2  0  0  0  0  0  0  0  0  0
    2.8966   -5.0330    6.0891 C   0  0  2  0  0  0  0  0  0  0  0  0
    3.7800   -5.6862    7.1896 C   0  0  0  0  0  0  0  0  0  0  0  0
    2.3170   -1.0184    6.6771 C   0  0  2  0  0  0  0  0  0  0  0  0
    2.5269   -1.1233    8.2246 C   0  0  0  0  0  0  0  0  0  0  0  0
    1.1490    0.0446    6.6081 C   0  0  0  0  0  0  0  0  0  0  0  0
    0.6886    0.8347    5.3483 C   0  0  2  0  0  0  0  0  0  0  0  0
    0.4317   -7.5971    1.0472 H   0  0  0  0  0  0  0  0  0  0  0  0
   -0.1296   -5.9908    0.7231 H   0  0  0  0  0  0  0  0  0  0  0  0
   -1.0611   -7.0273    1.7909 H   0  0  0  0  0  0  0  0  0  0  0  0
    0.2197   -5.3004    3.0113 H   0  0  0  0  0  0  0  0  0  0  0  0
    2.7472   -6.6055    1.9479 H   0  0  0  0  0  0  0  0  0  0  0  0
    2.0786   -5.0889    1.4113 H   0  0  0  0  0  0  0  0  0  0  0  0
    3.8459   -4.6339    3.0481 H   0  0  0  0  0  0  0  0  0  0  0  0
    2.2701   -4.1333    3.5795 H   0  0  0  0  0  0  0  0  0  0  0  0
    4.3701   -7.4442    5.2417 H   0  0  0  0  0  0  0  0  0  0  0  0
    5.1909   -6.0515    4.5620 H   0  0  0  0  0  0  0  0  0  0  0  0
    4.2964   -7.1647    3.5356 H   0  0  0  0  0  0  0  0  0  0  0  0
    2.0916   -7.4258    5.6641 H   0  0  0  0  0  0  0  0  0  0  0  0
   -0.5967   -7.8597    5.4844 H   0  0  0  0  0  0  0  0  0  0  0  0
   -1.2509   -7.9372    3.8628 H   0  0  0  0  0  0  0  0  0  0  0  0
   -1.1481   -6.3918    4.6779 H   0  0  0  0  0  0  0  0  0  0  0  0
    1.3562   -9.2231    4.3766 H   0  0  0  0  0  0  0  0  0  0  0  0
    2.3145   -8.4788    3.1149 H   0  0  0  0  0  0  0  0  0  0  0  0
    0.6734   -8.9971    2.7839 H   0  0  0  0  0  0  0  0  0  0  0  0
    1.0152   -5.3843    8.3075 H   0  0  0  0  0  0  0  0  0  0  0  0
    1.4785   -6.9771    7.7723 H   0  0  0  0  0  0  0  0  0  0  0  0
   -0.1293   -6.4110    7.4426 H   0  0  0  0  0  0  0  0  0  0  0  0
    0.3708   -4.1764    4.7554 H   0  0  0  0  0  0  0  0  0  0  0  0
   -0.6220   -4.6884    6.0729 H   0  0  0  0  0  0  0  0  0  0  0  0
   -0.1389   -2.4129    6.4505 H   0  0  0  0  0  0  0  0  0  0  0  0
    0.8094   -3.2632    7.6069 H   0  0  0  0  0  0  0  0  0  0  0  0
    1.9868   -2.3265    2.0882 H   0  0  0  0  0  0  0  0  0  0  0  0
    3.6471   -2.3165    2.6892 H   0  0  0  0  0  0  0  0  0  0  0  0
    3.0030   -0.9161    1.7857 H   0  0  0  0  0  0  0  0  0  0  0  0
   -1.5309   -0.6670    5.3901 H   0  0  0  0  0  0  0  0  0  0  0  0
   -0.6268   -1.8773    4.4634 H   0  0  0  0  0  0  0  0  0  0  0  0
   -1.8077   -0.8908    3.6972 H   0  0  0  0  0  0  0  0  0  0  0  0
    0.0427    3.3311    2.6658 H   0  0  0  0  0  0  0  0  0  0  0  0
   -2.0274    3.4059    3.3536 H   0  0  0  0  0  0  0  0  0  0  0  0
    2.2146    1.4230    2.5185 H   0  0  0  0  0  0  0  0  0  0  0  0
    3.7421    3.0174    2.5529 H   0  0  0  0  0  0  0  0  0  0  0  0
    3.8098    2.0089    5.0091 H   0  0  0  0  0  0  0  0  0  0  0  0
    5.4784    0.5183    4.2301 H   0  0  0  0  0  0  0  0  0  0  0  0
    4.6091    0.3355    2.7321 H   0  0  0  0  0  0  0  0  0  0  0  0
    5.1755   -1.0860    3.6045 H   0  0  0  0  0  0  0  0  0  0  0  0
    3.9420    0.3538    6.5553 H   0  0  0  0  0  0  0  0  0  0  0  0
    5.7370   -1.1646    5.8022 H   0  0  0  0  0  0  0  0  0  0  0  0
    5.0411   -1.5967    7.2816 H   0  0  0  0  0  0  0  0  0  0  0  0
    4.5014   -2.9776    4.6281 H   0  0  0  0  0  0  0  0  0  0  0  0
    5.3375   -3.6140    6.0083 H   0  0  0  0  0  0  0  0  0  0  0  0
    3.3244   -3.3949    7.3326 H   0  0  0  0  0  0  0  0  0  0  0  0
    3.5391   -5.3298    8.1907 H   0  0  0  0  0  0  0  0  0  0  0  0
    4.8415   -5.5023    7.0304 H   0  0  0  0  0  0  0  0  0  0  0  0
    3.6687   -6.7708    7.2348 H   0  0  0  0  0  0  0  0  0  0  0  0
    2.7690   -0.1512    8.6658 H   0  0  0  0  0  0  0  0  0  0  0  0
    3.3386   -1.7704    8.5546 H   0  0  0  0  0  0  0  0  0  0  0  0
    1.6285   -1.4769    8.7365 H   0  0  0  0  0  0  0  0  0  0  0  0
    0.2544   -0.3980    7.0472 H   0  0  0  0  0  0  0  0  0  0  0  0
    1.3958    0.8402    7.3185 H   0  0  0  0  0  0  0  0  0  0  0  0
   -0.1229    1.4075    5.8024 H   0  0  0  0  0  0  0  0  0  0  0  0
  1  2  1  0
  1 43  1  0
  1 44  1  0
  1 45  1  0
  2  8  1  0
  2  3  1  0
  2 46  1  1
  3  4  1  0
  3 47  1  0
  3 48  1  0
  4  5  1  0
  4 49  1  0
  4 50  1  0
  5 37  1  0
  5  6  1  6
  5  7  1  0
  6 51  1  0
  6 52  1  0
  6 53  1  0
  7  8  1  0
  7 11  1  0
  7 54  1  1
  8  9  1  0
  8 10  1  0
  9 55  1  0
  9 56  1  0
  9 57  1  0
 10 58  1  0
 10 59  1  0
 10 60  1  0
 11 37  1  0
 11 12  1  1
 11 13  1  0
 12 61  1  0
 12 62  1  0
 12 63  1  0
 13 14  1  0
 13 64  1  0
 13 65  1  0
 14 15  1  0
 14 66  1  0
 14 67  1  0
 15 36  1  0
 15 39  1  0
 15 16  1  6
 16 17  1  0
 17 31  1  0
 17 18  1  6
 17 19  1  0
 18 68  1  0
 18 69  1  0
 18 70  1  0
 19 20  1  0
 20 42  1  0
 20 21  1  1
 20 22  1  0
 21 71  1  0
 21 72  1  0
 21 73  1  0
 22 23  2  0
 22 24  1  0
 24 25  1  0
 24 26  1  0
 24 74  1  6
 25 75  1  0
 27 26  1  6
 27 30  1  0
 27 42  1  0
 27 28  1  0
 28 29  1  0
 28 30  1  0
 28 76  1  6
 29 77  1  0
 30 31  1  0
 30 78  1  1
 31 32  1  6
 31 33  1  0
 32 79  1  0
 32 80  1  0
 32 81  1  0
 33 34  1  0
 33 39  1  0
 33 82  1  1
 34 35  1  0
 34 83  1  0
 34 84  1  0
 35 36  1  0
 35 85  1  0
 35 86  1  0
 36 37  1  0
 36 87  1  1
 37 38  1  1
 38 88  1  0
 38 89  1  0
 38 90  1  0
 39 40  1  1
 39 41  1  0
 40 91  1  0
 40 92  1  0
 40 93  1  0
 41 42  1  0
 41 94  1  0
 41 95  1  0
 42 96  1  1
M  END
>  <i_m_ct_stereo_status>  (444) 
1

>  <s_m_source_file>  (444) 
/var/tmp/pbs.5076255.sched01/tmp9yj1qf5s/135tauqa2n_.sdf

>  <i_m_source_file_index>  (444) 
35

>  <i_lp_mmshare_version>  (444) 
48012

>  <i_f3d_flags>  (444) 
0

>  <s_epik_input>  (444) 
W0NIMl0xW0NIMl1bQ0BASF0oW0NIM10pQyhbQ0gzXSkoW0NIM10pW0NASF0oW0NAXTIoW0NIM10pW0NIMl1bQ0gyXTMpW0NAXTEoW0NIM10pW0NAQF0yKFtDSDNdKVtDQEhdKFtDQF0zNDUpW0NIMl1bQ0gyXVtDQEhdNltDQEBdNyhbQ0gzXSlbQ0BdKE80KShbQ0gzXSlPW0NAQF04KFtDSDNdKVtDQEBIXShbQ0gyXVtDQEBdNTZbQ0gzXSlbQ0BAXTkoT1tDQEBIXShDOD1PKVtPSF0pW0NAQEhdN1tDQEBIXTlbT0hd

>  <s_epik_cmdline>  (444) 
J2VwaWtfcHl0aG9uJywgJy1waHQnLCAnMi4wJywgJy1waCcsICc3LjAnLCAnLXRuJywgJzgnLCAnLW1hJywgJzIwMCcsICctaW1hZScsICc8aW5maWxlLm1hZT4nLCAnLW9tYWUnLCAnPG91dGZpbGUubWFlPic=

>  <r_lp_tautomer_probability>  (444) 
1

>  <r_epik_Ionization_Penalty>  (444) 
1.30014e-05

>  <r_epik_Ionization_Penalty_Charging>  (444) 
0

>  <r_epik_Ionization_Penalty_Neutral>  (444) 
1.30014e-05

>  <r_epik_State_Penalty>  (444) 
-0

>  <r_epik_Charging_Adjusted_Penalty>  (444) 
0

>  <i_epik_Tot_Q>  (444) 
0

>  <i_epik_Tot_abs_Q>  (444) 
0

>  <s_epik_Chemistry_Notes>  (444) 
This compound contains an acetal/aminal-like group ( X-CH(R)-Y where X, Y are N, S, or O) that may be acid/base labile, releasing an aldehyde.

>  <s_lp_Force_Field>  (444) 
OPLS3e

>  <r_lp_Energy>  (444) 
209.997

>  <b_lp_Chiralities_Consistent>  (444) 
1

>  <s_lp_Variant>  (444) 
107:0-1

>  <s_i_glide_gridfile>  (444) 
pfpi4k_grid

>  <i_i_glide_lignum>  (444) 
35

>  <i_i_glide_rotatable_bonds>  (444) 
2

>  <r_i_docking_score>  (444) 
-1.66672

>  <r_i_glide_ligand_efficiency>  (444) 
-0.0396837

>  <r_i_glide_ligand_efficiency_sa>  (444) 
-0.137942

>  <r_i_glide_ligand_efficiency_ln>  (444) 
-0.351801

>  <r_i_glide_gscore>  (444) 
-1.66672

>  <r_i_glide_lipo>  (444) 
-0.0775849

>  <r_i_glide_hbond>  (444) 
0

>  <r_i_glide_metal>  (444) 
-0

>  <r_i_glide_rewards>  (444) 
0

>  <r_i_glide_evdw>  (444) 
-23.3972

>  <r_i_glide_ecoul>  (444) 
-2.14126

>  <r_i_glide_erotb>  (444) 
0

>  <r_i_glide_esite>  (444) 
-0.0980821

>  <r_i_glide_emodel>  (444) 
-25.7302

>  <r_i_glide_energy>  (444) 
-25.5385

>  <r_i_glide_einternal>  (444) 
3.31684

>  <r_i_glide_intrahb_reward>  (444) 
-0

>  <i_i_glide_confnum>  (444) 
2

>  <i_i_glide_posenum>  (444) 
38

>  <r_i_glide_eff_state_penalty>  (444) 
0

>  <ligand_id>  (444) 
107

>  <original_smiles>  (444) 
CC1CCC2(C)C(C1(C)C)C1(C)CCC34OC5(C)OC6(C)C(=O)C(O)OC78C(O)C7C5(C)C(CCC3C21C)C4(C)CC68

>  <smiles>  (444) 
[H]OC1([H])OC23C([H])(O[H])C2([H])C2(C([H])([H])[H])C4(C([H])([H])[H])OC(C([H])([H])[H])(C1=O)C3([H])C([H])([H])C1(C([H])([H])[H])C2([H])C([H])([H])C([H])([H])C2([H])C1(O4)C([H])([H])C([H])([H])C1(C([H])([H])[H])C3([H])C(C([H])([H])[H])(C([H])([H])[H])C([H])(C([H])([H])[H])C([H])([H])C([H])([H])C3(C([H])([H])[H])C21C([H])([H])[H]

$$$$
107:0:2
     RDKit          3D

 96104  0  0  1  0  0  0  0  0999 V2000
   -1.8727   -7.2691    2.8807 C   0  0  0  0  0  0  0  0  0  0  0  0
   -0.3493   -7.4372    3.0029 C   0  0  2  0  0  0  0  0  0  0  0  0
    0.3122   -7.3832    1.6179 C   0  0  0  0  0  0  0  0  0  0  0  0
    1.8422   -7.4286    1.7332 C   0  0  0  0  0  0  0  0  0  0  0  0
    2.4263   -8.6084    2.5051 C   0  0  2  0  0  0  0  0  0  0  0  0
    2.5595   -9.7535    1.4974 C   0  0  0  0  0  0  0  0  0  0  0  0
    1.6268   -8.9582    3.7619 C   0  0  2  0  0  0  0  0  0  0  0  0
    0.0939   -8.6996    3.8112 C   0  0  0  0  0  0  0  0  0  0  0  0
   -0.3896   -8.5834    5.2660 C   0  0  0  0  0  0  0  0  0  0  0  0
   -0.6001   -9.9337    3.2091 C   0  0  0  0  0  0  0  0  0  0  0  0
    2.7032   -8.2647    4.6367 C   0  0  2  0  0  0  0  0  0  0  0  0
    3.0599   -9.0531    5.9107 C   0  0  0  0  0  0  0  0  0  0  0  0
    2.4927   -6.8296    5.1080 C   0  0  0  0  0  0  0  0  0  0  0  0
    3.8126   -6.0643    5.2038 C   0  0  0  0  0  0  0  0  0  0  0  0
    4.4603   -5.8084    3.8226 C   0  0  2  0  0  0  0  0  0  0  0  0
    3.5110   -5.0716    3.0306 O   0  0  0  0  0  0  0  0  0  0  0  0
    3.7457   -3.9961    2.1423 C   0  0  1  0  0  0  0  0  0  0  0  0
    2.8141   -4.2778    0.9520 C   0  0  0  0  0  0  0  0  0  0  0  0
    3.1476   -2.8048    2.6239 O   0  0  0  0  0  0  0  0  0  0  0  0
    3.4162   -2.2041    3.8945 C   0  0  2  0  0  0  0  0  0  0  0  0
    2.5315   -2.8094    5.0040 C   0  0  0  0  0  0  0  0  0  0  0  0
    3.0550   -0.6970    3.7635 C   0  0  0  0  0  0  0  0  0  0  0  0
    1.8838   -0.3401    3.7671 O   0  0  0  0  0  0  0  0  0  0  0  0
    4.1857    0.3776    3.5692 C   0  0  1  0  0  0  0  0  0  0  0  0
    4.2625    1.1944    4.7089 O   0  0  0  0  0  0  0  0  0  0  0  0
    5.4671   -0.1578    3.2601 O   0  0  0  0  0  0  0  0  0  0  0  0
    5.6033   -1.5570    3.0077 C   0  0  1  0  0  0  0  0  0  0  0  0
    5.0819   -1.2321    1.5169 C   0  0  1  0  0  0  0  0  0  0  0  0
    5.9096   -0.4370    0.6783 O   0  0  0  0  0  0  0  0  0  0  0  0
    5.8516   -2.4114    1.7916 C   0  0  2  0  0  0  0  0  0  0  0  0
    5.2816   -3.8256    1.6357 C   0  0  2  0  0  0  0  0  0  0  0  0
    5.4421   -4.0457    0.1021 C   0  0  0  0  0  0  0  0  0  0  0  0
    6.1984   -4.8045    2.4288 C   0  0  2  0  0  0  0  0  0  0  0  0
    6.4863   -6.1756    1.7474 C   0  0  0  0  0  0  0  0  0  0  0  0
    5.2869   -7.1271    1.7610 C   0  0  0  0  0  0  0  0  0  0  0  0
    4.7258   -7.2407    3.1876 C   0  0  2  0  0  0  0  0  0  0  0  0
    3.6816   -8.4044    3.4271 C   0  0  2  0  0  0  0  0  0  0  0  0
    4.5752   -9.6765    3.4992 C   0  0  0  0  0  0  0  0  0  0  0  0
    5.7606   -4.9352    3.9146 C   0  0  2  0  0  0  0  0  0  0  0  0
    6.8806   -5.6370    4.7572 C   0  0  0  0  0  0  0  0  0  0  0  0
    5.5802   -3.5776    4.7143 C   0  0  0  0  0  0  0  0  0  0  0  0
    4.9175   -2.2707    4.1622 C   0  0  2  0  0  0  0  0  0  0  0  0
   -2.3577   -8.0534    2.2968 H   0  0  0  0  0  0  0  0  0  0  0  0
   -2.0887   -6.3602    2.3344 H   0  0  0  0  0  0  0  0  0  0  0  0
   -2.3571   -7.1985    3.8535 H   0  0  0  0  0  0  0  0  0  0  0  0
   -0.0283   -6.5663    3.5609 H   0  0  0  0  0  0  0  0  0  0  0  0
   -0.0708   -8.1929    1.0177 H   0  0  0  0  0  0  0  0  0  0  0  0
    0.0170   -6.4642    1.1002 H   0  0  0  0  0  0  0  0  0  0  0  0
    2.3164   -7.3460    0.7653 H   0  0  0  0  0  0  0  0  0  0  0  0
    2.0885   -6.5373    2.2549 H   0  0  0  0  0  0  0  0  0  0  0  0
    2.6984  -10.7174    1.9841 H   0  0  0  0  0  0  0  0  0  0  0  0
    3.3784   -9.6022    0.7918 H   0  0  0  0  0  0  0  0  0  0  0  0
    1.6655   -9.8557    0.9140 H   0  0  0  0  0  0  0  0  0  0  0  0
    1.7913  -10.0206    3.9368 H   0  0  0  0  0  0  0  0  0  0  0  0
    0.0257   -9.3648    5.9090 H   0  0  0  0  0  0  0  0  0  0  0  0
   -1.4742   -8.6902    5.3092 H   0  0  0  0  0  0  0  0  0  0  0  0
   -0.1325   -7.6176    5.6980 H   0  0  0  0  0  0  0  0  0  0  0  0
   -0.3306  -10.8242    3.7743 H   0  0  0  0  0  0  0  0  0  0  0  0
   -0.3339  -10.1252    2.1728 H   0  0  0  0  0  0  0  0  0  0  0  0
   -1.6866   -9.8501    3.2537 H   0  0  0  0  0  0  0  0  0  0  0  0
    4.0348   -8.7558    6.2987 H   0  0  0  0  0  0  0  0  0  0  0  0
    3.1065  -10.1247    5.7297 H   0  0  0  0  0  0  0  0  0  0  0  0
    2.3227   -8.9198    6.7039 H   0  0  0  0  0  0  0  0  0  0  0  0
    1.8461   -6.2923    4.4290 H   0  0  0  0  0  0  0  0  0  0  0  0
    1.9905   -6.8061    6.0764 H   0  0  0  0  0  0  0  0  0  0  0  0
    3.6129   -5.1494    5.7478 H   0  0  0  0  0  0  0  0  0  0  0  0
    4.5019   -6.6187    5.8384 H   0  0  0  0  0  0  0  0  0  0  0  0
    1.8074   -4.4007    1.3586 H   0  0  0  0  0  0  0  0  0  0  0  0
    3.0967   -5.1984    0.4377 H   0  0  0  0  0  0  0  0  0  0  0  0
    2.8112   -3.4362    0.2454 H   0  0  0  0  0  0  0  0  0  0  0  0
    3.0229   -2.7490    5.9766 H   0  0  0  0  0  0  0  0  0  0  0  0
    2.2684   -3.8360    4.7950 H   0  0  0  0  0  0  0  0  0  0  0  0
    1.5864   -2.2954    5.1194 H   0  0  0  0  0  0  0  0  0  0  0  0
    3.8813    1.0426    2.7524 H   0  0  0  0  0  0  0  0  0  0  0  0
    4.7983    1.9349    4.4710 H   0  0  0  0  0  0  0  0  0  0  0  0
    4.0697   -1.3415    1.1274 H   0  0  0  0  0  0  0  0  0  0  0  0
    6.5623   -0.0358    1.2368 H   0  0  0  0  0  0  0  0  0  0  0  0
    6.8660   -2.3483    1.4275 H   0  0  0  0  0  0  0  0  0  0  0  0
    6.4968   -3.9582   -0.1852 H   0  0  0  0  0  0  0  0  0  0  0  0
    4.9185   -3.2803   -0.4784 H   0  0  0  0  0  0  0  0  0  0  0  0
    5.1122   -5.0226   -0.2460 H   0  0  0  0  0  0  0  0  0  0  0  0
    7.1809   -4.3690    2.3809 H   0  0  0  0  0  0  0  0  0  0  0  0
    6.8754   -6.0512    0.7419 H   0  0  0  0  0  0  0  0  0  0  0  0
    7.3148   -6.6527    2.2587 H   0  0  0  0  0  0  0  0  0  0  0  0
    4.5225   -6.7485    1.0982 H   0  0  0  0  0  0  0  0  0  0  0  0
    5.5869   -8.0999    1.3603 H   0  0  0  0  0  0  0  0  0  0  0  0
    5.5814   -7.5968    3.7463 H   0  0  0  0  0  0  0  0  0  0  0  0
    5.3196   -9.6173    4.2921 H   0  0  0  0  0  0  0  0  0  0  0  0
    5.1057   -9.8537    2.5640 H   0  0  0  0  0  0  0  0  0  0  0  0
    4.0076  -10.5851    3.6994 H   0  0  0  0  0  0  0  0  0  0  0  0
    7.8013   -5.0667    4.8028 H   0  0  0  0  0  0  0  0  0  0  0  0
    7.2115   -6.6022    4.3937 H   0  0  0  0  0  0  0  0  0  0  0  0
    6.5747   -5.7678    5.7974 H   0  0  0  0  0  0  0  0  0  0  0  0
    5.1460   -3.7878    5.6773 H   0  0  0  0  0  0  0  0  0  0  0  0
    6.5848   -3.2565    5.0678 H   0  0  0  0  0  0  0  0  0  0  0  0
    5.0799   -1.6248    5.0275 H   0  0  0  0  0  0  0  0  0  0  0  0
  1  2  1  0
  1 43  1  0
  1 44  1  0
  1 45  1  0
  2  8  1  0
  2  3  1  0
  2 46  1  1
  3  4  1  0
  3 47  1  0
  3 48  1  0
  4  5  1  0
  4 49  1  0
  4 50  1  0
  5 37  1  0
  5  6  1  6
  5  7  1  0
  6 51  1  0
  6 52  1  0
  6 53  1  0
  7  8  1  0
  7 11  1  0
  7 54  1  1
  8  9  1  0
  8 10  1  0
  9 55  1  0
  9 56  1  0
  9 57  1  0
 10 58  1  0
 10 59  1  0
 10 60  1  0
 11 37  1  0
 11 12  1  1
 11 13  1  0
 12 61  1  0
 12 62  1  0
 12 63  1  0
 13 14  1  0
 13 64  1  0
 13 65  1  0
 14 15  1  0
 14 66  1  0
 14 67  1  0
 15 36  1  0
 15 39  1  0
 15 16  1  6
 16 17  1  0
 17 31  1  0
 17 18  1  6
 17 19  1  0
 18 68  1  0
 18 69  1  0
 18 70  1  0
 19 20  1  0
 20 42  1  0
 20 21  1  1
 20 22  1  0
 21 71  1  0
 21 72  1  0
 21 73  1  0
 22 23  2  0
 22 24  1  0
 24 25  1  0
 24 26  1  0
 24 74  1  6
 25 75  1  0
 27 26  1  6
 27 30  1  0
 27 42  1  0
 27 28  1  0
 28 29  1  0
 28 30  1  0
 28 76  1  1
 29 77  1  0
 30 31  1  0
 30 78  1  6
 31 32  1  6
 31 33  1  0
 32 79  1  0
 32 80  1  0
 32 81  1  0
 33 34  1  0
 33 39  1  0
 33 82  1  1
 34 35  1  0
 34 83  1  0
 34 84  1  0
 35 36  1  0
 35 85  1  0
 35 86  1  0
 36 37  1  0
 36 87  1  1
 37 38  1  1
 38 88  1  0
 38 89  1  0
 38 90  1  0
 39 40  1  1
 39 41  1  0
 40 91  1  0
 40 92  1  0
 40 93  1  0
 41 42  1  0
 41 94  1  0
 41 95  1  0
 42 96  1  1
M  END
>  <i_m_ct_stereo_status>  (445) 
1

>  <s_m_source_file>  (445) 
/var/tmp/pbs.5076255.sched01/tmp9yj1qf5s/135tauqa2n_.sdf

>  <i_m_source_file_index>  (445) 
35

>  <i_lp_mmshare_version>  (445) 
48012

>  <i_f3d_flags>  (445) 
0

>  <s_epik_input>  (445) 
W0NIMl0xW0NIMl1bQ0BASF0oW0NIM10pQyhbQ0gzXSkoW0NIM10pW0NASF0oW0NAXTIoW0NIM10pW0NIMl1bQ0gyXTMpW0NAXTEoW0NIM10pW0NAQF0yKFtDSDNdKVtDQEhdKFtDQF0zNDUpW0NIMl1bQ0gyXVtDQEhdNltDQEBdNyhbQ0gzXSlbQ0BdKE80KShbQ0gzXSlPW0NAQF04KFtDSDNdKVtDQEBIXShbQ0gyXVtDQEBdNTZbQ0gzXSlbQ0BAXTkoT1tDQEBIXShDOD1PKVtPSF0pW0NAQEhdN1tDQEBIXTlbT0hd

>  <s_epik_cmdline>  (445) 
J2VwaWtfcHl0aG9uJywgJy1waHQnLCAnMi4wJywgJy1waCcsICc3LjAnLCAnLXRuJywgJzgnLCAnLW1hJywgJzIwMCcsICctaW1hZScsICc8aW5maWxlLm1hZT4nLCAnLW9tYWUnLCAnPG91dGZpbGUubWFlPic=

>  <r_lp_tautomer_probability>  (445) 
1

>  <r_epik_Ionization_Penalty>  (445) 
1.30014e-05

>  <r_epik_Ionization_Penalty_Charging>  (445) 
0

>  <r_epik_Ionization_Penalty_Neutral>  (445) 
1.30014e-05

>  <r_epik_State_Penalty>  (445) 
-0

>  <r_epik_Charging_Adjusted_Penalty>  (445) 
0

>  <i_epik_Tot_Q>  (445) 
0

>  <i_epik_Tot_abs_Q>  (445) 
0

>  <s_epik_Chemistry_Notes>  (445) 
This compound contains an acetal/aminal-like group ( X-CH(R)-Y where X, Y are N, S, or O) that may be acid/base labile, releasing an aldehyde.

>  <s_lp_Force_Field>  (445) 
OPLS3e

>  <r_lp_Energy>  (445) 
209.997

>  <b_lp_Chiralities_Consistent>  (445) 
1

>  <s_lp_Variant>  (445) 
107:0-1

>  <s_i_glide_gridfile>  (445) 
pfpi4k_grid

>  <i_i_glide_lignum>  (445) 
35

>  <i_i_glide_rotatable_bonds>  (445) 
2

>  <r_i_docking_score>  (445) 
-1.65915

>  <r_i_glide_ligand_efficiency>  (445) 
-0.0395037

>  <r_i_glide_ligand_efficiency_sa>  (445) 
-0.137316

>  <r_i_glide_ligand_efficiency_ln>  (445) 
-0.350205

>  <r_i_glide_gscore>  (445) 
-1.65915

>  <r_i_glide_lipo>  (445) 
-0.546669

>  <r_i_glide_hbond>  (445) 
-0.0134488

>  <r_i_glide_metal>  (445) 
-0

>  <r_i_glide_rewards>  (445) 
-0.00361359

>  <r_i_glide_evdw>  (445) 
-18.616

>  <r_i_glide_ecoul>  (445) 
-1.07468

>  <r_i_glide_erotb>  (445) 
0

>  <r_i_glide_esite>  (445) 
-0.00341999

>  <r_i_glide_emodel>  (445) 
-21.4311

>  <r_i_glide_energy>  (445) 
-19.6907

>  <r_i_glide_einternal>  (445) 
0.123977

>  <r_i_glide_intrahb_reward>  (445) 
-0

>  <i_i_glide_confnum>  (445) 
1

>  <i_i_glide_posenum>  (445) 
1

>  <r_i_glide_eff_state_penalty>  (445) 
0

>  <ligand_id>  (445) 
107

>  <original_smiles>  (445) 
CC1CCC2(C)C(C1(C)C)C1(C)CCC34OC5(C)OC6(C)C(=O)C(O)OC78C(O)C7C5(C)C(CCC3C21C)C4(C)CC68

>  <smiles>  (445) 
[H]OC1([H])OC23C([H])(O[H])C2([H])C2(C([H])([H])[H])C4(C([H])([H])[H])OC(C([H])([H])[H])(C1=O)C3([H])C([H])([H])C1(C([H])([H])[H])C2([H])C([H])([H])C([H])([H])C2([H])C1(O4)C([H])([H])C([H])([H])C1(C([H])([H])[H])C3([H])C(C([H])([H])[H])(C([H])([H])[H])C([H])(C([H])([H])[H])C([H])([H])C([H])([H])C3(C([H])([H])[H])C21C([H])([H])[H]

$$$$
108:0:0
     RDKit          3D

 69 73  0  0  1  0  0  0  0  0999 V2000
    5.4525   -8.6139    4.5399 C   0  0  0  0  0  0  0  0  0  0  0  0
    4.6416   -7.8131    3.8593 C   0  0  0  0  0  0  0  0  0  0  0  0
    3.9473   -8.3623    2.7209 C   0  0  0  0  0  0  0  0  0  0  0  0
    2.8839   -9.1364    2.7464 C   0  0  0  0  0  0  0  0  0  0  0  0
    2.5640   -9.0575    1.2545 C   0  0  0  0  0  0  0  0  0  0  0  0
    3.4771   -7.7911    1.3281 C   0  0  1  0  0  0  0  0  0  0  0  0
    2.9786   -6.2946    1.2935 C   0  0  0  0  0  0  0  0  0  0  0  0
    2.2142   -5.7983    0.4864 O   0  0  0  0  0  0  0  0  0  0  0  0
    3.6999   -5.4145    2.3240 C   0  0  1  0  0  0  0  0  0  0  0  0
    5.2305   -5.5032    1.6365 C   0  0  1  0  0  0  0  0  0  0  0  0
    5.9496   -6.7120    1.4158 O   0  0  0  0  0  0  0  0  0  0  0  0
    5.4050   -4.7247    0.3101 C   0  0  0  0  0  0  0  0  0  0  0  0
    5.2931   -3.2274    0.5855 C   0  0  0  0  0  0  0  0  0  0  0  0
    3.9918   -2.8843    1.3229 C   0  0  0  0  0  0  0  0  0  0  0  0
    4.0979   -1.4191    1.8079 C   0  0  0  0  0  0  0  0  0  0  0  0
    2.8114   -2.9413    0.3143 C   0  0  0  0  0  0  0  0  0  0  0  0
    3.7687   -3.8505    2.5569 C   0  0  2  0  0  0  0  0  0  0  0  0
    4.8377   -3.7029    3.7934 C   0  0  1  0  0  0  0  0  0  0  0  0
    4.3844   -2.6615    4.6417 O   0  0  0  0  0  0  0  0  0  0  0  0
    5.2468   -5.0437    4.6640 C   0  0  1  0  0  0  0  0  0  0  0  0
    5.2201   -4.8069    6.0578 O   0  0  0  0  0  0  0  0  0  0  0  0
    4.3566   -6.3692    4.4007 C   0  0  2  0  0  0  0  0  0  0  0  0
    3.0516   -5.9231    3.7909 C   0  0  1  0  0  0  0  0  0  0  0  0
    2.5792   -4.8767    4.6616 O   0  0  0  0  0  0  0  0  0  0  0  0
    1.6616   -6.8345    4.1141 C   0  0  1  0  0  0  0  0  0  0  0  0
    0.3654   -6.6095    3.2106 C   0  0  0  0  0  0  0  0  0  0  0  0
   -0.9766   -6.8102    3.9395 C   0  0  0  0  0  0  0  0  0  0  0  0
    0.1645   -7.4974    1.9925 C   0  0  0  0  0  0  0  0  0  0  0  0
    1.8146   -8.2501    4.8529 C   0  0  1  0  0  0  0  0  0  0  0  0
    0.8496   -8.5634    6.0395 C   0  0  0  0  0  0  0  0  0  0  0  0
    1.9464   -9.4757    3.9103 C   0  0  0  0  0  0  0  0  0  0  0  0
    6.0124   -8.2474    5.3968 H   0  0  0  0  0  0  0  0  0  0  0  0
    5.6767   -9.6234    4.2106 H   0  0  0  0  0  0  0  0  0  0  0  0
    2.9543   -9.8621    0.6674 H   0  0  0  0  0  0  0  0  0  0  0  0
    1.5832   -8.9414    0.8728 H   0  0  0  0  0  0  0  0  0  0  0  0
    4.1573   -7.9318    0.4862 H   0  0  0  0  0  0  0  0  0  0  0  0
    5.9988   -5.0719    2.2643 H   0  0  0  0  0  0  0  0  0  0  0  0
    6.8643   -6.5150    1.2872 H   0  0  0  0  0  0  0  0  0  0  0  0
    6.3943   -4.9050   -0.1132 H   0  0  0  0  0  0  0  0  0  0  0  0
    4.7069   -5.0495   -0.4613 H   0  0  0  0  0  0  0  0  0  0  0  0
    6.1504   -2.9281    1.1901 H   0  0  0  0  0  0  0  0  0  0  0  0
    5.3788   -2.6579   -0.3407 H   0  0  0  0  0  0  0  0  0  0  0  0
    3.2329   -1.1217    2.3985 H   0  0  0  0  0  0  0  0  0  0  0  0
    4.1745   -0.7218    0.9748 H   0  0  0  0  0  0  0  0  0  0  0  0
    4.9865   -1.2563    2.4172 H   0  0  0  0  0  0  0  0  0  0  0  0
    1.8443   -3.0205    0.8063 H   0  0  0  0  0  0  0  0  0  0  0  0
    2.8963   -3.7577   -0.3941 H   0  0  0  0  0  0  0  0  0  0  0  0
    2.7734   -2.0762   -0.3390 H   0  0  0  0  0  0  0  0  0  0  0  0
    2.7935   -3.4932    2.8822 H   0  0  0  0  0  0  0  0  0  0  0  0
    5.7710   -3.2935    3.4075 H   0  0  0  0  0  0  0  0  0  0  0  0
    4.3057   -1.8687    4.1297 H   0  0  0  0  0  0  0  0  0  0  0  0
    6.3207   -5.2030    4.5281 H   0  0  0  0  0  0  0  0  0  0  0  0
    5.5525   -5.5712    6.5055 H   0  0  0  0  0  0  0  0  0  0  0  0
    5.1633   -6.4304    3.7114 H   0  0  0  0  0  0  0  0  0  0  0  0
    3.2731   -4.2430    4.8230 H   0  0  0  0  0  0  0  0  0  0  0  0
    1.2103   -6.3924    5.0128 H   0  0  0  0  0  0  0  0  0  0  0  0
    0.4141   -5.5823    2.8437 H   0  0  0  0  0  0  0  0  0  0  0  0
   -1.0889   -7.8500    4.2404 H   0  0  0  0  0  0  0  0  0  0  0  0
   -1.8036   -6.6464    3.2478 H   0  0  0  0  0  0  0  0  0  0  0  0
   -1.0921   -6.1543    4.8040 H   0  0  0  0  0  0  0  0  0  0  0  0
    0.2026   -8.5642    2.2567 H   0  0  0  0  0  0  0  0  0  0  0  0
    0.8746   -7.2686    1.2759 H   0  0  0  0  0  0  0  0  0  0  0  0
   -0.7287   -7.3247    1.3948 H   0  0  0  0  0  0  0  0  0  0  0  0
    2.7438   -8.2018    5.4139 H   0  0  0  0  0  0  0  0  0  0  0  0
   -0.1626   -8.8218    5.7455 H   0  0  0  0  0  0  0  0  0  0  0  0
    0.7936   -7.7430    6.7584 H   0  0  0  0  0  0  0  0  0  0  0  0
    1.1995   -9.4362    6.5960 H   0  0  0  0  0  0  0  0  0  0  0  0
    0.9685   -9.8256    3.6013 H   0  0  0  0  0  0  0  0  0  0  0  0
    2.3484  -10.3314    4.4549 H   0  0  0  0  0  0  0  0  0  0  0  0
  1  2  2  0
  1 32  1  0
  1 33  1  0
  2 22  1  0
  2  3  1  0
  3  6  1  0
  3  4  2  0
  4 31  1  0
  4  5  1  0
  5  6  1  0
  5 34  1  0
  5 35  1  0
  6  7  1  0
  6 36  1  6
  7  8  2  0
  9  7  1  6
  9 17  1  0
  9 23  1  0
  9 10  1  0
 10 11  1  0
 10 12  1  0
 10 37  1  1
 11 38  1  0
 12 13  1  0
 12 39  1  0
 12 40  1  0
 13 14  1  0
 13 41  1  0
 13 42  1  0
 14 15  1  0
 14 16  1  0
 14 17  1  0
 15 43  1  0
 15 44  1  0
 15 45  1  0
 16 46  1  0
 16 47  1  0
 16 48  1  0
 17 18  1  0
 17 49  1  1
 18 19  1  0
 18 20  1  0
 18 50  1  6
 19 51  1  0
 20 21  1  0
 20 22  1  0
 20 52  1  6
 21 53  1  0
 22 23  1  0
 22 54  1  1
 23 24  1  1
 23 25  1  0
 24 55  1  0
 25 26  1  0
 25 29  1  0
 25 56  1  1
 26 27  1  0
 26 28  1  0
 26 57  1  0
 27 58  1  0
 27 59  1  0
 27 60  1  0
 28 61  1  0
 28 62  1  0
 28 63  1  0
 29 30  1  0
 29 31  1  0
 29 64  1  1
 30 65  1  0
 30 66  1  0
 30 67  1  0
 31 68  1  0
 31 69  1  0
M  END
>  <i_m_ct_stereo_status>  (446) 
1

>  <s_m_source_file>  (446) 
/var/tmp/pbs.5076255.sched01/tmp9yj1qf5s/135tauqa2n_.sdf

>  <i_m_source_file_index>  (446) 
36

>  <i_lp_mmshare_version>  (446) 
48012

>  <i_f3d_flags>  (446) 
0

>  <s_epik_input>  (446) 
Tz1DMVtDQEhdKFtDSDJdMilDKEMzPVtDSDJdKT1DMltDSDJdW0NASF0oW0NIM10pW0NASF0oW0NIXShbQ0gzXSlbQ0gzXSlbQ0BAXTQoW09IXSlbQ0BIXTNbQ0BIXShbT0hdKVtDQEhdKFtPSF0pW0NASF0oW0NAXTE0NSlDKFtDSDNdKShbQ0gzXSlbQ0gyXVtDSDJdW0NAQEhdNVtPSF0=

>  <s_epik_cmdline>  (446) 
J2VwaWtfcHl0aG9uJywgJy1waHQnLCAnMi4wJywgJy1waCcsICc3LjAnLCAnLXRuJywgJzgnLCAnLW1hJywgJzIwMCcsICctaW1hZScsICc8aW5maWxlLm1hZT4nLCAnLW9tYWUnLCAnPG91dGZpbGUubWFlPic=

>  <r_lp_tautomer_probability>  (446) 
1

>  <r_epik_Ionization_Penalty>  (446) 
2.38645e-07

>  <r_epik_Ionization_Penalty_Charging>  (446) 
0

>  <r_epik_Ionization_Penalty_Neutral>  (446) 
2.38645e-07

>  <r_epik_State_Penalty>  (446) 
-0

>  <r_epik_Charging_Adjusted_Penalty>  (446) 
0

>  <i_epik_Tot_Q>  (446) 
0

>  <i_epik_Tot_abs_Q>  (446) 
0

>  <s_lp_Force_Field>  (446) 
OPLS3e

>  <r_lp_Energy>  (446) 
269.258

>  <b_lp_Chiralities_Consistent>  (446) 
1

>  <s_lp_Variant>  (446) 
108:0-1

>  <s_i_glide_gridfile>  (446) 
pfpi4k_grid

>  <i_i_glide_lignum>  (446) 
36

>  <i_i_glide_rotatable_bonds>  (446) 
5

>  <r_i_docking_score>  (446) 
-0.885884

>  <r_i_glide_ligand_efficiency>  (446) 
-0.0285769

>  <r_i_glide_ligand_efficiency_sa>  (446) 
-0.0897709

>  <r_i_glide_ligand_efficiency_ln>  (446) 
-0.199794

>  <r_i_glide_gscore>  (446) 
-0.885884

>  <r_i_glide_lipo>  (446) 
-0.203677

>  <r_i_glide_hbond>  (446) 
0

>  <r_i_glide_metal>  (446) 
-0

>  <r_i_glide_rewards>  (446) 
-0.505673

>  <r_i_glide_evdw>  (446) 
-21.7198

>  <r_i_glide_ecoul>  (446) 
-1.15105

>  <r_i_glide_erotb>  (446) 
0

>  <r_i_glide_esite>  (446) 
0

>  <r_i_glide_emodel>  (446) 
-15.2814

>  <r_i_glide_energy>  (446) 
-22.8709

>  <r_i_glide_einternal>  (446) 
4.78348

>  <r_i_glide_intrahb_reward>  (446) 
-0

>  <i_i_glide_confnum>  (446) 
1

>  <i_i_glide_posenum>  (446) 
1

>  <r_i_glide_eff_state_penalty>  (446) 
0

>  <ligand_id>  (446) 
108

>  <original_smiles>  (446) 
C=C1C2=C3CC2C(=O)C24C(O)CCC(C)(C)C2C(O)C(O)C1C4(O)C(C(C)C)C(C)C3

>  <smiles>  (446) 
[H]OC1([H])C([H])(O[H])C2([H])C3(C(=O)C4([H])C5=C(C4([H])[H])C([H])([H])C([H])(C([H])([H])[H])C([H])(C([H])(C([H])([H])[H])C([H])([H])[H])C3(O[H])C1([H])C5=C([H])[H])C([H])(O[H])C([H])([H])C([H])([H])C2(C([H])([H])[H])C([H])([H])[H]

$$$$
108:0:1
     RDKit          3D

 69 73  0  0  1  0  0  0  0  0999 V2000
    5.1946   -3.9754    5.1796 C   0  0  0  0  0  0  0  0  0  0  0  0
    4.8055   -4.2670    3.9109 C   0  0  0  0  0  0  0  0  0  0  0  0
    5.0040   -5.5679    3.4376 C   0  0  0  0  0  0  0  0  0  0  0  0
    4.2255   -6.6536    3.6943 C   0  0  0  0  0  0  0  0  0  0  0  0
    4.8524   -7.5511    2.6379 C   0  0  0  0  0  0  0  0  0  0  0  0
    5.3500   -6.2118    2.0246 C   0  0  1  0  0  0  0  0  0  0  0  0
    4.7848   -5.4815    0.7621 C   0  0  0  0  0  0  0  0  0  0  0  0
    4.6098   -5.9926   -0.3418 O   0  0  0  0  0  0  0  0  0  0  0  0
    4.5780   -3.9915    0.9397 C   0  0  1  0  0  0  0  0  0  0  0  0
    6.2011   -3.6132    1.0457 C   0  0  1  0  0  0  0  0  0  0  0  0
    7.0779   -4.2497    1.9384 O   0  0  0  0  0  0  0  0  0  0  0  0
    7.0105   -3.6947   -0.2640 C   0  0  0  0  0  0  0  0  0  0  0  0
    6.5337   -2.6480   -1.2468 C   0  0  0  0  0  0  0  0  0  0  0  0
    5.0134   -2.7153   -1.4399 C   0  0  0  0  0  0  0  0  0  0  0  0
    4.5864   -1.4336   -2.1951 C   0  0  0  0  0  0  0  0  0  0  0  0
    4.6748   -3.9179   -2.3608 C   0  0  0  0  0  0  0  0  0  0  0  0
    4.2572   -2.7986   -0.0462 C   0  0  2  0  0  0  0  0  0  0  0  0
    4.3593   -1.4779    0.9123 C   0  0  1  0  0  0  0  0  0  0  0  0
    3.3711   -0.5445    0.5239 O   0  0  0  0  0  0  0  0  0  0  0  0
    4.3894   -1.6672    2.5549 C   0  0  1  0  0  0  0  0  0  0  0  0
    3.5305   -0.7567    3.2173 O   0  0  0  0  0  0  0  0  0  0  0  0
    4.0491   -3.1610    3.1115 C   0  0  2  0  0  0  0  0  0  0  0  0
    3.2855   -3.8753    2.0231 C   0  0  1  0  0  0  0  0  0  0  0  0
    2.2395   -2.9785    1.6328 O   0  0  0  0  0  0  0  0  0  0  0  0
    2.1294   -5.0233    2.4694 C   0  0  1  0  0  0  0  0  0  0  0  0
    1.5981   -6.0419    1.3701 C   0  0  0  0  0  0  0  0  0  0  0  0
    0.1913   -6.5986    1.6050 C   0  0  0  0  0  0  0  0  0  0  0  0
    2.3160   -7.3526    1.2384 C   0  0  0  0  0  0  0  0  0  0  0  0
    2.0393   -5.4815    4.0022 C   0  0  1  0  0  0  0  0  0  0  0  0
    0.6289   -5.5470    4.6600 C   0  0  0  0  0  0  0  0  0  0  0  0
    2.8802   -6.7311    4.3667 C   0  0  0  0  0  0  0  0  0  0  0  0
    5.0810   -2.9761    5.5929 H   0  0  0  0  0  0  0  0  0  0  0  0
    5.7106   -4.6966    5.7889 H   0  0  0  0  0  0  0  0  0  0  0  0
    5.6133   -8.2438    2.9662 H   0  0  0  0  0  0  0  0  0  0  0  0
    4.3552   -8.2602    1.9646 H   0  0  0  0  0  0  0  0  0  0  0  0
    6.4012   -6.4223    1.8272 H   0  0  0  0  0  0  0  0  0  0  0  0
    6.3975   -2.6045    1.3609 H   0  0  0  0  0  0  0  0  0  0  0  0
    7.8617   -3.7220    2.0200 H   0  0  0  0  0  0  0  0  0  0  0  0
    8.0822   -3.5603   -0.0944 H   0  0  0  0  0  0  0  0  0  0  0  0
    6.9227   -4.6611   -0.6980 H   0  0  0  0  0  0  0  0  0  0  0  0
    6.8095   -1.6813   -0.8349 H   0  0  0  0  0  0  0  0  0  0  0  0
    7.0610   -2.7367   -2.1979 H   0  0  0  0  0  0  0  0  0  0  0  0
    3.5053   -1.3711   -2.3135 H   0  0  0  0  0  0  0  0  0  0  0  0
    5.0148   -1.3819   -3.1942 H   0  0  0  0  0  0  0  0  0  0  0  0
    4.9076   -0.5304   -1.6760 H   0  0  0  0  0  0  0  0  0  0  0  0
    3.6294   -4.2101   -2.2817 H   0  0  0  0  0  0  0  0  0  0  0  0
    5.2685   -4.8006   -2.1500 H   0  0  0  0  0  0  0  0  0  0  0  0
    4.8868   -3.7334   -3.4089 H   0  0  0  0  0  0  0  0  0  0  0  0
    3.2360   -2.8977   -0.4118 H   0  0  0  0  0  0  0  0  0  0  0  0
    5.2653   -0.9241    0.6604 H   0  0  0  0  0  0  0  0  0  0  0  0
    2.5379   -0.9531    0.3165 H   0  0  0  0  0  0  0  0  0  0  0  0
    5.3525   -1.2731    2.9070 H   0  0  0  0  0  0  0  0  0  0  0  0
    3.8768   -0.5791    4.0844 H   0  0  0  0  0  0  0  0  0  0  0  0
    5.0979   -3.1389    2.9704 H   0  0  0  0  0  0  0  0  0  0  0  0
    2.6250   -2.2115    1.2279 H   0  0  0  0  0  0  0  0  0  0  0  0
    1.1607   -4.5006    2.5430 H   0  0  0  0  0  0  0  0  0  0  0  0
    1.6426   -5.5554    0.3980 H   0  0  0  0  0  0  0  0  0  0  0  0
    0.1442   -7.1824    2.5208 H   0  0  0  0  0  0  0  0  0  0  0  0
   -0.0991   -7.2892    0.8098 H   0  0  0  0  0  0  0  0  0  0  0  0
   -0.5733   -5.8541    1.6472 H   0  0  0  0  0  0  0  0  0  0  0  0
    2.4016   -7.8648    2.1386 H   0  0  0  0  0  0  0  0  0  0  0  0
    3.2541   -7.2190    0.8079 H   0  0  0  0  0  0  0  0  0  0  0  0
    1.9541   -8.0426    0.5019 H   0  0  0  0  0  0  0  0  0  0  0  0
    2.4508   -4.6590    4.5826 H   0  0  0  0  0  0  0  0  0  0  0  0
    0.0305   -6.4003    4.3620 H   0  0  0  0  0  0  0  0  0  0  0  0
    0.0416   -4.6481    4.4719 H   0  0  0  0  0  0  0  0  0  0  0  0
    0.7174   -5.6359    5.7438 H   0  0  0  0  0  0  0  0  0  0  0  0
    2.3351   -7.6497    4.1272 H   0  0  0  0  0  0  0  0  0  0  0  0
    3.0248   -6.7947    5.4446 H   0  0  0  0  0  0  0  0  0  0  0  0
  1  2  2  0
  1 32  1  0
  1 33  1  0
  2 22  1  0
  2  3  1  0
  3  6  1  0
  3  4  2  0
  4 31  1  0
  4  5  1  0
  5  6  1  0
  5 34  1  0
  5 35  1  0
  6  7  1  0
  6 36  1  6
  7  8  2  0
  9  7  1  6
  9 17  1  0
  9 23  1  0
  9 10  1  0
 10 11  1  0
 10 12  1  0
 10 37  1  1
 11 38  1  0
 12 13  1  0
 12 39  1  0
 12 40  1  0
 13 14  1  0
 13 41  1  0
 13 42  1  0
 14 15  1  0
 14 16  1  0
 14 17  1  0
 15 43  1  0
 15 44  1  0
 15 45  1  0
 16 46  1  0
 16 47  1  0
 16 48  1  0
 17 18  1  0
 17 49  1  6
 18 19  1  0
 18 20  1  0
 18 50  1  6
 19 51  1  0
 20 21  1  0
 20 22  1  0
 20 52  1  1
 21 53  1  0
 22 23  1  0
 22 54  1  1
 23 24  1  6
 23 25  1  0
 24 55  1  0
 25 26  1  0
 25 29  1  0
 25 56  1  1
 26 27  1  0
 26 28  1  0
 26 57  1  0
 27 58  1  0
 27 59  1  0
 27 60  1  0
 28 61  1  0
 28 62  1  0
 28 63  1  0
 29 30  1  0
 29 31  1  0
 29 64  1  1
 30 65  1  0
 30 66  1  0
 30 67  1  0
 31 68  1  0
 31 69  1  0
M  END
>  <i_m_ct_stereo_status>  (447) 
1

>  <s_m_source_file>  (447) 
/var/tmp/pbs.5076255.sched01/tmp9yj1qf5s/135tauqa2n_.sdf

>  <i_m_source_file_index>  (447) 
36

>  <i_lp_mmshare_version>  (447) 
48012

>  <i_f3d_flags>  (447) 
0

>  <s_epik_input>  (447) 
Tz1DMVtDQEhdKFtDSDJdMilDKEMzPVtDSDJdKT1DMltDSDJdW0NASF0oW0NIM10pW0NASF0oW0NIXShbQ0gzXSlbQ0gzXSlbQ0BAXTQoW09IXSlbQ0BIXTNbQ0BIXShbT0hdKVtDQEhdKFtPSF0pW0NASF0oW0NAXTE0NSlDKFtDSDNdKShbQ0gzXSlbQ0gyXVtDSDJdW0NAQEhdNVtPSF0=

>  <s_epik_cmdline>  (447) 
J2VwaWtfcHl0aG9uJywgJy1waHQnLCAnMi4wJywgJy1waCcsICc3LjAnLCAnLXRuJywgJzgnLCAnLW1hJywgJzIwMCcsICctaW1hZScsICc8aW5maWxlLm1hZT4nLCAnLW9tYWUnLCAnPG91dGZpbGUubWFlPic=

>  <r_lp_tautomer_probability>  (447) 
1

>  <r_epik_Ionization_Penalty>  (447) 
2.38645e-07

>  <r_epik_Ionization_Penalty_Charging>  (447) 
0

>  <r_epik_Ionization_Penalty_Neutral>  (447) 
2.38645e-07

>  <r_epik_State_Penalty>  (447) 
-0

>  <r_epik_Charging_Adjusted_Penalty>  (447) 
0

>  <i_epik_Tot_Q>  (447) 
0

>  <i_epik_Tot_abs_Q>  (447) 
0

>  <s_lp_Force_Field>  (447) 
OPLS3e

>  <r_lp_Energy>  (447) 
269.258

>  <b_lp_Chiralities_Consistent>  (447) 
1

>  <s_lp_Variant>  (447) 
108:0-1

>  <s_i_glide_gridfile>  (447) 
pfpi4k_grid

>  <i_i_glide_lignum>  (447) 
36

>  <i_i_glide_rotatable_bonds>  (447) 
5

>  <r_i_docking_score>  (447) 
0.165801

>  <r_i_glide_ligand_efficiency>  (447) 
0.00534842

>  <r_i_glide_ligand_efficiency_sa>  (447) 
0.0168014

>  <r_i_glide_ligand_efficiency_ln>  (447) 
0.0373932

>  <r_i_glide_gscore>  (447) 
0.165801

>  <r_i_glide_lipo>  (447) 
-0.305518

>  <r_i_glide_hbond>  (447) 
0

>  <r_i_glide_metal>  (447) 
-0

>  <r_i_glide_rewards>  (447) 
-0.573454

>  <r_i_glide_evdw>  (447) 
-8.59349

>  <r_i_glide_ecoul>  (447) 
1.13204

>  <r_i_glide_erotb>  (447) 
0

>  <r_i_glide_esite>  (447) 
0

>  <r_i_glide_emodel>  (447) 
2.91833

>  <r_i_glide_energy>  (447) 
-7.46145

>  <r_i_glide_einternal>  (447) 
5.94574

>  <r_i_glide_intrahb_reward>  (447) 
-0

>  <i_i_glide_confnum>  (447) 
2

>  <i_i_glide_posenum>  (447) 
11

>  <r_i_glide_eff_state_penalty>  (447) 
0

>  <ligand_id>  (447) 
108

>  <original_smiles>  (447) 
C=C1C2=C3CC2C(=O)C24C(O)CCC(C)(C)C2C(O)C(O)C1C4(O)C(C(C)C)C(C)C3

>  <smiles>  (447) 
[H]OC1([H])C([H])(O[H])C2([H])C3(C(=O)C4([H])C5=C(C4([H])[H])C([H])([H])C([H])(C([H])([H])[H])C([H])(C([H])(C([H])([H])[H])C([H])([H])[H])C3(O[H])C1([H])C5=C([H])[H])C([H])(O[H])C([H])([H])C([H])([H])C2(C([H])([H])[H])C([H])([H])[H]

$$$$
108:0:2
     RDKit          3D

 69 73  0  0  1  0  0  0  0  0999 V2000
    4.2107   -6.8006    0.4726 C   0  0  0  0  0  0  0  0  0  0  0  0
    4.2922   -5.5780    1.0354 C   0  0  0  0  0  0  0  0  0  0  0  0
    5.4338   -4.8194    0.8194 C   0  0  0  0  0  0  0  0  0  0  0  0
    5.7418   -4.0895   -0.2776 C   0  0  0  0  0  0  0  0  0  0  0  0
    6.9373   -3.3309    0.3192 C   0  0  0  0  0  0  0  0  0  0  0  0
    6.2811   -3.7762    1.6837 C   0  0  1  0  0  0  0  0  0  0  0  0
    5.4541   -2.8681    2.6754 C   0  0  0  0  0  0  0  0  0  0  0  0
    5.7267   -1.7639    3.0954 O   0  0  0  0  0  0  0  0  0  0  0  0
    4.1980   -3.5249    3.2031 C   0  0  1  0  0  0  0  0  0  0  0  0
    4.9787   -4.7083    4.0901 C   0  0  1  0  0  0  0  0  0  0  0  0
    5.8644   -5.6827    3.5446 O   0  0  0  0  0  0  0  0  0  0  0  0
    5.6956   -4.2154    5.3741 C   0  0  0  0  0  0  0  0  0  0  0  0
    4.6614   -3.7161    6.3775 C   0  0  0  0  0  0  0  0  0  0  0  0
    3.7342   -2.6629    5.7546 C   0  0  0  0  0  0  0  0  0  0  0  0
    2.5569   -2.4364    6.7371 C   0  0  0  0  0  0  0  0  0  0  0  0
    4.5053   -1.3143    5.6424 C   0  0  0  0  0  0  0  0  0  0  0  0
    3.1790   -3.1511    4.3533 C   0  0  2  0  0  0  0  0  0  0  0  0
    2.1526   -4.4349    4.3754 C   0  0  1  0  0  0  0  0  0  0  0  0
    0.8353   -3.9798    4.6557 O   0  0  0  0  0  0  0  0  0  0  0  0
    2.1711   -5.4980    3.1084 C   0  0  1  0  0  0  0  0  0  0  0  0
    0.8669   -5.8571    2.6661 O   0  0  0  0  0  0  0  0  0  0  0  0
    3.0214   -5.0440    1.8078 C   0  0  2  0  0  0  0  0  0  0  0  0
    3.1820   -3.5449    1.8643 C   0  0  1  0  0  0  0  0  0  0  0  0
    1.8547   -3.0473    2.0916 O   0  0  0  0  0  0  0  0  0  0  0  0
    3.2400   -2.6868    0.4143 C   0  0  1  0  0  0  0  0  0  0  0  0
    3.7640   -1.1902    0.4358 C   0  0  0  0  0  0  0  0  0  0  0  0
    5.2234   -0.9790    0.1549 C   0  0  0  0  0  0  0  0  0  0  0  0
    3.4220   -0.3733    1.6889 C   0  0  0  0  0  0  0  0  0  0  0  0
    3.3983   -3.4991   -0.9654 C   0  0  1  0  0  0  0  0  0  0  0  0
    2.4825   -3.0858   -2.1556 C   0  0  0  0  0  0  0  0  0  0  0  0
    4.8527   -3.7240   -1.4598 C   0  0  0  0  0  0  0  0  0  0  0  0
    3.3574   -7.4434    0.6192 H   0  0  0  0  0  0  0  0  0  0  0  0
    5.0227   -7.2234   -0.0900 H   0  0  0  0  0  0  0  0  0  0  0  0
    7.9057   -3.7165    0.1127 H   0  0  0  0  0  0  0  0  0  0  0  0
    7.1930   -2.2907    0.1708 H   0  0  0  0  0  0  0  0  0  0  0  0
    7.1281   -4.1860    2.2170 H   0  0  0  0  0  0  0  0  0  0  0  0
    4.2953   -5.4456    4.4819 H   0  0  0  0  0  0  0  0  0  0  0  0
    5.4055   -6.1784    2.8848 H   0  0  0  0  0  0  0  0  0  0  0  0
    6.2480   -5.0304    5.8431 H   0  0  0  0  0  0  0  0  0  0  0  0
    6.4426   -3.4538    5.1791 H   0  0  0  0  0  0  0  0  0  0  0  0
    4.0732   -4.5706    6.7097 H   0  0  0  0  0  0  0  0  0  0  0  0
    5.1450   -3.3337    7.2797 H   0  0  0  0  0  0  0  0  0  0  0  0
    1.8168   -1.7458    6.3355 H   0  0  0  0  0  0  0  0  0  0  0  0
    2.8915   -2.0321    7.6929 H   0  0  0  0  0  0  0  0  0  0  0  0
    2.0411   -3.3672    6.9743 H   0  0  0  0  0  0  0  0  0  0  0  0
    4.0426   -0.6184    4.9430 H   0  0  0  0  0  0  0  0  0  0  0  0
    5.5410   -1.4380    5.3379 H   0  0  0  0  0  0  0  0  0  0  0  0
    4.5970   -0.8014    6.5946 H   0  0  0  0  0  0  0  0  0  0  0  0
    2.6161   -2.2619    4.0742 H   0  0  0  0  0  0  0  0  0  0  0  0
    2.3589   -5.0215    5.2721 H   0  0  0  0  0  0  0  0  0  0  0  0
    0.8605   -3.4578    5.4415 H   0  0  0  0  0  0  0  0  0  0  0  0
    2.4720   -6.4692    3.5223 H   0  0  0  0  0  0  0  0  0  0  0  0
    0.9136   -6.7011    2.2475 H   0  0  0  0  0  0  0  0  0  0  0  0
    3.7057   -5.5779    2.4218 H   0  0  0  0  0  0  0  0  0  0  0  0
    1.8231   -2.1141    1.9613 H   0  0  0  0  0  0  0  0  0  0  0  0
    2.2240   -2.3858    0.1487 H   0  0  0  0  0  0  0  0  0  0  0  0
    3.3357   -0.6564   -0.4077 H   0  0  0  0  0  0  0  0  0  0  0  0
    5.7147   -1.3807    0.9428 H   0  0  0  0  0  0  0  0  0  0  0  0
    5.6855   -0.0084    0.2385 H   0  0  0  0  0  0  0  0  0  0  0  0
    5.5764   -1.4681   -0.7418 H   0  0  0  0  0  0  0  0  0  0  0  0
    3.7160   -0.8616    2.6084 H   0  0  0  0  0  0  0  0  0  0  0  0
    2.3605   -0.1766    1.7609 H   0  0  0  0  0  0  0  0  0  0  0  0
    3.9486    0.5840    1.6766 H   0  0  0  0  0  0  0  0  0  0  0  0
    2.9934   -4.4883   -0.7766 H   0  0  0  0  0  0  0  0  0  0  0  0
    2.7706   -2.1415   -2.6196 H   0  0  0  0  0  0  0  0  0  0  0  0
    1.4337   -3.0128   -1.8616 H   0  0  0  0  0  0  0  0  0  0  0  0
    2.5047   -3.8434   -2.9377 H   0  0  0  0  0  0  0  0  0  0  0  0
    5.2086   -2.8668   -2.0330 H   0  0  0  0  0  0  0  0  0  0  0  0
    4.8996   -4.5289   -2.1929 H   0  0  0  0  0  0  0  0  0  0  0  0
  1  2  2  0
  1 32  1  0
  1 33  1  0
  2 22  1  0
  2  3  1  0
  3  6  1  0
  3  4  2  0
  4 31  1  0
  4  5  1  0
  5  6  1  0
  5 34  1  0
  5 35  1  0
  6  7  1  0
  6 36  1  1
  7  8  2  0
  9  7  1  6
  9 17  1  0
  9 23  1  0
  9 10  1  0
 10 11  1  0
 10 12  1  0
 10 37  1  1
 11 38  1  0
 12 13  1  0
 12 39  1  0
 12 40  1  0
 13 14  1  0
 13 41  1  0
 13 42  1  0
 14 15  1  0
 14 16  1  0
 14 17  1  0
 15 43  1  0
 15 44  1  0
 15 45  1  0
 16 46  1  0
 16 47  1  0
 16 48  1  0
 17 18  1  0
 17 49  1  6
 18 19  1  0
 18 20  1  0
 18 50  1  1
 19 51  1  0
 20 21  1  0
 20 22  1  0
 20 52  1  1
 21 53  1  0
 22 23  1  0
 22 54  1  6
 23 24  1  1
 23 25  1  0
 24 55  1  0
 25 26  1  0
 25 29  1  0
 25 56  1  6
 26 27  1  0
 26 28  1  0
 26 57  1  0
 27 58  1  0
 27 59  1  0
 27 60  1  0
 28 61  1  0
 28 62  1  0
 28 63  1  0
 29 30  1  0
 29 31  1  0
 29 64  1  1
 30 65  1  0
 30 66  1  0
 30 67  1  0
 31 68  1  0
 31 69  1  0
M  END
>  <i_m_ct_stereo_status>  (448) 
1

>  <s_m_source_file>  (448) 
/var/tmp/pbs.5076255.sched01/tmp9yj1qf5s/135tauqa2n_.sdf

>  <i_m_source_file_index>  (448) 
36

>  <i_lp_mmshare_version>  (448) 
48012

>  <i_f3d_flags>  (448) 
0

>  <s_epik_input>  (448) 
Tz1DMVtDQEhdKFtDSDJdMilDKEMzPVtDSDJdKT1DMltDSDJdW0NASF0oW0NIM10pW0NASF0oW0NIXShbQ0gzXSlbQ0gzXSlbQ0BAXTQoW09IXSlbQ0BIXTNbQ0BIXShbT0hdKVtDQEhdKFtPSF0pW0NASF0oW0NAXTE0NSlDKFtDSDNdKShbQ0gzXSlbQ0gyXVtDSDJdW0NAQEhdNVtPSF0=

>  <s_epik_cmdline>  (448) 
J2VwaWtfcHl0aG9uJywgJy1waHQnLCAnMi4wJywgJy1waCcsICc3LjAnLCAnLXRuJywgJzgnLCAnLW1hJywgJzIwMCcsICctaW1hZScsICc8aW5maWxlLm1hZT4nLCAnLW9tYWUnLCAnPG91dGZpbGUubWFlPic=

>  <r_lp_tautomer_probability>  (448) 
1

>  <r_epik_Ionization_Penalty>  (448) 
2.38645e-07

>  <r_epik_Ionization_Penalty_Charging>  (448) 
0

>  <r_epik_Ionization_Penalty_Neutral>  (448) 
2.38645e-07

>  <r_epik_State_Penalty>  (448) 
-0

>  <r_epik_Charging_Adjusted_Penalty>  (448) 
0

>  <i_epik_Tot_Q>  (448) 
0

>  <i_epik_Tot_abs_Q>  (448) 
0

>  <s_lp_Force_Field>  (448) 
OPLS3e

>  <r_lp_Energy>  (448) 
269.258

>  <b_lp_Chiralities_Consistent>  (448) 
1

>  <s_lp_Variant>  (448) 
108:0-1

>  <s_i_glide_gridfile>  (448) 
pfpi4k_grid

>  <i_i_glide_lignum>  (448) 
36

>  <i_i_glide_rotatable_bonds>  (448) 
5

>  <r_i_docking_score>  (448) 
0.188822

>  <r_i_glide_ligand_efficiency>  (448) 
0.00609103

>  <r_i_glide_ligand_efficiency_sa>  (448) 
0.0191343

>  <r_i_glide_ligand_efficiency_ln>  (448) 
0.0425852

>  <r_i_glide_gscore>  (448) 
0.188822

>  <r_i_glide_lipo>  (448) 
-0.683518

>  <r_i_glide_hbond>  (448) 
0

>  <r_i_glide_metal>  (448) 
-0

>  <r_i_glide_rewards>  (448) 
-0.524234

>  <r_i_glide_evdw>  (448) 
-15.6911

>  <r_i_glide_ecoul>  (448) 
1.4071

>  <r_i_glide_erotb>  (448) 
0

>  <r_i_glide_esite>  (448) 
0

>  <r_i_glide_emodel>  (448) 
-2.09533

>  <r_i_glide_energy>  (448) 
-14.284

>  <r_i_glide_einternal>  (448) 
6.28394

>  <r_i_glide_intrahb_reward>  (448) 
-0

>  <i_i_glide_confnum>  (448) 
2

>  <i_i_glide_posenum>  (448) 
26

>  <r_i_glide_eff_state_penalty>  (448) 
0

>  <ligand_id>  (448) 
108

>  <original_smiles>  (448) 
C=C1C2=C3CC2C(=O)C24C(O)CCC(C)(C)C2C(O)C(O)C1C4(O)C(C(C)C)C(C)C3

>  <smiles>  (448) 
[H]OC1([H])C([H])(O[H])C2([H])C3(C(=O)C4([H])C5=C(C4([H])[H])C([H])([H])C([H])(C([H])([H])[H])C([H])(C([H])(C([H])([H])[H])C([H])([H])[H])C3(O[H])C1([H])C5=C([H])[H])C([H])(O[H])C([H])([H])C([H])([H])C2(C([H])([H])[H])C([H])([H])[H]

$$$$
108:1:0
     RDKit          3D

 69 73  0  0  1  0  0  0  0  0999 V2000
    4.5150   -6.5725    0.6506 C   0  0  0  0  0  0  0  0  0  0  0  0
    4.4682   -5.2490    0.7347 C   0  0  0  0  0  0  0  0  0  0  0  0
    5.6746   -4.5564    0.5290 C   0  0  0  0  0  0  0  0  0  0  0  0
    6.0632   -3.8105   -0.5428 C   0  0  0  0  0  0  0  0  0  0  0  0
    7.2632   -3.1615    0.1282 C   0  0  0  0  0  0  0  0  0  0  0  0
    6.4531   -3.5047    1.4315 C   0  0  1  0  0  0  0  0  0  0  0  0
    5.5659   -2.5284    2.2661 C   0  0  0  0  0  0  0  0  0  0  0  0
    5.8619   -1.4452    2.6939 O   0  0  0  0  0  0  0  0  0  0  0  0
    4.2087   -3.1543    2.6428 C   0  0  1  0  0  0  0  0  0  0  0  0
    4.8409   -4.3565    3.6251 C   0  0  1  0  0  0  0  0  0  0  0  0
    5.7630   -5.3732    3.2565 O   0  0  0  0  0  0  0  0  0  0  0  0
    5.4398   -3.8361    4.9687 C   0  0  0  0  0  0  0  0  0  0  0  0
    4.3478   -3.2699    5.8578 C   0  0  0  0  0  0  0  0  0  0  0  0
    3.5344   -2.1990    5.1247 C   0  0  0  0  0  0  0  0  0  0  0  0
    2.2657   -1.9149    5.9709 C   0  0  0  0  0  0  0  0  0  0  0  0
    4.3482   -0.8761    5.0801 C   0  0  0  0  0  0  0  0  0  0  0  0
    3.1168   -2.7019    3.6789 C   0  0  2  0  0  0  0  0  0  0  0  0
    2.0640   -3.9398    3.6197 C   0  0  1  0  0  0  0  0  0  0  0  0
    0.7469   -3.4403    3.7212 O   0  0  0  0  0  0  0  0  0  0  0  0
    2.2637   -5.0474    2.4279 C   0  0  1  0  0  0  0  0  0  0  0  0
    1.0226   -5.6687    2.0774 O   0  0  0  0  0  0  0  0  0  0  0  0
    3.0753   -4.5999    1.0986 C   0  0  1  0  0  0  0  0  0  0  0  0
    3.3198   -3.1319    1.1878 C   0  0  1  0  0  0  0  0  0  0  0  0
    2.0343   -2.5346    1.3075 O   0  0  0  0  0  0  0  0  0  0  0  0
    3.6205   -2.3430   -0.2491 C   0  0  1  0  0  0  0  0  0  0  0  0
    4.1735   -0.8565   -0.2204 C   0  0  0  0  0  0  0  0  0  0  0  0
    5.6841   -0.7135   -0.3331 C   0  0  0  0  0  0  0  0  0  0  0  0
    3.6842    0.0117    0.9445 C   0  0  0  0  0  0  0  0  0  0  0  0
    3.9001   -3.2148   -1.5741 C   0  0  1  0  0  0  0  0  0  0  0  0
    3.1594   -2.8186   -2.8783 C   0  0  0  0  0  0  0  0  0  0  0  0
    5.3919   -3.5103   -1.8469 C   0  0  0  0  0  0  0  0  0  0  0  0
    3.6367   -7.2031    0.8467 H   0  0  0  0  0  0  0  0  0  0  0  0
    5.4357   -7.1005    0.4500 H   0  0  0  0  0  0  0  0  0  0  0  0
    8.2109   -3.6221    0.0341 H   0  0  0  0  0  0  0  0  0  0  0  0
    7.5687   -2.1090   -0.0083 H   0  0  0  0  0  0  0  0  0  0  0  0
    7.2339   -3.9009    2.0794 H   0  0  0  0  0  0  0  0  0  0  0  0
    4.1171   -5.0397    4.0112 H   0  0  0  0  0  0  0  0  0  0  0  0
    6.5671   -4.9771    2.9509 H   0  0  0  0  0  0  0  0  0  0  0  0
    5.9324   -4.6494    5.5132 H   0  0  0  0  0  0  0  0  0  0  0  0
    6.2010   -3.0873    4.8171 H   0  0  0  0  0  0  0  0  0  0  0  0
    3.7004   -4.0949    6.1561 H   0  0  0  0  0  0  0  0  0  0  0  0
    4.7695   -2.8776    6.7853 H   0  0  0  0  0  0  0  0  0  0  0  0
    1.6037   -1.2042    5.4838 H   0  0  0  0  0  0  0  0  0  0  0  0
    2.5144   -1.5145    6.9539 H   0  0  0  0  0  0  0  0  0  0  0  0
    1.6897   -2.8220    6.1516 H   0  0  0  0  0  0  0  0  0  0  0  0
    3.9962   -0.1867    4.3123 H   0  0  0  0  0  0  0  0  0  0  0  0
    5.4111   -1.0390    4.9091 H   0  0  0  0  0  0  0  0  0  0  0  0
    4.3484   -0.3445    6.0231 H   0  0  0  0  0  0  0  0  0  0  0  0
    2.6182   -1.7958    3.3390 H   0  0  0  0  0  0  0  0  0  0  0  0
    2.1119   -4.4991    4.5625 H   0  0  0  0  0  0  0  0  0  0  0  0
    0.6219   -2.8610    2.9107 H   0  0  0  0  0  0  0  0  0  0  0  0
    2.7593   -5.9222    2.8276 H   0  0  0  0  0  0  0  0  0  0  0  0
    1.1987   -6.5526    1.7918 H   0  0  0  0  0  0  0  0  0  0  0  0
    2.4024   -4.8198    0.2581 H   0  0  0  0  0  0  0  0  0  0  0  0
    1.8892   -1.8949    0.6136 H   0  0  0  0  0  0  0  0  0  0  0  0
    2.6172   -2.0410   -0.6509 H   0  0  0  0  0  0  0  0  0  0  0  0
    3.8693   -0.3537   -1.1434 H   0  0  0  0  0  0  0  0  0  0  0  0
    6.0605   -1.0859    0.5456 H   0  0  0  0  0  0  0  0  0  0  0  0
    6.1338    0.2268   -0.1903 H   0  0  0  0  0  0  0  0  0  0  0  0
    6.1034   -1.2038   -1.1416 H   0  0  0  0  0  0  0  0  0  0  0  0
    3.8268   -0.4550    1.9163 H   0  0  0  0  0  0  0  0  0  0  0  0
    2.6266    0.2540    0.8606 H   0  0  0  0  0  0  0  0  0  0  0  0
    4.2438    0.9481    0.9755 H   0  0  0  0  0  0  0  0  0  0  0  0
    3.4757   -4.1990   -1.4197 H   0  0  0  0  0  0  0  0  0  0  0  0
    3.5348   -1.9018   -3.3301 H   0  0  0  0  0  0  0  0  0  0  0  0
    2.0862   -2.7041   -2.7215 H   0  0  0  0  0  0  0  0  0  0  0  0
    3.2609   -3.6083   -3.6275 H   0  0  0  0  0  0  0  0  0  0  0  0
    5.8513   -2.6918   -2.4061 H   0  0  0  0  0  0  0  0  0  0  0  0
    5.5007   -4.3363   -2.5535 H   0  0  0  0  0  0  0  0  0  0  0  0
  1  2  2  0
  1 32  1  0
  1 33  1  0
  2 22  1  0
  2  3  1  0
  3  6  1  0
  3  4  2  0
  4 31  1  0
  4  5  1  0
  5  6  1  0
  5 34  1  0
  5 35  1  0
  6  7  1  0
  6 36  1  1
  7  8  2  0
  9  7  1  6
  9 17  1  0
  9 23  1  0
  9 10  1  0
 10 11  1  0
 10 12  1  0
 10 37  1  1
 11 38  1  0
 12 13  1  0
 12 39  1  0
 12 40  1  0
 13 14  1  0
 13 41  1  0
 13 42  1  0
 14 15  1  0
 14 16  1  0
 14 17  1  0
 15 43  1  0
 15 44  1  0
 15 45  1  0
 16 46  1  0
 16 47  1  0
 16 48  1  0
 17 18  1  0
 17 49  1  6
 18 19  1  0
 18 20  1  0
 18 50  1  1
 19 51  1  0
 20 21  1  0
 20 22  1  0
 20 52  1  1
 21 53  1  0
 22 23  1  0
 22 54  1  6
 23 24  1  1
 23 25  1  0
 24 55  1  0
 25 26  1  0
 25 29  1  0
 25 56  1  6
 26 27  1  0
 26 28  1  0
 26 57  1  0
 27 58  1  0
 27 59  1  0
 27 60  1  0
 28 61  1  0
 28 62  1  0
 28 63  1  0
 29 30  1  0
 29 31  1  0
 29 64  1  1
 30 65  1  0
 30 66  1  0
 30 67  1  0
 31 68  1  0
 31 69  1  0
M  END
>  <i_m_ct_stereo_status>  (449) 
1

>  <s_m_source_file>  (449) 
/var/tmp/pbs.5076255.sched01/tmp9yj1qf5s/135tauqa2n_.sdf

>  <i_m_source_file_index>  (449) 
37

>  <i_lp_mmshare_version>  (449) 
48012

>  <i_f3d_flags>  (449) 
0

>  <s_epik_input>  (449) 
Tz1DMVtDQEhdKFtDSDJdMilDKEMzPVtDSDJdKT1DMltDSDJdW0NASF0oW0NIM10pW0NASF0oW0NIXShbQ0gzXSlbQ0gzXSlbQ0BAXTQoW09IXSlbQ0BIXTNbQ0BIXShbT0hdKVtDQEhdKFtPSF0pW0NASF0oW0NAXTE0NSlDKFtDSDNdKShbQ0gzXSlbQ0gyXVtDSDJdW0NAQEhdNVtPSF0=

>  <s_epik_cmdline>  (449) 
J2VwaWtfcHl0aG9uJywgJy1waHQnLCAnMi4wJywgJy1waCcsICc3LjAnLCAnLXRuJywgJzgnLCAnLW1hJywgJzIwMCcsICctaW1hZScsICc8aW5maWxlLm1hZT4nLCAnLW9tYWUnLCAnPG91dGZpbGUubWFlPic=

>  <r_lp_tautomer_probability>  (449) 
1

>  <r_epik_Ionization_Penalty>  (449) 
2.38645e-07

>  <r_epik_Ionization_Penalty_Charging>  (449) 
0

>  <r_epik_Ionization_Penalty_Neutral>  (449) 
2.38645e-07

>  <r_epik_State_Penalty>  (449) 
-0

>  <r_epik_Charging_Adjusted_Penalty>  (449) 
0

>  <i_epik_Tot_Q>  (449) 
0

>  <i_epik_Tot_abs_Q>  (449) 
0

>  <s_lp_Force_Field>  (449) 
OPLS3e

>  <r_lp_Energy>  (449) 
206.609

>  <b_lp_Chiralities_Consistent>  (449) 
1

>  <s_lp_Variant>  (449) 
108:0-2

>  <s_i_glide_gridfile>  (449) 
pfpi4k_grid

>  <i_i_glide_lignum>  (449) 
37

>  <i_i_glide_rotatable_bonds>  (449) 
5

>  <r_i_docking_score>  (449) 
-2.36286

>  <r_i_glide_ligand_efficiency>  (449) 
-0.0762213

>  <r_i_glide_ligand_efficiency_sa>  (449) 
-0.23944

>  <r_i_glide_ligand_efficiency_ln>  (449) 
-0.532897

>  <r_i_glide_gscore>  (449) 
-2.36286

>  <r_i_glide_lipo>  (449) 
-0.679302

>  <r_i_glide_hbond>  (449) 
0

>  <r_i_glide_metal>  (449) 
-0

>  <r_i_glide_rewards>  (449) 
-1.02627

>  <r_i_glide_evdw>  (449) 
-15.1202

>  <r_i_glide_ecoul>  (449) 
-3.28816

>  <r_i_glide_erotb>  (449) 
0

>  <r_i_glide_esite>  (449) 
0

>  <r_i_glide_emodel>  (449) 
-18.1831

>  <r_i_glide_energy>  (449) 
-18.4084

>  <r_i_glide_einternal>  (449) 
6.90496

>  <r_i_glide_intrahb_reward>  (449) 
-0.5

>  <i_i_glide_confnum>  (449) 
2

>  <i_i_glide_posenum>  (449) 
38

>  <r_i_glide_eff_state_penalty>  (449) 
0

>  <ligand_id>  (449) 
108

>  <original_smiles>  (449) 
C=C1C2=C3CC2C(=O)C24C(O)CCC(C)(C)C2C(O)C(O)C1C4(O)C(C(C)C)C(C)C3

>  <smiles>  (449) 
[H]OC1([H])C([H])(O[H])C2([H])C3(C(=O)C4([H])C5=C(C4([H])[H])C([H])([H])C([H])(C([H])([H])[H])C([H])(C([H])(C([H])([H])[H])C([H])([H])[H])C3(O[H])C1([H])C5=C([H])[H])C([H])(O[H])C([H])([H])C([H])([H])C2(C([H])([H])[H])C([H])([H])[H]

$$$$
108:1:1
     RDKit          3D

 69 73  0  0  1  0  0  0  0  0999 V2000
    3.2193   -9.6897    6.7834 C   0  0  0  0  0  0  0  0  0  0  0  0
    3.2789   -9.1158    5.5749 C   0  0  0  0  0  0  0  0  0  0  0  0
    2.9878   -9.9207    4.5056 C   0  0  0  0  0  0  0  0  0  0  0  0
    1.8517   -9.8911    3.7769 C   0  0  0  0  0  0  0  0  0  0  0  0
    2.3813  -10.5734    2.5474 C   0  0  0  0  0  0  0  0  0  0  0  0
    3.7498  -10.1932    3.1382 C   0  0  1  0  0  0  0  0  0  0  0  0
    4.5361   -9.0160    2.5253 C   0  0  0  0  0  0  0  0  0  0  0  0
    4.7591   -8.7896    1.3371 O   0  0  0  0  0  0  0  0  0  0  0  0
    5.0981   -8.1303    3.6268 C   0  0  1  0  0  0  0  0  0  0  0  0
    6.0948   -9.2383    4.4058 C   0  0  1  0  0  0  0  0  0  0  0  0
    5.7074  -10.4560    5.0146 O   0  0  0  0  0  0  0  0  0  0  0  0
    7.3431   -9.6505    3.6004 C   0  0  0  0  0  0  0  0  0  0  0  0
    8.2971   -8.4664    3.4956 C   0  0  0  0  0  0  0  0  0  0  0  0
    7.5874   -7.2455    2.9136 C   0  0  0  0  0  0  0  0  0  0  0  0
    8.5182   -6.0216    3.0878 C   0  0  0  0  0  0  0  0  0  0  0  0
    7.4389   -7.4330    1.3798 C   0  0  0  0  0  0  0  0  0  0  0  0
    6.1953   -6.9970    3.6070 C   0  0  2  0  0  0  0  0  0  0  0  0
    6.2775   -6.5563    5.1678 C   0  0  1  0  0  0  0  0  0  0  0  0
    6.3934   -5.1416    5.2496 O   0  0  0  0  0  0  0  0  0  0  0  0
    5.1068   -7.1298    6.1655 C   0  0  1  0  0  0  0  0  0  0  0  0
    4.8604   -6.1877    7.1967 O   0  0  0  0  0  0  0  0  0  0  0  0
    3.7161   -7.6167    5.5216 C   0  0  1  0  0  0  0  0  0  0  0  0
    3.7439   -7.2303    4.0977 C   0  0  1  0  0  0  0  0  0  0  0  0
    3.9167   -5.8028    4.1310 O   0  0  0  0  0  0  0  0  0  0  0  0
    2.2453   -7.0624    3.3799 C   0  0  1  0  0  0  0  0  0  0  0  0
    2.1775   -7.0453    1.7995 C   0  0  0  0  0  0  0  0  0  0  0  0
    3.1583   -6.0298    1.1756 C   0  0  0  0  0  0  0  0  0  0  0  0
    0.7996   -6.7853    1.1699 C   0  0  0  0  0  0  0  0  0  0  0  0
    0.9623   -7.6322    4.1432 C   0  0  1  0  0  0  0  0  0  0  0  0
   -0.3044   -6.7357    4.1692 C   0  0  0  0  0  0  0  0  0  0  0  0
    0.6003   -9.0772    3.8225 C   0  0  0  0  0  0  0  0  0  0  0  0
    3.4974   -9.1349    7.6725 H   0  0  0  0  0  0  0  0  0  0  0  0
    2.9655  -10.7387    6.9000 H   0  0  0  0  0  0  0  0  0  0  0  0
    2.2383  -11.6581    2.5287 H   0  0  0  0  0  0  0  0  0  0  0  0
    2.2112  -10.1417    1.5535 H   0  0  0  0  0  0  0  0  0  0  0  0
    4.3281  -11.1169    3.0966 H   0  0  0  0  0  0  0  0  0  0  0  0
    6.5807   -8.8724    5.2907 H   0  0  0  0  0  0  0  0  0  0  0  0
    5.2035  -10.9721    4.3995 H   0  0  0  0  0  0  0  0  0  0  0  0
    7.8858  -10.4343    4.1279 H   0  0  0  0  0  0  0  0  0  0  0  0
    7.0913  -10.0713    2.6300 H   0  0  0  0  0  0  0  0  0  0  0  0
    8.6928   -8.2345    4.4842 H   0  0  0  0  0  0  0  0  0  0  0  0
    9.1645   -8.7182    2.8894 H   0  0  0  0  0  0  0  0  0  0  0  0
    8.0525   -5.1101    2.7162 H   0  0  0  0  0  0  0  0  0  0  0  0
    9.4588   -6.1533    2.5502 H   0  0  0  0  0  0  0  0  0  0  0  0
    8.7833   -5.8628    4.1318 H   0  0  0  0  0  0  0  0  0  0  0  0
    6.6894   -6.7631    0.9495 H   0  0  0  0  0  0  0  0  0  0  0  0
    7.1579   -8.4522    1.1174 H   0  0  0  0  0  0  0  0  0  0  0  0
    8.3795   -7.2620    0.8497 H   0  0  0  0  0  0  0  0  0  0  0  0
    5.8541   -6.1568    3.0098 H   0  0  0  0  0  0  0  0  0  0  0  0
    7.2254   -6.8842    5.6005 H   0  0  0  0  0  0  0  0  0  0  0  0
    5.5485   -4.7931    4.9960 H   0  0  0  0  0  0  0  0  0  0  0  0
    5.5068   -7.9635    6.7436 H   0  0  0  0  0  0  0  0  0  0  0  0
    4.3279   -6.6060    7.8560 H   0  0  0  0  0  0  0  0  0  0  0  0
    2.9465   -7.0524    6.0445 H   0  0  0  0  0  0  0  0  0  0  0  0
    3.9416   -5.4893    3.2374 H   0  0  0  0  0  0  0  0  0  0  0  0
    1.9286   -6.0249    3.5344 H   0  0  0  0  0  0  0  0  0  0  0  0
    2.4190   -8.0240    1.4098 H   0  0  0  0  0  0  0  0  0  0  0  0
    2.9020   -5.0061    1.4530 H   0  0  0  0  0  0  0  0  0  0  0  0
    3.1395   -6.0851    0.0858 H   0  0  0  0  0  0  0  0  0  0  0  0
    4.1896   -6.2136    1.4677 H   0  0  0  0  0  0  0  0  0  0  0  0
    0.3783   -5.8513    1.5309 H   0  0  0  0  0  0  0  0  0  0  0  0
    0.0954   -7.5863    1.3695 H   0  0  0  0  0  0  0  0  0  0  0  0
    0.8760   -6.7237    0.0846 H   0  0  0  0  0  0  0  0  0  0  0  0
    1.1776   -7.6516    5.2026 H   0  0  0  0  0  0  0  0  0  0  0  0
   -0.8411   -6.6955    3.2236 H   0  0  0  0  0  0  0  0  0  0  0  0
   -0.0775   -5.7140    4.4821 H   0  0  0  0  0  0  0  0  0  0  0  0
   -1.0242   -7.1232    4.8935 H   0  0  0  0  0  0  0  0  0  0  0  0
    0.0821   -9.1700    2.8654 H   0  0  0  0  0  0  0  0  0  0  0  0
   -0.0740   -9.4968    4.5662 H   0  0  0  0  0  0  0  0  0  0  0  0
  1  2  2  0
  1 32  1  0
  1 33  1  0
  2 22  1  0
  2  3  1  0
  3  6  1  0
  3  4  2  0
  4 31  1  0
  4  5  1  0
  5  6  1  0
  5 34  1  0
  5 35  1  0
  6  7  1  0
  6 36  1  1
  7  8  2  0
  9  7  1  6
  9 17  1  0
  9 23  1  0
  9 10  1  0
 10 11  1  0
 10 12  1  0
 10 37  1  1
 11 38  1  0
 12 13  1  0
 12 39  1  0
 12 40  1  0
 13 14  1  0
 13 41  1  0
 13 42  1  0
 14 15  1  0
 14 16  1  0
 14 17  1  0
 15 43  1  0
 15 44  1  0
 15 45  1  0
 16 46  1  0
 16 47  1  0
 16 48  1  0
 17 18  1  0
 17 49  1  6
 18 19  1  0
 18 20  1  0
 18 50  1  1
 19 51  1  0
 20 21  1  0
 20 22  1  0
 20 52  1  1
 21 53  1  0
 22 23  1  0
 22 54  1  1
 23 24  1  1
 23 25  1  0
 24 55  1  0
 25 26  1  0
 25 29  1  0
 25 56  1  1
 26 27  1  0
 26 28  1  0
 26 57  1  0
 27 58  1  0
 27 59  1  0
 27 60  1  0
 28 61  1  0
 28 62  1  0
 28 63  1  0
 29 30  1  0
 29 31  1  0
 29 64  1  1
 30 65  1  0
 30 66  1  0
 30 67  1  0
 31 68  1  0
 31 69  1  0
M  END
>  <i_m_ct_stereo_status>  (450) 
1

>  <s_m_source_file>  (450) 
/var/tmp/pbs.5076255.sched01/tmp9yj1qf5s/135tauqa2n_.sdf

>  <i_m_source_file_index>  (450) 
37

>  <i_lp_mmshare_version>  (450) 
48012

>  <i_f3d_flags>  (450) 
0

>  <s_epik_input>  (450) 
Tz1DMVtDQEhdKFtDSDJdMilDKEMzPVtDSDJdKT1DMltDSDJdW0NASF0oW0NIM10pW0NASF0oW0NIXShbQ0gzXSlbQ0gzXSlbQ0BAXTQoW09IXSlbQ0BIXTNbQ0BIXShbT0hdKVtDQEhdKFtPSF0pW0NASF0oW0NAXTE0NSlDKFtDSDNdKShbQ0gzXSlbQ0gyXVtDSDJdW0NAQEhdNVtPSF0=

>  <s_epik_cmdline>  (450) 
J2VwaWtfcHl0aG9uJywgJy1waHQnLCAnMi4wJywgJy1waCcsICc3LjAnLCAnLXRuJywgJzgnLCAnLW1hJywgJzIwMCcsICctaW1hZScsICc8aW5maWxlLm1hZT4nLCAnLW9tYWUnLCAnPG91dGZpbGUubWFlPic=

>  <r_lp_tautomer_probability>  (450) 
1

>  <r_epik_Ionization_Penalty>  (450) 
2.38645e-07

>  <r_epik_Ionization_Penalty_Charging>  (450) 
0

>  <r_epik_Ionization_Penalty_Neutral>  (450) 
2.38645e-07

>  <r_epik_State_Penalty>  (450) 
-0

>  <r_epik_Charging_Adjusted_Penalty>  (450) 
0

>  <i_epik_Tot_Q>  (450) 
0

>  <i_epik_Tot_abs_Q>  (450) 
0

>  <s_lp_Force_Field>  (450) 
OPLS3e

>  <r_lp_Energy>  (450) 
206.609

>  <b_lp_Chiralities_Consistent>  (450) 
1

>  <s_lp_Variant>  (450) 
108:0-2

>  <s_i_glide_gridfile>  (450) 
pfpi4k_grid

>  <i_i_glide_lignum>  (450) 
37

>  <i_i_glide_rotatable_bonds>  (450) 
5

>  <r_i_docking_score>  (450) 
-2.29645

>  <r_i_glide_ligand_efficiency>  (450) 
-0.0740791

>  <r_i_glide_ligand_efficiency_sa>  (450) 
-0.232711

>  <r_i_glide_ligand_efficiency_ln>  (450) 
-0.51792

>  <r_i_glide_gscore>  (450) 
-2.29645

>  <r_i_glide_lipo>  (450) 
-0.0468864

>  <r_i_glide_hbond>  (450) 
0

>  <r_i_glide_metal>  (450) 
-0

>  <r_i_glide_rewards>  (450) 
-0.973339

>  <r_i_glide_evdw>  (450) 
-21.2346

>  <r_i_glide_ecoul>  (450) 
-1.31678

>  <r_i_glide_erotb>  (450) 
0

>  <r_i_glide_esite>  (450) 
-0.0169769

>  <r_i_glide_emodel>  (450) 
-29.6023

>  <r_i_glide_energy>  (450) 
-22.5514

>  <r_i_glide_einternal>  (450) 
0.646923

>  <r_i_glide_intrahb_reward>  (450) 
-0.5

>  <i_i_glide_confnum>  (450) 
1

>  <i_i_glide_posenum>  (450) 
18

>  <r_i_glide_eff_state_penalty>  (450) 
0

>  <ligand_id>  (450) 
108

>  <original_smiles>  (450) 
C=C1C2=C3CC2C(=O)C24C(O)CCC(C)(C)C2C(O)C(O)C1C4(O)C(C(C)C)C(C)C3

>  <smiles>  (450) 
[H]OC1([H])C([H])(O[H])C2([H])C3(C(=O)C4([H])C5=C(C4([H])[H])C([H])([H])C([H])(C([H])([H])[H])C([H])(C([H])(C([H])([H])[H])C([H])([H])[H])C3(O[H])C1([H])C5=C([H])[H])C([H])(O[H])C([H])([H])C([H])([H])C2(C([H])([H])[H])C([H])([H])[H]

$$$$
110:0:0
     RDKit          3D

 93 99  0  0  1  0  0  0  0  0999 V2000
    4.2684   -8.9368    0.9445 C   0  0  0  0  0  0  0  0  0  0  0  0
    5.1515   -9.1459    2.1925 C   0  0  0  0  0  0  0  0  0  0  0  0
    6.2044  -10.2383    1.9054 C   0  0  0  0  0  0  0  0  0  0  0  0
    4.3102   -9.4381    3.4417 C   0  0  0  0  0  0  0  0  0  0  0  0
    3.5424  -10.5297    3.5611 C   0  0  0  0  0  0  0  0  0  0  0  0
    2.8650  -10.6536    4.8975 C   0  0  1  0  0  0  0  0  0  0  0  0
    3.4099  -11.7216    5.6418 O   0  0  0  0  0  0  0  0  0  0  0  0
    3.1523   -9.2682    5.5170 C   0  0  2  0  0  0  0  0  0  0  0  0
    1.9977   -8.2396    5.2950 C   0  0  0  0  0  0  0  0  0  0  0  0
    1.2913   -8.3168    3.9087 C   0  0  0  0  0  0  0  0  0  0  0  0
    0.9062   -8.4296    6.3666 C   0  0  0  0  0  0  0  0  0  0  0  0
    2.7648   -6.9142    5.4826 C   0  0  2  0  0  0  0  0  0  0  0  0
    2.2047   -5.6056    4.8948 C   0  0  0  0  0  0  0  0  0  0  0  0
    2.8767   -5.4427    3.5203 C   0  0  2  0  0  0  0  0  0  0  0  0
    4.2044   -6.2257    3.6050 C   0  0  1  0  0  0  0  0  0  0  0  0
    5.5025   -5.4437    3.2944 C   0  0  0  0  0  0  0  0  0  0  0  0
    6.5872   -6.0125    3.2935 O   0  0  0  0  0  0  0  0  0  0  0  0
    5.4022   -4.1406    2.9335 O   0  0  0  0  0  0  0  0  0  0  0  0
    4.2657   -3.2978    3.1221 C   0  0  2  0  0  0  0  0  0  0  0  0
    4.5154   -2.4835    4.4331 C   0  0  2  0  0  0  0  0  0  0  0  0
    4.2018   -3.1766    5.6194 O   0  0  0  0  0  0  0  0  0  0  0  0
    4.3476   -2.2706    6.6965 C   0  0  0  0  0  0  0  0  0  0  0  0
    3.7152   -0.9720    6.1842 C   0  0  2  0  0  0  0  0  0  0  0  0
    4.2631    0.2355    6.9737 C   0  0  0  0  0  0  0  0  0  0  0  0
    2.3342   -1.1424    6.5246 O   0  0  0  0  0  0  0  0  0  0  0  0
    1.3559   -0.5005    5.7173 C   0  0  0  0  0  0  0  0  0  0  0  0
    1.5318   -0.8662    4.2215 C   0  0  2  0  0  0  0  0  0  0  0  0
    0.3815   -0.2049    3.4208 C   0  0  0  0  0  0  0  0  0  0  0  0
    1.3422   -2.4237    4.2021 C   0  0  0  0  0  0  0  0  0  0  0  0
    1.5991   -3.2505    2.9288 C   0  0  0  0  0  0  0  0  0  0  0  0
    2.9345   -4.0562    2.7942 C   0  0  2  0  0  0  0  0  0  0  0  0
    3.0091   -4.3845    1.2720 C   0  0  0  0  0  0  0  0  0  0  0  0
    2.9428   -0.3250    3.7680 C   0  0  0  0  0  0  0  0  0  0  0  0
    3.2180   -0.4229    2.2405 C   0  0  0  0  0  0  0  0  0  0  0  0
    3.0652    1.2222    3.9626 C   0  0  0  0  0  0  0  0  0  0  0  0
    4.0394   -1.0084    4.6556 C   0  0  2  0  0  0  0  0  0  0  0  0
    4.1987   -7.0896    4.9219 C   0  0  1  0  0  0  0  0  0  0  0  0
    5.1021   -6.4510    6.0431 C   0  0  0  0  0  0  0  0  0  0  0  0
    4.4180   -8.6766    4.7870 C   0  0  2  0  0  0  0  0  0  0  0  0
    5.7614   -9.1452    5.4252 C   0  0  0  0  0  0  0  0  0  0  0  0
    5.7437   -9.8102    6.4877 O   0  0  0  0  0  0  0  0  0  0  0  0
    6.8164   -8.7875    4.8480 O   0  0  0  0  0  0  0  0  0  0  0  0
    3.5295   -8.1513    1.0965 H   0  0  0  0  0  0  0  0  0  0  0  0
    3.7299   -9.8470    0.6722 H   0  0  0  0  0  0  0  0  0  0  0  0
    4.8747   -8.6482    0.0864 H   0  0  0  0  0  0  0  0  0  0  0  0
    5.7154   -8.2370    2.3614 H   0  0  0  0  0  0  0  0  0  0  0  0
    6.8862  -10.3674    2.7478 H   0  0  0  0  0  0  0  0  0  0  0  0
    6.8131   -9.9676    1.0407 H   0  0  0  0  0  0  0  0  0  0  0  0
    5.7588  -11.2103    1.6900 H   0  0  0  0  0  0  0  0  0  0  0  0
    3.4018  -11.2718    2.7877 H   0  0  0  0  0  0  0  0  0  0  0  0
    1.8021  -10.8510    4.7828 H   0  0  0  0  0  0  0  0  0  0  0  0
    2.7900  -11.9661    6.3246 H   0  0  0  0  0  0  0  0  0  0  0  0
    3.3310   -9.3510    6.5931 H   0  0  0  0  0  0  0  0  0  0  0  0
    0.5521   -7.5265    3.7902 H   0  0  0  0  0  0  0  0  0  0  0  0
    0.7376   -9.2448    3.7775 H   0  0  0  0  0  0  0  0  0  0  0  0
    1.9800   -8.2357    3.0705 H   0  0  0  0  0  0  0  0  0  0  0  0
    0.1406   -7.6562    6.2972 H   0  0  0  0  0  0  0  0  0  0  0  0
    1.3149   -8.4092    7.3777 H   0  0  0  0  0  0  0  0  0  0  0  0
    0.4102   -9.3926    6.2422 H   0  0  0  0  0  0  0  0  0  0  0  0
    2.8047   -6.7703    6.5638 H   0  0  0  0  0  0  0  0  0  0  0  0
    1.1134   -5.5910    4.8467 H   0  0  0  0  0  0  0  0  0  0  0  0
    2.4933   -4.8110    5.5733 H   0  0  0  0  0  0  0  0  0  0  0  0
    2.2440   -6.0489    2.8741 H   0  0  0  0  0  0  0  0  0  0  0  0
    4.1422   -6.9106    2.7747 H   0  0  0  0  0  0  0  0  0  0  0  0
    4.4327   -2.5863    2.3200 H   0  0  0  0  0  0  0  0  0  0  0  0
    5.6031   -2.3919    4.4802 H   0  0  0  0  0  0  0  0  0  0  0  0
    3.8649   -2.6577    7.5964 H   0  0  0  0  0  0  0  0  0  0  0  0
    5.4105   -2.1395    6.9101 H   0  0  0  0  0  0  0  0  0  0  0  0
    5.2680    0.5111    6.6559 H   0  0  0  0  0  0  0  0  0  0  0  0
    4.3088    0.0088    8.0394 H   0  0  0  0  0  0  0  0  0  0  0  0
    3.6274    1.1119    6.8848 H   0  0  0  0  0  0  0  0  0  0  0  0
    0.3838   -0.8485    6.0677 H   0  0  0  0  0  0  0  0  0  0  0  0
    1.3398    0.5678    5.9071 H   0  0  0  0  0  0  0  0  0  0  0  0
    0.4618   -0.3906    2.3502 H   0  0  0  0  0  0  0  0  0  0  0  0
    0.3568    0.8743    3.5640 H   0  0  0  0  0  0  0  0  0  0  0  0
   -0.5898   -0.5758    3.7470 H   0  0  0  0  0  0  0  0  0  0  0  0
    1.9054   -2.8785    5.0016 H   0  0  0  0  0  0  0  0  0  0  0  0
    0.3094   -2.6173    4.4973 H   0  0  0  0  0  0  0  0  0  0  0  0
    0.7961   -3.9861    2.8808 H   0  0  0  0  0  0  0  0  0  0  0  0
    1.4046   -2.6297    2.0567 H   0  0  0  0  0  0  0  0  0  0  0  0
    3.1460   -3.4819    0.6729 H   0  0  0  0  0  0  0  0  0  0  0  0
    2.1082   -4.8779    0.9043 H   0  0  0  0  0  0  0  0  0  0  0  0
    3.8409   -5.0458    1.0280 H   0  0  0  0  0  0  0  0  0  0  0  0
    4.2628   -0.2110    2.0120 H   0  0  0  0  0  0  0  0  0  0  0  0
    2.6236    0.2967    1.6758 H   0  0  0  0  0  0  0  0  0  0  0  0
    2.9756   -1.3658    1.7820 H   0  0  0  0  0  0  0  0  0  0  0  0
    4.0612    1.5739    3.6946 H   0  0  0  0  0  0  0  0  0  0  0  0
    2.8918    1.5774    4.9701 H   0  0  0  0  0  0  0  0  0  0  0  0
    2.3714    1.7765    3.3288 H   0  0  0  0  0  0  0  0  0  0  0  0
    4.9461   -0.4223    4.4977 H   0  0  0  0  0  0  0  0  0  0  0  0
    6.1670   -6.4305    5.7977 H   0  0  0  0  0  0  0  0  0  0  0  0
    5.0215   -7.0100    6.9807 H   0  0  0  0  0  0  0  0  0  0  0  0
    4.8106   -5.4274    6.2780 H   0  0  0  0  0  0  0  0  0  0  0  0
  1  2  1  0
  1 43  1  0
  1 44  1  0
  1 45  1  0
  2  3  1  0
  2  4  1  0
  2 46  1  0
  3 47  1  0
  3 48  1  0
  3 49  1  0
  4 39  1  0
  4  5  2  0
  5  6  1  0
  5 50  1  0
  6  7  1  0
  6  8  1  0
  6 51  1  6
  7 52  1  0
  8 39  1  0
  8  9  1  0
  8 53  1  1
  9 10  1  0
  9 11  1  0
  9 12  1  0
 10 54  1  0
 10 55  1  0
 10 56  1  0
 11 57  1  0
 11 58  1  0
 11 59  1  0
 12 37  1  0
 12 13  1  0
 12 60  1  1
 13 14  1  0
 13 61  1  0
 13 62  1  0
 14 31  1  0
 14 15  1  0
 14 63  1  6
 15 16  1  0
 15 37  1  0
 15 64  1  6
 16 17  2  0
 16 18  1  0
 18 19  1  0
 19 31  1  0
 19 20  1  0
 19 65  1  6
 20 36  1  0
 20 21  1  0
 20 66  1  1
 21 22  1  0
 22 23  1  0
 22 67  1  0
 22 68  1  0
 23 36  1  0
 23 24  1  1
 23 25  1  0
 24 69  1  0
 24 70  1  0
 24 71  1  0
 25 26  1  0
 26 27  1  0
 26 72  1  0
 26 73  1  0
 27 28  1  6
 27 29  1  0
 27 33  1  0
 28 74  1  0
 28 75  1  0
 28 76  1  0
 29 30  1  0
 29 77  1  0
 29 78  1  0
 30 31  1  0
 30 79  1  0
 30 80  1  0
 31 32  1  6
 32 81  1  0
 32 82  1  0
 32 83  1  0
 33 34  1  0
 33 35  1  0
 33 36  1  0
 34 84  1  0
 34 85  1  0
 34 86  1  0
 35 87  1  0
 35 88  1  0
 35 89  1  0
 36 90  1  1
 37 38  1  1
 37 39  1  0
 38 91  1  0
 38 92  1  0
 38 93  1  0
 39 40  1  1
 40 41  2  0
 40 42  1  0
M  CHG  1  42  -1
M  END
>  <i_m_ct_stereo_status>  (451) 
1

>  <s_m_source_file>  (451) 
/var/tmp/pbs.5076255.sched01/tmp9yj1qf5s/135tauqa2n_.sdf

>  <i_m_source_file_index>  (451) 
39

>  <i_lp_mmshare_version>  (451) 
48012

>  <i_f3d_flags>  (451) 
0

>  <s_epik_input>  (451) 
W09IXVtDQEBIXTFbQ0hdPUMoW0NIXShbQ0gzXSlbQ0gzXSlbQ0BdMihDKD1PKVtPSF0pW0NASF0xQyhbQ0gzXSkoW0NIM10pW0NASF0oW0NIMl0zKVtDQF0yKFtDSDNdKVtDQEhdKEMoPU8pTzQpW0NAQEhdM1tDQF0oW0NIM10pKFtDQEhdNFtDQEhdKE9bQ0gyXTUpW0NAQEhdNltDQF01N1tDSDNdKVtDSDJdW0NIMl1bQ0BdKFtDSDJdTzcpKFtDSDNdKUM2KFtDSDNdKVtDSDNd

>  <s_epik_cmdline>  (451) 
J2VwaWtfcHl0aG9uJywgJy1waHQnLCAnMi4wJywgJy1waCcsICc3LjAnLCAnLXRuJywgJzgnLCAnLW1hJywgJzIwMCcsICctaW1hZScsICc8aW5maWxlLm1hZT4nLCAnLW9tYWUnLCAnPG91dGZpbGUubWFlPic=

>  <r_epik_Ionization_Penalty>  (451) 
0.00140964

>  <r_epik_Ionization_Penalty_Charging>  (451) 
0.00140908

>  <r_epik_Ionization_Penalty_Neutral>  (451) 
5.59316e-07

>  <r_epik_State_Penalty>  (451) 
0.000940027

>  <r_epik_Charging_Adjusted_Penalty>  (451) 
0.00234911

>  <i_epik_Tot_Q>  (451) 
-1

>  <i_epik_Tot_abs_Q>  (451) 
1

>  <s_epik_Chemistry_Notes>  (451) 
This compound has an ester and may undergo hydrolysis at high or low pH.

>  <s_lp_Force_Field>  (451) 
OPLS3e

>  <r_lp_Energy>  (451) 
114.337

>  <b_lp_Chiralities_Consistent>  (451) 
1

>  <s_lp_Variant>  (451) 
110:0-1

>  <s_i_glide_gridfile>  (451) 
pfpi4k_grid

>  <i_i_glide_lignum>  (451) 
39

>  <i_i_glide_rotatable_bonds>  (451) 
3

>  <r_i_docking_score>  (451) 
-1.44028

>  <r_i_glide_ligand_efficiency>  (451) 
-0.0342923

>  <r_i_glide_ligand_efficiency_sa>  (451) 
-0.119201

>  <r_i_glide_ligand_efficiency_ln>  (451) 
-0.304005

>  <r_i_glide_gscore>  (451) 
-1.44028

>  <r_i_glide_lipo>  (451) 
-0.0497938

>  <r_i_glide_hbond>  (451) 
0

>  <r_i_glide_metal>  (451) 
-0

>  <r_i_glide_rewards>  (451) 
-0.00487773

>  <r_i_glide_evdw>  (451) 
-21.1129

>  <r_i_glide_ecoul>  (451) 
-2.19972

>  <r_i_glide_erotb>  (451) 
0

>  <r_i_glide_esite>  (451) 
0

>  <r_i_glide_emodel>  (451) 
-24.0985

>  <r_i_glide_energy>  (451) 
-23.3126

>  <r_i_glide_einternal>  (451) 
2.05489

>  <r_i_glide_intrahb_reward>  (451) 
-0

>  <i_i_glide_confnum>  (451) 
1

>  <i_i_glide_posenum>  (451) 
33

>  <r_i_glide_eff_state_penalty>  (451) 
0

>  <ligand_id>  (451) 
110

>  <original_smiles>  (451) 
CC(C)C1=CC(O)C2C(C)(C)C3CC4C(C(=O)OC5C6OCC7(C)OCC(C)(CCC45C)C(C)(C)C67)C3(C)C12C(=O)O

>  <smiles>  (451) 
[H]OC1([H])C([H])=C(C([H])(C([H])([H])[H])C([H])([H])[H])C2(C(=O)[O-])C1([H])C(C([H])([H])[H])(C([H])([H])[H])C1([H])C([H])([H])C3([H])C([H])(C(=O)OC4([H])C5([H])OC([H])([H])C6(C([H])([H])[H])OC([H])([H])C(C([H])([H])[H])(C([H])([H])C([H])([H])C43C([H])([H])[H])C(C([H])([H])[H])(C([H])([H])[H])C56[H])C21C([H])([H])[H]

$$$$
110:0:1
     RDKit          3D

 93 99  0  0  1  0  0  0  0  0999 V2000
    4.1742   -8.8987    0.9013 C   0  0  0  0  0  0  0  0  0  0  0  0
    5.3263   -9.0639    1.9149 C   0  0  0  0  0  0  0  0  0  0  0  0
    6.2961  -10.1502    1.4114 C   0  0  0  0  0  0  0  0  0  0  0  0
    4.8072   -9.3474    3.3293 C   0  0  0  0  0  0  0  0  0  0  0  0
    4.1692  -10.4786    3.6559 C   0  0  0  0  0  0  0  0  0  0  0  0
    3.8187  -10.5788    5.1141 C   0  0  1  0  0  0  0  0  0  0  0  0
    4.5958  -11.5705    5.7460 O   0  0  0  0  0  0  0  0  0  0  0  0
    4.1364   -9.1491    5.6053 C   0  0  2  0  0  0  0  0  0  0  0  0
    2.8892   -8.2089    5.6137 C   0  0  0  0  0  0  0  0  0  0  0  0
    1.9001   -8.4020    4.4260 C   0  0  0  0  0  0  0  0  0  0  0  0
    2.0814   -8.4146    6.9099 C   0  0  0  0  0  0  0  0  0  0  0  0
    3.5798   -6.8303    5.5765 C   0  0  2  0  0  0  0  0  0  0  0  0
    2.8087   -5.5919    5.0848 C   0  0  0  0  0  0  0  0  0  0  0  0
    3.1442   -5.4550    3.5901 C   0  0  2  0  0  0  0  0  0  0  0  0
    4.5133   -6.1445    3.4048 C   0  0  1  0  0  0  0  0  0  0  0  0
    5.6472   -5.3009    2.7788 C   0  0  0  0  0  0  0  0  0  0  0  0
    6.7407   -5.8032    2.5478 O   0  0  0  0  0  0  0  0  0  0  0  0
    5.3764   -4.0248    2.4080 O   0  0  0  0  0  0  0  0  0  0  0  0
    4.2482   -3.2483    2.8153 C   0  0  2  0  0  0  0  0  0  0  0  0
    4.7236   -2.3550    4.0065 C   0  0  2  0  0  0  0  0  0  0  0  0
    4.7362   -3.0067    5.2558 O   0  0  0  0  0  0  0  0  0  0  0  0
    5.0483   -2.0402    6.2407 C   0  0  0  0  0  0  0  0  0  0  0  0
    4.2238   -0.8127    5.8395 C   0  0  2  0  0  0  0  0  0  0  0  0
    4.8444    0.4653    6.4418 C   0  0  0  0  0  0  0  0  0  0  0  0
    2.9696   -1.0541    6.4887 O   0  0  0  0  0  0  0  0  0  0  0  0
    1.7918   -0.5173    5.9018 C   0  0  0  0  0  0  0  0  0  0  0  0
    1.6569   -0.9463    4.4191 C   0  0  2  0  0  0  0  0  0  0  0  0
    0.3126   -0.4003    3.8759 C   0  0  0  0  0  0  0  0  0  0  0  0
    1.5807   -2.5119    4.4984 C   0  0  0  0  0  0  0  0  0  0  0  0
    1.6021   -3.3837    3.2303 C   0  0  0  0  0  0  0  0  0  0  0  0
    2.9346   -4.1050    2.8230 C   0  0  2  0  0  0  0  0  0  0  0  0
    2.6966   -4.5054    1.3359 C   0  0  0  0  0  0  0  0  0  0  0  0
    2.8871   -0.3400    3.6400 C   0  0  0  0  0  0  0  0  0  0  0  0
    2.8224   -0.4960    2.0932 C   0  0  0  0  0  0  0  0  0  0  0  0
    2.9307    1.2183    3.7532 C   0  0  0  0  0  0  0  0  0  0  0  0
    4.2016   -0.9049    4.2798 C   0  0  2  0  0  0  0  0  0  0  0  0
    4.8626   -6.9419    4.7157 C   0  0  1  0  0  0  0  0  0  0  0  0
    5.9441   -6.1929    5.5798 C   0  0  0  0  0  0  0  0  0  0  0  0
    5.1601   -8.5162    4.5884 C   0  0  2  0  0  0  0  0  0  0  0  0
    6.6420   -8.8712    4.9225 C   0  0  0  0  0  0  0  0  0  0  0  0
    6.9119   -9.4691    5.9914 O   0  0  0  0  0  0  0  0  0  0  0  0
    7.5102   -8.4964    4.0994 O   0  0  0  0  0  0  0  0  0  0  0  0
    3.4692   -8.1255    1.2001 H   0  0  0  0  0  0  0  0  0  0  0  0
    3.6064   -9.8240    0.7833 H   0  0  0  0  0  0  0  0  0  0  0  0
    4.5587   -8.6229   -0.0807 H   0  0  0  0  0  0  0  0  0  0  0  0
    5.8980   -8.1423    1.9365 H   0  0  0  0  0  0  0  0  0  0  0  0
    7.1467  -10.2645    2.0840 H   0  0  0  0  0  0  0  0  0  0  0  0
    6.6900   -9.8862    0.4294 H   0  0  0  0  0  0  0  0  0  0  0  0
    5.8155  -11.1238    1.3152 H   0  0  0  0  0  0  0  0  0  0  0  0
    3.9183  -11.2672    2.9591 H   0  0  0  0  0  0  0  0  0  0  0  0
    2.7754  -10.8486    5.2551 H   0  0  0  0  0  0  0  0  0  0  0  0
    4.0065  -12.1657    6.1922 H   0  0  0  0  0  0  0  0  0  0  0  0
    4.5554   -9.1698    6.6156 H   0  0  0  0  0  0  0  0  0  0  0  0
    1.0979   -7.6670    4.4509 H   0  0  0  0  0  0  0  0  0  0  0  0
    1.4001   -9.3685    4.4558 H   0  0  0  0  0  0  0  0  0  0  0  0
    2.3766   -8.3191    3.4517 H   0  0  0  0  0  0  0  0  0  0  0  0
    1.2644   -7.6966    6.9870 H   0  0  0  0  0  0  0  0  0  0  0  0
    2.7016   -8.3163    7.8017 H   0  0  0  0  0  0  0  0  0  0  0  0
    1.6434   -9.4126    6.9343 H   0  0  0  0  0  0  0  0  0  0  0  0
    3.8487   -6.6306    6.6148 H   0  0  0  0  0  0  0  0  0  0  0  0
    1.7362   -5.6490    5.2840 H   0  0  0  0  0  0  0  0  0  0  0  0
    3.1827   -4.7481    5.6528 H   0  0  0  0  0  0  0  0  0  0  0  0
    2.4317   -6.1329    3.1239 H   0  0  0  0  0  0  0  0  0  0  0  0
    4.3299   -6.8733    2.6346 H   0  0  0  0  0  0  0  0  0  0  0  0
    4.1802   -2.5689    1.9717 H   0  0  0  0  0  0  0  0  0  0  0  0
    5.7842   -2.1894    3.8009 H   0  0  0  0  0  0  0  0  0  0  0  0
    4.8074   -2.4118    7.2390 H   0  0  0  0  0  0  0  0  0  0  0  0
    6.1191   -1.8301    6.2034 H   0  0  0  0  0  0  0  0  0  0  0  0
    5.7304    0.7874    5.8961 H   0  0  0  0  0  0  0  0  0  0  0  0
    5.1423    0.2964    7.4772 H   0  0  0  0  0  0  0  0  0  0  0  0
    4.1426    1.2941    6.4678 H   0  0  0  0  0  0  0  0  0  0  0  0
    0.9494   -0.9071    6.4742 H   0  0  0  0  0  0  0  0  0  0  0  0
    1.7406    0.5562    6.0524 H   0  0  0  0  0  0  0  0  0  0  0  0
    0.1741   -0.6342    2.8218 H   0  0  0  0  0  0  0  0  0  0  0  0
    0.2420    0.6810    3.9831 H   0  0  0  0  0  0  0  0  0  0  0  0
   -0.5331   -0.8166    4.4226 H   0  0  0  0  0  0  0  0  0  0  0  0
    2.3418   -2.8893    5.1630 H   0  0  0  0  0  0  0  0  0  0  0  0
    0.6570   -2.7545    5.0264 H   0  0  0  0  0  0  0  0  0  0  0  0
    0.8626   -4.1703    3.3850 H   0  0  0  0  0  0  0  0  0  0  0  0
    1.1630   -2.8132    2.4150 H   0  0  0  0  0  0  0  0  0  0  0  0
    2.6266   -3.6277    0.6897 H   0  0  0  0  0  0  0  0  0  0  0  0
    1.7813   -5.0815    1.2021 H   0  0  0  0  0  0  0  0  0  0  0  0
    3.5020   -5.1219    0.9349 H   0  0  0  0  0  0  0  0  0  0  0  0
    3.7717   -0.2287    1.6285 H   0  0  0  0  0  0  0  0  0  0  0  0
    2.0672    0.1554    1.6507 H   0  0  0  0  0  0  0  0  0  0  0  0
    2.5522   -1.4748    1.7344 H   0  0  0  0  0  0  0  0  0  0  0  0
    3.8162    1.6216    3.2647 H   0  0  0  0  0  0  0  0  0  0  0  0
    2.9610    1.6130    4.7593 H   0  0  0  0  0  0  0  0  0  0  0  0
    2.0824    1.6974    3.2654 H   0  0  0  0  0  0  0  0  0  0  0  0
    5.0041   -0.2707    3.9009 H   0  0  0  0  0  0  0  0  0  0  0  0
    6.9231   -6.1185    5.0992 H   0  0  0  0  0  0  0  0  0  0  0  0
    6.1131   -6.7084    6.5300 H   0  0  0  0  0  0  0  0  0  0  0  0
    5.6366   -5.1795    5.8374 H   0  0  0  0  0  0  0  0  0  0  0  0
  1  2  1  0
  1 43  1  0
  1 44  1  0
  1 45  1  0
  2  3  1  0
  2  4  1  0
  2 46  1  0
  3 47  1  0
  3 48  1  0
  3 49  1  0
  4 39  1  0
  4  5  2  0
  5  6  1  0
  5 50  1  0
  6  7  1  0
  6  8  1  0
  6 51  1  6
  7 52  1  0
  8 39  1  0
  8  9  1  0
  8 53  1  1
  9 10  1  0
  9 11  1  0
  9 12  1  0
 10 54  1  0
 10 55  1  0
 10 56  1  0
 11 57  1  0
 11 58  1  0
 11 59  1  0
 12 37  1  0
 12 13  1  0
 12 60  1  1
 13 14  1  0
 13 61  1  0
 13 62  1  0
 14 31  1  0
 14 15  1  0
 14 63  1  6
 15 16  1  0
 15 37  1  0
 15 64  1  6
 16 17  2  0
 16 18  1  0
 18 19  1  0
 19 31  1  0
 19 20  1  0
 19 65  1  6
 20 36  1  0
 20 21  1  0
 20 66  1  6
 21 22  1  0
 22 23  1  0
 22 67  1  0
 22 68  1  0
 23 36  1  0
 23 24  1  6
 23 25  1  0
 24 69  1  0
 24 70  1  0
 24 71  1  0
 25 26  1  0
 26 27  1  0
 26 72  1  0
 26 73  1  0
 27 28  1  6
 27 29  1  0
 27 33  1  0
 28 74  1  0
 28 75  1  0
 28 76  1  0
 29 30  1  0
 29 77  1  0
 29 78  1  0
 30 31  1  0
 30 79  1  0
 30 80  1  0
 31 32  1  6
 32 81  1  0
 32 82  1  0
 32 83  1  0
 33 34  1  0
 33 35  1  0
 33 36  1  0
 34 84  1  0
 34 85  1  0
 34 86  1  0
 35 87  1  0
 35 88  1  0
 35 89  1  0
 36 90  1  6
 37 38  1  1
 37 39  1  0
 38 91  1  0
 38 92  1  0
 38 93  1  0
 39 40  1  1
 40 41  2  0
 40 42  1  0
M  CHG  1  42  -1
M  END
>  <i_m_ct_stereo_status>  (452) 
1

>  <s_m_source_file>  (452) 
/var/tmp/pbs.5076255.sched01/tmp9yj1qf5s/135tauqa2n_.sdf

>  <i_m_source_file_index>  (452) 
39

>  <i_lp_mmshare_version>  (452) 
48012

>  <i_f3d_flags>  (452) 
0

>  <s_epik_input>  (452) 
W09IXVtDQEBIXTFbQ0hdPUMoW0NIXShbQ0gzXSlbQ0gzXSlbQ0BdMihDKD1PKVtPSF0pW0NASF0xQyhbQ0gzXSkoW0NIM10pW0NASF0oW0NIMl0zKVtDQF0yKFtDSDNdKVtDQEhdKEMoPU8pTzQpW0NAQEhdM1tDQF0oW0NIM10pKFtDQEhdNFtDQEhdKE9bQ0gyXTUpW0NAQEhdNltDQF01N1tDSDNdKVtDSDJdW0NIMl1bQ0BdKFtDSDJdTzcpKFtDSDNdKUM2KFtDSDNdKVtDSDNd

>  <s_epik_cmdline>  (452) 
J2VwaWtfcHl0aG9uJywgJy1waHQnLCAnMi4wJywgJy1waCcsICc3LjAnLCAnLXRuJywgJzgnLCAnLW1hJywgJzIwMCcsICctaW1hZScsICc8aW5maWxlLm1hZT4nLCAnLW9tYWUnLCAnPG91dGZpbGUubWFlPic=

>  <r_epik_Ionization_Penalty>  (452) 
0.00140964

>  <r_epik_Ionization_Penalty_Charging>  (452) 
0.00140908

>  <r_epik_Ionization_Penalty_Neutral>  (452) 
5.59316e-07

>  <r_epik_State_Penalty>  (452) 
0.000940027

>  <r_epik_Charging_Adjusted_Penalty>  (452) 
0.00234911

>  <i_epik_Tot_Q>  (452) 
-1

>  <i_epik_Tot_abs_Q>  (452) 
1

>  <s_epik_Chemistry_Notes>  (452) 
This compound has an ester and may undergo hydrolysis at high or low pH.

>  <s_lp_Force_Field>  (452) 
OPLS3e

>  <r_lp_Energy>  (452) 
114.337

>  <b_lp_Chiralities_Consistent>  (452) 
1

>  <s_lp_Variant>  (452) 
110:0-1

>  <s_i_glide_gridfile>  (452) 
pfpi4k_grid

>  <i_i_glide_lignum>  (452) 
39

>  <i_i_glide_rotatable_bonds>  (452) 
3

>  <r_i_docking_score>  (452) 
-1.35153

>  <r_i_glide_ligand_efficiency>  (452) 
-0.0321794

>  <r_i_glide_ligand_efficiency_sa>  (452) 
-0.111856

>  <r_i_glide_ligand_efficiency_ln>  (452) 
-0.285274

>  <r_i_glide_gscore>  (452) 
-1.35153

>  <r_i_glide_lipo>  (452) 
-0.0795467

>  <r_i_glide_hbond>  (452) 
0

>  <r_i_glide_metal>  (452) 
-0

>  <r_i_glide_rewards>  (452) 
-0.0174042

>  <r_i_glide_evdw>  (452) 
-21.0217

>  <r_i_glide_ecoul>  (452) 
-1.35664

>  <r_i_glide_erotb>  (452) 
0

>  <r_i_glide_esite>  (452) 
0

>  <r_i_glide_emodel>  (452) 
-23.0334

>  <r_i_glide_energy>  (452) 
-22.3784

>  <r_i_glide_einternal>  (452) 
2.21884

>  <r_i_glide_intrahb_reward>  (452) 
-0

>  <i_i_glide_confnum>  (452) 
1

>  <i_i_glide_posenum>  (452) 
1

>  <r_i_glide_eff_state_penalty>  (452) 
0

>  <ligand_id>  (452) 
110

>  <original_smiles>  (452) 
CC(C)C1=CC(O)C2C(C)(C)C3CC4C(C(=O)OC5C6OCC7(C)OCC(C)(CCC45C)C(C)(C)C67)C3(C)C12C(=O)O

>  <smiles>  (452) 
[H]OC1([H])C([H])=C(C([H])(C([H])([H])[H])C([H])([H])[H])C2(C(=O)[O-])C1([H])C(C([H])([H])[H])(C([H])([H])[H])C1([H])C([H])([H])C3([H])C([H])(C(=O)OC4([H])C5([H])OC([H])([H])C6(C([H])([H])[H])OC([H])([H])C(C([H])([H])[H])(C([H])([H])C([H])([H])C43C([H])([H])[H])C(C([H])([H])[H])(C([H])([H])[H])C56[H])C21C([H])([H])[H]

$$$$
112:0:0
     RDKit          3D

 33 35  0  0  1  0  0  0  0  0999 V2000
    4.8710   -0.6564   -0.9717 O   0  0  0  0  0  0  0  0  0  0  0  0
    4.3720   -1.2663   -1.9040 C   0  0  0  0  0  0  0  0  0  0  0  0
    3.7578   -0.6803   -2.8690 N   0  0  0  0  0  0  0  0  0  0  0  0
    3.3005   -1.6064   -3.8608 C   0  0  0  0  0  0  0  0  0  0  0  0
    3.6546   -3.0043   -3.3248 C   0  0  0  0  0  0  0  0  0  0  0  0
    4.4760   -2.7833   -2.0356 C   0  0  0  0  0  0  0  0  0  0  0  0
    3.8445   -3.5579   -0.8466 C   0  0  0  0  0  0  0  0  0  0  0  0
    4.6637   -3.5074    0.4394 C   0  0  0  0  0  0  0  0  0  0  0  0
    6.0354   -3.9208    0.1576 N   0  0  0  0  0  0  0  0  0  0  0  0
    6.6701   -4.9180    0.9286 C   0  0  0  0  0  0  0  0  0  0  0  0
    5.9298   -5.9354    1.6023 C   0  0  0  0  0  0  0  0  0  0  0  0
    6.5223   -6.9036    2.3358 N   0  0  0  0  0  0  0  0  0  0  0  0
    7.8668   -6.8555    2.3985 C   0  0  0  0  0  0  0  0  0  0  0  0
    8.6140   -5.8541    1.7290 C   0  0  0  0  0  0  0  0  0  0  0  0
    8.0243   -4.9016    0.9840 N   0  0  0  0  0  0  0  0  0  0  0  0
    6.7615   -3.1861   -0.8805 C   0  0  0  0  0  0  0  0  0  0  0  0
    5.9561   -3.2344   -2.1966 C   0  0  0  0  0  0  0  0  0  0  0  0
    3.5346    0.3015   -2.8443 H   0  0  0  0  0  0  0  0  0  0  0  0
    2.2238   -1.5221   -4.0058 H   0  0  0  0  0  0  0  0  0  0  0  0
    3.8336   -1.4223   -4.7897 H   0  0  0  0  0  0  0  0  0  0  0  0
    2.7130   -3.5255   -3.1099 H   0  0  0  0  0  0  0  0  0  0  0  0
    4.1737   -3.6304   -4.0645 H   0  0  0  0  0  0  0  0  0  0  0  0
    2.8357   -3.1878   -0.6605 H   0  0  0  0  0  0  0  0  0  0  0  0
    3.7464   -4.6148   -1.1111 H   0  0  0  0  0  0  0  0  0  0  0  0
    4.6668   -2.4968    0.8332 H   0  0  0  0  0  0  0  0  0  0  0  0
    4.1549   -4.1062    1.1917 H   0  0  0  0  0  0  0  0  0  0  0  0
    4.8545   -6.0076    1.5356 H   0  0  0  0  0  0  0  0  0  0  0  0
    8.3585   -7.6120    2.9872 H   0  0  0  0  0  0  0  0  0  0  0  0
    9.6897   -5.8273    1.7954 H   0  0  0  0  0  0  0  0  0  0  0  0
    6.9071   -2.1653   -0.5410 H   0  0  0  0  0  0  0  0  0  0  0  0
    7.7612   -3.5807   -1.0658 H   0  0  0  0  0  0  0  0  0  0  0  0
    5.9627   -4.2546   -2.5786 H   0  0  0  0  0  0  0  0  0  0  0  0
    6.4793   -2.6705   -2.9668 H   0  0  0  0  0  0  0  0  0  0  0  0
  1  2  2  0
  2  6  1  0
  2  3  1  0
  3  4  1  0
  3 18  1  0
  4  5  1  0
  4 19  1  0
  4 20  1  0
  5  6  1  0
  5 21  1  0
  5 22  1  0
  6 17  1  0
  6  7  1  0
  7  8  1  0
  7 23  1  0
  7 24  1  0
  8  9  1  0
  8 25  1  0
  8 26  1  0
  9 10  1  0
  9 16  1  0
 10 15  1  0
 10 11  2  0
 11 12  1  0
 11 27  1  0
 12 13  2  0
 13 14  1  0
 13 28  1  0
 14 15  2  0
 14 29  1  0
 16 17  1  0
 16 30  1  0
 16 31  1  0
 17 32  1  0
 17 33  1  0
M  END
>  <i_m_ct_stereo_status>  (453) 
1

>  <s_m_source_file>  (453) 
/var/tmp/pbs.5076255.sched01/tmp9yj1qf5s/135tauqa2n_.sdf

>  <i_m_source_file_index>  (453) 
41

>  <i_lp_mmshare_version>  (453) 
48012

>  <i_f3d_flags>  (453) 
0

>  <s_epik_input>  (453) 
W0NIMl0xW0NIMl1bTkhdQyg9TylDMTJbQ0gyXVtDSDJdTihbQ0gyXVtDSDJdMiljM1tjSF1uW2NIXVtjSF1uMw==

>  <s_epik_cmdline>  (453) 
J2VwaWtfcHl0aG9uJywgJy1waHQnLCAnMi4wJywgJy1waCcsICc3LjAnLCAnLXRuJywgJzgnLCAnLW1hJywgJzIwMCcsICctaW1hZScsICc8aW5maWxlLm1hZT4nLCAnLW9tYWUnLCAnPG91dGZpbGUubWFlPic=

>  <r_lp_tautomer_probability>  (453) 
1

>  <r_epik_Ionization_Penalty>  (453) 
0.000769618

>  <r_epik_Ionization_Penalty_Charging>  (453) 
0

>  <r_epik_Ionization_Penalty_Neutral>  (453) 
0.000769618

>  <r_epik_State_Penalty>  (453) 
0.000343358

>  <r_epik_Charging_Adjusted_Penalty>  (453) 
0.000343358

>  <i_epik_Tot_Q>  (453) 
0

>  <i_epik_Tot_abs_Q>  (453) 
0

>  <s_lp_Force_Field>  (453) 
OPLS3e

>  <r_lp_Energy>  (453) 
31.7065

>  <b_lp_Chiralities_Consistent>  (453) 
1

>  <s_lp_Variant>  (453) 
112:0-1

>  <s_i_glide_gridfile>  (453) 
pfpi4k_grid

>  <i_i_glide_lignum>  (453) 
41

>  <i_i_glide_rotatable_bonds>  (453) 
1

>  <r_i_docking_score>  (453) 
-3.96375

>  <r_i_glide_ligand_efficiency>  (453) 
-0.233162

>  <r_i_glide_ligand_efficiency_sa>  (453) 
-0.599525

>  <r_i_glide_ligand_efficiency_ln>  (453) 
-1.03405

>  <r_i_glide_gscore>  (453) 
-3.96375

>  <r_i_glide_lipo>  (453) 
-0.79308

>  <r_i_glide_hbond>  (453) 
0

>  <r_i_glide_metal>  (453) 
-0

>  <r_i_glide_rewards>  (453) 
-1.92724

>  <r_i_glide_evdw>  (453) 
-27.066

>  <r_i_glide_ecoul>  (453) 
-1.09182

>  <r_i_glide_erotb>  (453) 
0.317428

>  <r_i_glide_esite>  (453) 
-0.0437864

>  <r_i_glide_emodel>  (453) 
-34.8566

>  <r_i_glide_energy>  (453) 
-28.1578

>  <r_i_glide_einternal>  (453) 
0.172661

>  <r_i_glide_intrahb_reward>  (453) 
-0

>  <i_i_glide_confnum>  (453) 
3

>  <i_i_glide_posenum>  (453) 
30

>  <r_i_glide_eff_state_penalty>  (453) 
0

>  <ligand_id>  (453) 
112

>  <original_smiles>  (453) 
O=C1NCCC12CCN(c1cnccn1)CC2

>  <smiles>  (453) 
[H]c1nc([H])c(N2C([H])([H])C([H])([H])C3(C(=O)N([H])C([H])([H])C3([H])[H])C([H])([H])C2([H])[H])nc1[H]

$$$$
112:0:1
     RDKit          3D

 33 35  0  0  1  0  0  0  0  0999 V2000
    4.5148   -0.7770   -0.9849 O   0  0  0  0  0  0  0  0  0  0  0  0
    4.2003   -1.1105   -2.1281 C   0  0  0  0  0  0  0  0  0  0  0  0
    4.1551   -0.2934   -3.1208 N   0  0  0  0  0  0  0  0  0  0  0  0
    3.8115   -0.9407   -4.3600 C   0  0  0  0  0  0  0  0  0  0  0  0
    3.4999   -2.3949   -3.9900 C   0  0  0  0  0  0  0  0  0  0  0  0
    3.8546   -2.5558   -2.5053 C   0  0  0  0  0  0  0  0  0  0  0  0
    2.6249   -3.1055   -1.7694 C   0  0  0  0  0  0  0  0  0  0  0  0
    2.8751   -3.4077   -0.2886 C   0  0  0  0  0  0  0  0  0  0  0  0
    4.0511   -4.2736   -0.1483 N   0  0  0  0  0  0  0  0  0  0  0  0
    3.9573   -5.5260    0.5112 C   0  0  0  0  0  0  0  0  0  0  0  0
    5.0764   -6.3990    0.6616 C   0  0  0  0  0  0  0  0  0  0  0  0
    5.0037   -7.5853    1.2963 N   0  0  0  0  0  0  0  0  0  0  0  0
    3.8040   -7.9198    1.8005 C   0  0  0  0  0  0  0  0  0  0  0  0
    2.6821   -7.0682    1.6782 C   0  0  0  0  0  0  0  0  0  0  0  0
    2.7579   -5.8822    1.0381 N   0  0  0  0  0  0  0  0  0  0  0  0
    5.2863   -3.7938   -0.7779 C   0  0  0  0  0  0  0  0  0  0  0  0
    5.0566   -3.5020   -2.2725 C   0  0  0  0  0  0  0  0  0  0  0  0
    4.2901    0.7025   -3.0150 H   0  0  0  0  0  0  0  0  0  0  0  0
    2.9594   -0.4592   -4.8356 H   0  0  0  0  0  0  0  0  0  0  0  0
    4.6660   -0.9207   -5.0264 H   0  0  0  0  0  0  0  0  0  0  0  0
    2.4314   -2.5599   -4.1713 H   0  0  0  0  0  0  0  0  0  0  0  0
    4.0224   -3.1236   -4.6199 H   0  0  0  0  0  0  0  0  0  0  0  0
    1.8190   -2.3973   -1.9057 H   0  0  0  0  0  0  0  0  0  0  0  0
    2.2637   -4.0072   -2.2668 H   0  0  0  0  0  0  0  0  0  0  0  0
    3.0435   -2.4819    0.2580 H   0  0  0  0  0  0  0  0  0  0  0  0
    1.9568   -3.8247    0.1186 H   0  0  0  0  0  0  0  0  0  0  0  0
    6.0623   -6.1897    0.2871 H   0  0  0  0  0  0  0  0  0  0  0  0
    3.7429   -8.8720    2.2992 H   0  0  0  0  0  0  0  0  0  0  0  0
    1.7235   -7.3519    2.0820 H   0  0  0  0  0  0  0  0  0  0  0  0
    5.6060   -2.9001   -0.2476 H   0  0  0  0  0  0  0  0  0  0  0  0
    6.1394   -4.4580   -0.7221 H   0  0  0  0  0  0  0  0  0  0  0  0
    4.8912   -4.4495   -2.7963 H   0  0  0  0  0  0  0  0  0  0  0  0
    5.9697   -3.0863   -2.7034 H   0  0  0  0  0  0  0  0  0  0  0  0
  1  2  2  0
  2  6  1  0
  2  3  1  0
  3  4  1  0
  3 18  1  0
  4  5  1  0
  4 19  1  0
  4 20  1  0
  5  6  1  0
  5 21  1  0
  5 22  1  0
  6 17  1  0
  6  7  1  0
  7  8  1  0
  7 23  1  0
  7 24  1  0
  8  9  1  0
  8 25  1  0
  8 26  1  0
  9 10  1  0
  9 16  1  0
 10 15  1  0
 10 11  2  0
 11 12  1  0
 11 27  1  0
 12 13  2  0
 13 14  1  0
 13 28  1  0
 14 15  2  0
 14 29  1  0
 16 17  1  0
 16 30  1  0
 16 31  1  0
 17 32  1  0
 17 33  1  0
M  END
>  <i_m_ct_stereo_status>  (454) 
1

>  <s_m_source_file>  (454) 
/var/tmp/pbs.5076255.sched01/tmp9yj1qf5s/135tauqa2n_.sdf

>  <i_m_source_file_index>  (454) 
41

>  <i_lp_mmshare_version>  (454) 
48012

>  <i_f3d_flags>  (454) 
0

>  <s_epik_input>  (454) 
W0NIMl0xW0NIMl1bTkhdQyg9TylDMTJbQ0gyXVtDSDJdTihbQ0gyXVtDSDJdMiljM1tjSF1uW2NIXVtjSF1uMw==

>  <s_epik_cmdline>  (454) 
J2VwaWtfcHl0aG9uJywgJy1waHQnLCAnMi4wJywgJy1waCcsICc3LjAnLCAnLXRuJywgJzgnLCAnLW1hJywgJzIwMCcsICctaW1hZScsICc8aW5maWxlLm1hZT4nLCAnLW9tYWUnLCAnPG91dGZpbGUubWFlPic=

>  <r_lp_tautomer_probability>  (454) 
1

>  <r_epik_Ionization_Penalty>  (454) 
0.000769618

>  <r_epik_Ionization_Penalty_Charging>  (454) 
0

>  <r_epik_Ionization_Penalty_Neutral>  (454) 
0.000769618

>  <r_epik_State_Penalty>  (454) 
0.000343358

>  <r_epik_Charging_Adjusted_Penalty>  (454) 
0.000343358

>  <i_epik_Tot_Q>  (454) 
0

>  <i_epik_Tot_abs_Q>  (454) 
0

>  <s_lp_Force_Field>  (454) 
OPLS3e

>  <r_lp_Energy>  (454) 
31.7065

>  <b_lp_Chiralities_Consistent>  (454) 
1

>  <s_lp_Variant>  (454) 
112:0-1

>  <s_i_glide_gridfile>  (454) 
pfpi4k_grid

>  <i_i_glide_lignum>  (454) 
41

>  <i_i_glide_rotatable_bonds>  (454) 
1

>  <r_i_docking_score>  (454) 
-3.27789

>  <r_i_glide_ligand_efficiency>  (454) 
-0.192817

>  <r_i_glide_ligand_efficiency_sa>  (454) 
-0.495786

>  <r_i_glide_ligand_efficiency_ln>  (454) 
-0.855128

>  <r_i_glide_gscore>  (454) 
-3.27789

>  <r_i_glide_lipo>  (454) 
-0.473303

>  <r_i_glide_hbond>  (454) 
0

>  <r_i_glide_metal>  (454) 
-0

>  <r_i_glide_rewards>  (454) 
-1.82535

>  <r_i_glide_evdw>  (454) 
-26.5602

>  <r_i_glide_ecoul>  (454) 
0.493693

>  <r_i_glide_erotb>  (454) 
0.317428

>  <r_i_glide_esite>  (454) 
-0.0427011

>  <r_i_glide_emodel>  (454) 
-31.3522

>  <r_i_glide_energy>  (454) 
-26.0665

>  <r_i_glide_einternal>  (454) 
0.476322

>  <r_i_glide_intrahb_reward>  (454) 
-0

>  <i_i_glide_confnum>  (454) 
4

>  <i_i_glide_posenum>  (454) 
10

>  <r_i_glide_eff_state_penalty>  (454) 
0

>  <ligand_id>  (454) 
112

>  <original_smiles>  (454) 
O=C1NCCC12CCN(c1cnccn1)CC2

>  <smiles>  (454) 
[H]c1nc([H])c(N2C([H])([H])C([H])([H])C3(C(=O)N([H])C([H])([H])C3([H])[H])C([H])([H])C2([H])[H])nc1[H]

$$$$
112:0:2
     RDKit          3D

 33 35  0  0  1  0  0  0  0  0999 V2000
   -0.1675   -0.9387    4.1720 O   0  0  0  0  0  0  0  0  0  0  0  0
    0.0562    0.1459    3.6487 C   0  0  0  0  0  0  0  0  0  0  0  0
    0.5377    0.3096    2.4433 N   0  0  0  0  0  0  0  0  0  0  0  0
    0.6189    1.6985    2.0537 C   0  0  0  0  0  0  0  0  0  0  0  0
    0.2700    2.4880    3.3135 C   0  0  0  0  0  0  0  0  0  0  0  0
   -0.2236    1.4654    4.3658 C   0  0  0  0  0  0  0  0  0  0  0  0
    0.5811    1.5943    5.6769 C   0  0  0  0  0  0  0  0  0  0  0  0
    0.2779    2.9418    6.3591 C   0  0  0  0  0  0  0  0  0  0  0  0
   -1.1640    3.1037    6.5596 N   0  0  0  0  0  0  0  0  0  0  0  0
   -1.6960    3.3177    7.8453 C   0  0  0  0  0  0  0  0  0  0  0  0
   -0.9145    3.8573    8.9081 C   0  0  0  0  0  0  0  0  0  0  0  0
   -1.4189    4.0723   10.1406 N   0  0  0  0  0  0  0  0  0  0  0  0
   -2.7107    3.7443   10.3273 C   0  0  0  0  0  0  0  0  0  0  0  0
   -3.5025    3.2234    9.2799 C   0  0  0  0  0  0  0  0  0  0  0  0
   -2.9982    3.0070    8.0497 N   0  0  0  0  0  0  0  0  0  0  0  0
   -2.0398    2.9418    5.3926 C   0  0  0  0  0  0  0  0  0  0  0  0
   -1.7373    1.6106    4.6862 C   0  0  0  0  0  0  0  0  0  0  0  0
    0.7788   -0.4375    1.8195 H   0  0  0  0  0  0  0  0  0  0  0  0
    1.6272    1.9518    1.7157 H   0  0  0  0  0  0  0  0  0  0  0  0
   -0.1066    1.9205    1.2639 H   0  0  0  0  0  0  0  0  0  0  0  0
    1.1848    2.9938    3.6429 H   0  0  0  0  0  0  0  0  0  0  0  0
   -0.4542    3.2819    3.0964 H   0  0  0  0  0  0  0  0  0  0  0  0
    0.3796    0.7668    6.3619 H   0  0  0  0  0  0  0  0  0  0  0  0
    1.6482    1.5341    5.4569 H   0  0  0  0  0  0  0  0  0  0  0  0
    0.8776    2.9804    7.2661 H   0  0  0  0  0  0  0  0  0  0  0  0
    0.6108    3.7756    5.7423 H   0  0  0  0  0  0  0  0  0  0  0  0
    0.1148    4.1528    8.7794 H   0  0  0  0  0  0  0  0  0  0  0  0
   -3.1232    3.8997   11.3129 H   0  0  0  0  0  0  0  0  0  0  0  0
   -4.5396    2.9680    9.4340 H   0  0  0  0  0  0  0  0  0  0  0  0
   -3.1031    2.9935    5.6233 H   0  0  0  0  0  0  0  0  0  0  0  0
   -1.8634    3.7684    4.7102 H   0  0  0  0  0  0  0  0  0  0  0  0
   -2.3254    1.5392    3.7708 H   0  0  0  0  0  0  0  0  0  0  0  0
   -2.0770    0.7849    5.3189 H   0  0  0  0  0  0  0  0  0  0  0  0
  1  2  2  0
  2  6  1  0
  2  3  1  0
  3  4  1  0
  3 18  1  0
  4  5  1  0
  4 19  1  0
  4 20  1  0
  5  6  1  0
  5 21  1  0
  5 22  1  0
  6 17  1  0
  6  7  1  0
  7  8  1  0
  7 23  1  0
  7 24  1  0
  8  9  1  0
  8 25  1  0
  8 26  1  0
  9 10  1  0
  9 16  1  0
 10 15  1  0
 10 11  2  0
 11 12  1  0
 11 27  1  0
 12 13  2  0
 13 14  1  0
 13 28  1  0
 14 15  2  0
 14 29  1  0
 16 17  1  0
 16 30  1  0
 16 31  1  0
 17 32  1  0
 17 33  1  0
M  END
>  <i_m_ct_stereo_status>  (455) 
1

>  <s_m_source_file>  (455) 
/var/tmp/pbs.5076255.sched01/tmp9yj1qf5s/135tauqa2n_.sdf

>  <i_m_source_file_index>  (455) 
41

>  <i_lp_mmshare_version>  (455) 
48012

>  <i_f3d_flags>  (455) 
0

>  <s_epik_input>  (455) 
W0NIMl0xW0NIMl1bTkhdQyg9TylDMTJbQ0gyXVtDSDJdTihbQ0gyXVtDSDJdMiljM1tjSF1uW2NIXVtjSF1uMw==

>  <s_epik_cmdline>  (455) 
J2VwaWtfcHl0aG9uJywgJy1waHQnLCAnMi4wJywgJy1waCcsICc3LjAnLCAnLXRuJywgJzgnLCAnLW1hJywgJzIwMCcsICctaW1hZScsICc8aW5maWxlLm1hZT4nLCAnLW9tYWUnLCAnPG91dGZpbGUubWFlPic=

>  <r_lp_tautomer_probability>  (455) 
1

>  <r_epik_Ionization_Penalty>  (455) 
0.000769618

>  <r_epik_Ionization_Penalty_Charging>  (455) 
0

>  <r_epik_Ionization_Penalty_Neutral>  (455) 
0.000769618

>  <r_epik_State_Penalty>  (455) 
0.000343358

>  <r_epik_Charging_Adjusted_Penalty>  (455) 
0.000343358

>  <i_epik_Tot_Q>  (455) 
0

>  <i_epik_Tot_abs_Q>  (455) 
0

>  <s_lp_Force_Field>  (455) 
OPLS3e

>  <r_lp_Energy>  (455) 
31.7065

>  <b_lp_Chiralities_Consistent>  (455) 
1

>  <s_lp_Variant>  (455) 
112:0-1

>  <s_i_glide_gridfile>  (455) 
pfpi4k_grid

>  <i_i_glide_lignum>  (455) 
41

>  <i_i_glide_rotatable_bonds>  (455) 
1

>  <r_i_docking_score>  (455) 
-2.92513

>  <r_i_glide_ligand_efficiency>  (455) 
-0.172066

>  <r_i_glide_ligand_efficiency_sa>  (455) 
-0.442431

>  <r_i_glide_ligand_efficiency_ln>  (455) 
-0.763101

>  <r_i_glide_gscore>  (455) 
-2.92513

>  <r_i_glide_lipo>  (455) 
-0.0372233

>  <r_i_glide_hbond>  (455) 
0

>  <r_i_glide_metal>  (455) 
-0

>  <r_i_glide_rewards>  (455) 
-1.85028

>  <r_i_glide_evdw>  (455) 
-20.6626

>  <r_i_glide_ecoul>  (455) 
-1.72667

>  <r_i_glide_erotb>  (455) 
0.317428

>  <r_i_glide_esite>  (455) 
-0.0629279

>  <r_i_glide_emodel>  (455) 
-27.2834

>  <r_i_glide_energy>  (455) 
-22.3893

>  <r_i_glide_einternal>  (455) 
0.00251758

>  <r_i_glide_intrahb_reward>  (455) 
-0

>  <i_i_glide_confnum>  (455) 
6

>  <i_i_glide_posenum>  (455) 
31

>  <r_i_glide_eff_state_penalty>  (455) 
0

>  <ligand_id>  (455) 
112

>  <original_smiles>  (455) 
O=C1NCCC12CCN(c1cnccn1)CC2

>  <smiles>  (455) 
[H]c1nc([H])c(N2C([H])([H])C([H])([H])C3(C(=O)N([H])C([H])([H])C3([H])[H])C([H])([H])C2([H])[H])nc1[H]

$$$$
114:0:0
     RDKit          3D

 67 72  0  0  1  0  0  0  0  0999 V2000
   -1.1215   -8.2766    2.5348 C   0  0  0  0  0  0  0  0  0  0  0  0
    0.1654   -7.4955    2.3320 C   0  0  0  0  0  0  0  0  0  0  0  0
    0.1236   -6.5734    1.5123 O   0  0  0  0  0  0  0  0  0  0  0  0
    1.4703   -7.8900    3.1160 C   0  0  1  0  0  0  0  0  0  0  0  0
    1.0883   -8.8214    4.1350 O   0  0  0  0  0  0  0  0  0  0  0  0
    1.6951  -10.0631    3.8829 C   0  0  0  0  0  0  0  0  0  0  0  0
    2.2673  -10.6284    5.1901 C   0  0  0  0  0  0  0  0  0  0  0  0
    0.6691  -11.0557    3.3014 C   0  0  0  0  0  0  0  0  0  0  0  0
    2.7321   -9.8835    2.9789 O   0  0  0  0  0  0  0  0  0  0  0  0
    2.3075   -8.8039    2.1826 C   0  0  2  0  0  0  0  0  0  0  0  0
    3.4364   -8.1269    1.4491 C   0  0  0  0  0  0  0  0  0  0  0  0
    3.8123   -6.8419    1.6233 C   0  0  0  0  0  0  0  0  0  0  0  0
    4.9249   -6.2222    0.8075 C   0  0  0  0  0  0  0  0  0  0  0  0
    3.2258   -5.9649    2.7166 C   0  0  1  0  0  0  0  0  0  0  0  0
    2.4676   -4.7082    2.2566 C   0  0  0  0  0  0  0  0  0  0  0  0
    1.6448   -4.2573    3.4951 C   0  0  1  0  0  0  0  0  0  0  0  0
    1.5202   -5.5311    4.4080 C   0  0  2  0  0  0  0  0  0  0  0  0
    1.5406   -5.2319    5.9559 C   0  0  2  0  0  0  0  0  0  0  0  0
    0.1589   -4.6476    6.3347 C   0  0  0  0  0  0  0  0  0  0  0  0
    0.2648   -3.1497    6.0129 C   0  0  0  0  0  0  0  0  0  0  0  0
    1.7641   -2.9004    5.7006 C   0  0  1  0  0  0  0  0  0  0  0  0
    2.4797   -4.0804    6.4007 C   0  0  1  0  0  0  0  0  0  0  0  0
    2.5300   -3.9026    7.9405 C   0  0  0  0  0  0  0  0  0  0  0  0
    3.9310   -4.2461    5.9630 C   0  0  0  0  0  0  0  0  0  0  0  0
    4.4990   -3.5702    4.9532 C   0  0  0  0  0  0  0  0  0  0  0  0
    3.6679   -2.7348    4.0908 C   0  0  0  0  0  0  0  0  0  0  0  0
    4.1456   -1.9288    3.2978 O   0  0  0  0  0  0  0  0  0  0  0  0
    2.1240   -2.9166    4.1801 C   0  0  1  0  0  0  0  0  0  0  0  0
    1.4467   -1.7175    3.4580 C   0  0  0  0  0  0  0  0  0  0  0  0
    2.3586   -6.7093    3.7704 C   0  0  1  0  0  0  0  0  0  0  0  0
    3.3478   -7.3453    4.7931 C   0  0  0  0  0  0  0  0  0  0  0  0
   -1.1077   -9.1888    1.9462 H   0  0  0  0  0  0  0  0  0  0  0  0
   -1.9667   -7.7038    2.1590 H   0  0  0  0  0  0  0  0  0  0  0  0
   -1.3076   -8.5134    3.5792 H   0  0  0  0  0  0  0  0  0  0  0  0
    3.0860  -10.0227    5.5685 H   0  0  0  0  0  0  0  0  0  0  0  0
    2.6365  -11.6445    5.0226 H   0  0  0  0  0  0  0  0  0  0  0  0
    1.4773  -10.6662    5.9435 H   0  0  0  0  0  0  0  0  0  0  0  0
    0.2589  -10.7237    2.3538 H   0  0  0  0  0  0  0  0  0  0  0  0
   -0.1448  -11.1913    4.0205 H   0  0  0  0  0  0  0  0  0  0  0  0
    1.1349  -12.0242    3.1237 H   0  0  0  0  0  0  0  0  0  0  0  0
    1.6822   -9.2244    1.3949 H   0  0  0  0  0  0  0  0  0  0  0  0
    3.9168   -8.7361    0.6986 H   0  0  0  0  0  0  0  0  0  0  0  0
    5.7362   -5.8944    1.4580 H   0  0  0  0  0  0  0  0  0  0  0  0
    4.5607   -5.3645    0.2422 H   0  0  0  0  0  0  0  0  0  0  0  0
    5.3290   -6.9451    0.1026 H   0  0  0  0  0  0  0  0  0  0  0  0
    4.1046   -5.5917    3.2370 H   0  0  0  0  0  0  0  0  0  0  0  0
    3.1363   -3.9382    1.8673 H   0  0  0  0  0  0  0  0  0  0  0  0
    1.8326   -4.9181    1.4017 H   0  0  0  0  0  0  0  0  0  0  0  0
    0.6248   -4.0607    3.1530 H   0  0  0  0  0  0  0  0  0  0  0  0
    0.4998   -5.8770    4.2711 H   0  0  0  0  0  0  0  0  0  0  0  0
    1.6976   -6.1401    6.5410 H   0  0  0  0  0  0  0  0  0  0  0  0
   -0.6918   -5.1150    5.8359 H   0  0  0  0  0  0  0  0  0  0  0  0
   -0.0306   -4.7807    7.4010 H   0  0  0  0  0  0  0  0  0  0  0  0
   -0.3921   -2.8741    5.1920 H   0  0  0  0  0  0  0  0  0  0  0  0
   -0.0413   -2.5600    6.8784 H   0  0  0  0  0  0  0  0  0  0  0  0
    2.0790   -1.9508    6.1373 H   0  0  0  0  0  0  0  0  0  0  0  0
    1.5715   -3.6494    8.3919 H   0  0  0  0  0  0  0  0  0  0  0  0
    3.2199   -3.1040    8.2143 H   0  0  0  0  0  0  0  0  0  0  0  0
    2.8855   -4.8158    8.4214 H   0  0  0  0  0  0  0  0  0  0  0  0
    4.5426   -4.8794    6.5881 H   0  0  0  0  0  0  0  0  0  0  0  0
    5.5465   -3.6658    4.7035 H   0  0  0  0  0  0  0  0  0  0  0  0
    0.3559   -1.7230    3.5220 H   0  0  0  0  0  0  0  0  0  0  0  0
    1.6907   -1.7125    2.3938 H   0  0  0  0  0  0  0  0  0  0  0  0
    1.7877   -0.7636    3.8676 H   0  0  0  0  0  0  0  0  0  0  0  0
    4.0667   -6.6406    5.1912 H   0  0  0  0  0  0  0  0  0  0  0  0
    3.9553   -8.1257    4.3367 H   0  0  0  0  0  0  0  0  0  0  0  0
    2.8415   -7.7889    5.6478 H   0  0  0  0  0  0  0  0  0  0  0  0
  1  2  1  0
  1 32  1  0
  1 33  1  0
  1 34  1  0
  2  3  2  0
  4  2  1  6
  4 10  1  0
  4 30  1  0
  4  5  1  0
  5  6  1  0
  6  7  1  0
  6  8  1  0
  6  9  1  0
  7 35  1  0
  7 36  1  0
  7 37  1  0
  8 38  1  0
  8 39  1  0
  8 40  1  0
  9 10  1  0
 10 11  1  0
 10 41  1  6
 11 12  2  0
 11 42  1  0
 12 13  1  0
 12 14  1  0
 13 43  1  0
 13 44  1  0
 13 45  1  0
 14 30  1  0
 14 15  1  0
 14 46  1  1
 15 16  1  0
 15 47  1  0
 15 48  1  0
 16 28  1  0
 16 17  1  0
 16 49  1  6
 17 18  1  0
 17 30  1  0
 17 50  1  6
 18 22  1  0
 18 19  1  0
 18 51  1  1
 19 20  1  0
 19 52  1  0
 19 53  1  0
 20 21  1  0
 20 54  1  0
 20 55  1  0
 21 28  1  0
 21 22  1  0
 21 56  1  1
 22 23  1  1
 22 24  1  0
 23 57  1  0
 23 58  1  0
 23 59  1  0
 24 25  2  0
 24 60  1  0
 25 26  1  0
 25 61  1  0
 26 27  2  0
 26 28  1  0
 28 29  1  6
 29 62  1  0
 29 63  1  0
 29 64  1  0
 30 31  1  1
 31 65  1  0
 31 66  1  0
 31 67  1  0
M  END
>  <i_m_ct_stereo_status>  (456) 
1

>  <s_m_source_file>  (456) 
/var/tmp/pbs.5076255.sched01/tmp9yj1qf5s/135tauqa2n_.sdf

>  <i_m_source_file_index>  (456) 
43

>  <i_lp_mmshare_version>  (456) 
48012

>  <i_f3d_flags>  (456) 
0

>  <s_epik_input>  (456) 
W0NIM11DKD1PKVtDQF0xMltDQEhdKE9DKE8xKShbQ0gzXSlbQ0gzXSlbQ0hdPUMoW0NIM10pW0NAQEhdM1tDQEBdMihbQ0gzXSlbQ0BASF00W0NASF0oW0NIMl0zKVtDQEBdNShbQ0gzXSlbQ0BASF02W0NAQF0oW0NIM10pKFtDQEhdNFtDSDJdW0NIMl02KVtDSF09W0NIXUM1PU8=

>  <s_epik_cmdline>  (456) 
J2VwaWtfcHl0aG9uJywgJy1waHQnLCAnMi4wJywgJy1waCcsICc3LjAnLCAnLXRuJywgJzgnLCAnLW1hJywgJzIwMCcsICctaW1hZScsICc8aW5maWxlLm1hZT4nLCAnLW9tYWUnLCAnPG91dGZpbGUubWFlPic=

>  <r_lp_tautomer_probability>  (456) 
1

>  <r_epik_Ionization_Penalty>  (456) 
2.18727e-11

>  <r_epik_Ionization_Penalty_Charging>  (456) 
0

>  <r_epik_Ionization_Penalty_Neutral>  (456) 
2.18727e-11

>  <r_epik_State_Penalty>  (456) 
-0

>  <r_epik_Charging_Adjusted_Penalty>  (456) 
0

>  <i_epik_Tot_Q>  (456) 
0

>  <i_epik_Tot_abs_Q>  (456) 
0

>  <s_lp_Force_Field>  (456) 
OPLS3e

>  <r_lp_Energy>  (456) 
62.4933

>  <b_lp_Chiralities_Consistent>  (456) 
1

>  <s_lp_Variant>  (456) 
114:0-1

>  <s_i_glide_gridfile>  (456) 
pfpi4k_grid

>  <i_i_glide_lignum>  (456) 
43

>  <i_i_glide_rotatable_bonds>  (456) 
1

>  <r_i_docking_score>  (456) 
-2.98706

>  <r_i_glide_ligand_efficiency>  (456) 
-0.0963568

>  <r_i_glide_ligand_efficiency_sa>  (456) 
-0.302693

>  <r_i_glide_ligand_efficiency_ln>  (456) 
-0.673673

>  <r_i_glide_gscore>  (456) 
-2.98706

>  <r_i_glide_lipo>  (456) 
-0.287293

>  <r_i_glide_hbond>  (456) 
-0.200493

>  <r_i_glide_metal>  (456) 
-0

>  <r_i_glide_rewards>  (456) 
-0.514279

>  <r_i_glide_evdw>  (456) 
-28.4931

>  <r_i_glide_ecoul>  (456) 
-3.31448

>  <r_i_glide_erotb>  (456) 
0

>  <r_i_glide_esite>  (456) 
-0.0631634

>  <r_i_glide_emodel>  (456) 
-37.3687

>  <r_i_glide_energy>  (456) 
-31.8076

>  <r_i_glide_einternal>  (456) 
0.446858

>  <r_i_glide_intrahb_reward>  (456) 
-0

>  <i_i_glide_confnum>  (456) 
1

>  <i_i_glide_posenum>  (456) 
26

>  <r_i_glide_eff_state_penalty>  (456) 
0

>  <ligand_id>  (456) 
114

>  <original_smiles>  (456) 
CC(=O)C12OC(C)(C)OC1C=C(C)C1CC3C(C4CCC5C4(C)C=CC(=O)C35C)C12C

>  <smiles>  (456) 
[H]C1=C([H])C2(C([H])([H])[H])C3([H])C([H])([H])C([H])([H])C2([H])C(C([H])([H])[H])(C1=O)C1([H])C([H])([H])C2([H])C(C([H])([H])[H])=C([H])C4([H])OC(C([H])([H])[H])(C([H])([H])[H])OC4(C(=O)C([H])([H])[H])C2(C([H])([H])[H])C31[H]

$$$$
114:0:1
     RDKit          3D

 67 72  0  0  1  0  0  0  0  0999 V2000
   -1.0293   -7.7517    2.7306 C   0  0  0  0  0  0  0  0  0  0  0  0
    0.3260   -7.1813    2.3268 C   0  0  0  0  0  0  0  0  0  0  0  0
    0.3761   -6.5826    1.2491 O   0  0  0  0  0  0  0  0  0  0  0  0
    1.5506   -7.3288    3.3150 C   0  0  1  0  0  0  0  0  0  0  0  0
    1.0427   -7.1729    4.6512 O   0  0  0  0  0  0  0  0  0  0  0  0
    1.2484   -8.3534    5.3838 C   0  0  0  0  0  0  0  0  0  0  0  0
    1.7987   -8.0279    6.7805 C   0  0  0  0  0  0  0  0  0  0  0  0
   -0.0749   -9.1261    5.5342 C   0  0  0  0  0  0  0  0  0  0  0  0
    2.1731   -9.1312    4.7067 O   0  0  0  0  0  0  0  0  0  0  0  0
    1.9637   -8.8271    3.3478 C   0  0  2  0  0  0  0  0  0  0  0  0
    3.1336   -9.1938    2.4696 C   0  0  0  0  0  0  0  0  0  0  0  0
    3.8817   -8.3135    1.7783 C   0  0  0  0  0  0  0  0  0  0  0  0
    5.0036   -8.7706    0.8797 C   0  0  0  0  0  0  0  0  0  0  0  0
    3.7157   -6.8064    1.9216 C   0  0  1  0  0  0  0  0  0  0  0  0
    3.2734   -6.0425    0.6654 C   0  0  0  0  0  0  0  0  0  0  0  0
    2.7980   -4.6579    1.1737 C   0  0  1  0  0  0  0  0  0  0  0  0
    2.4418   -4.8697    2.6900 C   0  0  2  0  0  0  0  0  0  0  0  0
    2.7376   -3.6322    3.6155 C   0  0  2  0  0  0  0  0  0  0  0  0
    1.6392   -2.5734    3.3555 C   0  0  0  0  0  0  0  0  0  0  0  0
    2.1253   -1.8026    2.1197 C   0  0  0  0  0  0  0  0  0  0  0  0
    3.5767   -2.2885    1.8690 C   0  0  1  0  0  0  0  0  0  0  0  0
    4.0119   -2.8301    3.2526 C   0  0  1  0  0  0  0  0  0  0  0  0
    4.3127   -1.6885    4.2570 C   0  0  0  0  0  0  0  0  0  0  0  0
    5.2808   -3.6668    3.1866 C   0  0  0  0  0  0  0  0  0  0  0  0
    5.8727   -4.0642    2.0491 C   0  0  0  0  0  0  0  0  0  0  0  0
    5.2198   -3.8192    0.7708 C   0  0  0  0  0  0  0  0  0  0  0  0
    5.8199   -3.9382   -0.2999 O   0  0  0  0  0  0  0  0  0  0  0  0
    3.7186   -3.4291    0.8032 C   0  0  1  0  0  0  0  0  0  0  0  0
    3.3274   -2.9152   -0.6057 C   0  0  0  0  0  0  0  0  0  0  0  0
    2.8168   -6.3485    3.1034 C   0  0  1  0  0  0  0  0  0  0  0  0
    3.7046   -6.3886    4.3806 C   0  0  0  0  0  0  0  0  0  0  0  0
   -1.0324   -8.8390    2.6521 H   0  0  0  0  0  0  0  0  0  0  0  0
   -1.8058   -7.3902    2.0647 H   0  0  0  0  0  0  0  0  0  0  0  0
   -1.3032   -7.4485    3.7378 H   0  0  0  0  0  0  0  0  0  0  0  0
    2.7965   -7.5988    6.7333 H   0  0  0  0  0  0  0  0  0  0  0  0
    1.8525   -8.9468    7.3683 H   0  0  0  0  0  0  0  0  0  0  0  0
    1.1289   -7.3325    7.2917 H   0  0  0  0  0  0  0  0  0  0  0  0
   -0.5123   -9.4173    4.5855 H   0  0  0  0  0  0  0  0  0  0  0  0
   -0.7900   -8.5084    6.0753 H   0  0  0  0  0  0  0  0  0  0  0  0
    0.0822  -10.0418    6.1085 H   0  0  0  0  0  0  0  0  0  0  0  0
    1.1560   -9.4732    3.0077 H   0  0  0  0  0  0  0  0  0  0  0  0
    3.3209  -10.2541    2.3704 H   0  0  0  0  0  0  0  0  0  0  0  0
    5.9511   -8.3500    1.2090 H   0  0  0  0  0  0  0  0  0  0  0  0
    4.8067   -8.4466   -0.1467 H   0  0  0  0  0  0  0  0  0  0  0  0
    5.0919   -9.8565    0.8805 H   0  0  0  0  0  0  0  0  0  0  0  0
    4.7259   -6.4649    2.1330 H   0  0  0  0  0  0  0  0  0  0  0  0
    4.0594   -5.9946   -0.0929 H   0  0  0  0  0  0  0  0  0  0  0  0
    2.4557   -6.5662    0.1813 H   0  0  0  0  0  0  0  0  0  0  0  0
    1.8459   -4.4623    0.6764 H   0  0  0  0  0  0  0  0  0  0  0  0
    1.3603   -4.8880    2.7340 H   0  0  0  0  0  0  0  0  0  0  0  0
    2.7090   -3.9041    4.6707 H   0  0  0  0  0  0  0  0  0  0  0  0
    0.6332   -2.9749    3.2164 H   0  0  0  0  0  0  0  0  0  0  0  0
    1.5568   -1.8923    4.2038 H   0  0  0  0  0  0  0  0  0  0  0  0
    1.4634   -1.9701    1.2758 H   0  0  0  0  0  0  0  0  0  0  0  0
    2.1106   -0.7291    2.3179 H   0  0  0  0  0  0  0  0  0  0  0  0
    4.1987   -1.4411    1.5736 H   0  0  0  0  0  0  0  0  0  0  0  0
    3.5310   -0.9320    4.3155 H   0  0  0  0  0  0  0  0  0  0  0  0
    5.2291   -1.1644    3.9828 H   0  0  0  0  0  0  0  0  0  0  0  0
    4.4522   -2.0908    5.2616 H   0  0  0  0  0  0  0  0  0  0  0  0
    5.7613   -3.8641    4.1359 H   0  0  0  0  0  0  0  0  0  0  0  0
    6.8088   -4.6025    2.0481 H   0  0  0  0  0  0  0  0  0  0  0  0
    2.2892   -2.5886   -0.6555 H   0  0  0  0  0  0  0  0  0  0  0  0
    3.4312   -3.7010   -1.3567 H   0  0  0  0  0  0  0  0  0  0  0  0
    3.9564   -2.0766   -0.9141 H   0  0  0  0  0  0  0  0  0  0  0  0
    4.6388   -5.8542    4.2679 H   0  0  0  0  0  0  0  0  0  0  0  0
    4.0041   -7.4033    4.6369 H   0  0  0  0  0  0  0  0  0  0  0  0
    3.2086   -5.9655    5.2505 H   0  0  0  0  0  0  0  0  0  0  0  0
  1  2  1  0
  1 32  1  0
  1 33  1  0
  1 34  1  0
  2  3  2  0
  4  2  1  6
  4 10  1  0
  4 30  1  0
  4  5  1  0
  5  6  1  0
  6  7  1  0
  6  8  1  0
  6  9  1  0
  7 35  1  0
  7 36  1  0
  7 37  1  0
  8 38  1  0
  8 39  1  0
  8 40  1  0
  9 10  1  0
 10 11  1  0
 10 41  1  6
 11 12  2  0
 11 42  1  0
 12 13  1  0
 12 14  1  0
 13 43  1  0
 13 44  1  0
 13 45  1  0
 14 30  1  0
 14 15  1  0
 14 46  1  1
 15 16  1  0
 15 47  1  0
 15 48  1  0
 16 28  1  0
 16 17  1  0
 16 49  1  6
 17 18  1  0
 17 30  1  0
 17 50  1  6
 18 22  1  0
 18 19  1  0
 18 51  1  1
 19 20  1  0
 19 52  1  0
 19 53  1  0
 20 21  1  0
 20 54  1  0
 20 55  1  0
 21 28  1  0
 21 22  1  0
 21 56  1  6
 22 23  1  1
 22 24  1  0
 23 57  1  0
 23 58  1  0
 23 59  1  0
 24 25  2  0
 24 60  1  0
 25 26  1  0
 25 61  1  0
 26 27  2  0
 26 28  1  0
 28 29  1  6
 29 62  1  0
 29 63  1  0
 29 64  1  0
 30 31  1  1
 31 65  1  0
 31 66  1  0
 31 67  1  0
M  END
>  <i_m_ct_stereo_status>  (457) 
1

>  <s_m_source_file>  (457) 
/var/tmp/pbs.5076255.sched01/tmp9yj1qf5s/135tauqa2n_.sdf

>  <i_m_source_file_index>  (457) 
43

>  <i_lp_mmshare_version>  (457) 
48012

>  <i_f3d_flags>  (457) 
0

>  <s_epik_input>  (457) 
W0NIM11DKD1PKVtDQF0xMltDQEhdKE9DKE8xKShbQ0gzXSlbQ0gzXSlbQ0hdPUMoW0NIM10pW0NAQEhdM1tDQEBdMihbQ0gzXSlbQ0BASF00W0NASF0oW0NIMl0zKVtDQEBdNShbQ0gzXSlbQ0BASF02W0NAQF0oW0NIM10pKFtDQEhdNFtDSDJdW0NIMl02KVtDSF09W0NIXUM1PU8=

>  <s_epik_cmdline>  (457) 
J2VwaWtfcHl0aG9uJywgJy1waHQnLCAnMi4wJywgJy1waCcsICc3LjAnLCAnLXRuJywgJzgnLCAnLW1hJywgJzIwMCcsICctaW1hZScsICc8aW5maWxlLm1hZT4nLCAnLW9tYWUnLCAnPG91dGZpbGUubWFlPic=

>  <r_lp_tautomer_probability>  (457) 
1

>  <r_epik_Ionization_Penalty>  (457) 
2.18727e-11

>  <r_epik_Ionization_Penalty_Charging>  (457) 
0

>  <r_epik_Ionization_Penalty_Neutral>  (457) 
2.18727e-11

>  <r_epik_State_Penalty>  (457) 
-0

>  <r_epik_Charging_Adjusted_Penalty>  (457) 
0

>  <i_epik_Tot_Q>  (457) 
0

>  <i_epik_Tot_abs_Q>  (457) 
0

>  <s_lp_Force_Field>  (457) 
OPLS3e

>  <r_lp_Energy>  (457) 
62.4933

>  <b_lp_Chiralities_Consistent>  (457) 
1

>  <s_lp_Variant>  (457) 
114:0-1

>  <s_i_glide_gridfile>  (457) 
pfpi4k_grid

>  <i_i_glide_lignum>  (457) 
43

>  <i_i_glide_rotatable_bonds>  (457) 
1

>  <r_i_docking_score>  (457) 
-2.82513

>  <r_i_glide_ligand_efficiency>  (457) 
-0.0911332

>  <r_i_glide_ligand_efficiency_sa>  (457) 
-0.286284

>  <r_i_glide_ligand_efficiency_ln>  (457) 
-0.637153

>  <r_i_glide_gscore>  (457) 
-2.82513

>  <r_i_glide_lipo>  (457) 
-0.147341

>  <r_i_glide_hbond>  (457) 
-0.153292

>  <r_i_glide_metal>  (457) 
-0

>  <r_i_glide_rewards>  (457) 
-0.574649

>  <r_i_glide_evdw>  (457) 
-27.8181

>  <r_i_glide_ecoul>  (457) 
-3.18079

>  <r_i_glide_erotb>  (457) 
0

>  <r_i_glide_esite>  (457) 
-0.0818226

>  <r_i_glide_emodel>  (457) 
-35.5858

>  <r_i_glide_energy>  (457) 
-30.9989

>  <r_i_glide_einternal>  (457) 
1.85796

>  <r_i_glide_intrahb_reward>  (457) 
-0

>  <i_i_glide_confnum>  (457) 
1

>  <i_i_glide_posenum>  (457) 
39

>  <r_i_glide_eff_state_penalty>  (457) 
0

>  <ligand_id>  (457) 
114

>  <original_smiles>  (457) 
CC(=O)C12OC(C)(C)OC1C=C(C)C1CC3C(C4CCC5C4(C)C=CC(=O)C35C)C12C

>  <smiles>  (457) 
[H]C1=C([H])C2(C([H])([H])[H])C3([H])C([H])([H])C([H])([H])C2([H])C(C([H])([H])[H])(C1=O)C1([H])C([H])([H])C2([H])C(C([H])([H])[H])=C([H])C4([H])OC(C([H])([H])[H])(C([H])([H])[H])OC4(C(=O)C([H])([H])[H])C2(C([H])([H])[H])C31[H]

$$$$
114:0:2
     RDKit          3D

 67 72  0  0  1  0  0  0  0  0999 V2000
    2.0041   -3.7526   -1.5228 C   0  0  0  0  0  0  0  0  0  0  0  0
    2.6595   -4.2611   -0.2465 C   0  0  0  0  0  0  0  0  0  0  0  0
    2.0062   -5.0605    0.4205 O   0  0  0  0  0  0  0  0  0  0  0  0
    4.1376   -3.8185    0.0986 C   0  0  1  0  0  0  0  0  0  0  0  0
    4.9499   -4.0449   -1.0640 O   0  0  0  0  0  0  0  0  0  0  0  0
    5.4829   -2.8330   -1.5347 C   0  0  0  0  0  0  0  0  0  0  0  0
    6.9743   -2.9969   -1.8461 C   0  0  0  0  0  0  0  0  0  0  0  0
    4.7282   -2.3833   -2.8041 C   0  0  0  0  0  0  0  0  0  0  0  0
    5.3464   -1.8800   -0.5358 O   0  0  0  0  0  0  0  0  0  0  0  0
    4.1829   -2.2635    0.1610 C   0  0  2  0  0  0  0  0  0  0  0  0
    4.0693   -1.6707    1.5430 C   0  0  0  0  0  0  0  0  0  0  0  0
    4.0535   -2.3826    2.6869 C   0  0  0  0  0  0  0  0  0  0  0  0
    3.8766   -1.7055    4.0312 C   0  0  0  0  0  0  0  0  0  0  0  0
    4.3000   -3.8885    2.7152 C   0  0  1  0  0  0  0  0  0  0  0  0
    3.1334   -4.7657    3.1977 C   0  0  0  0  0  0  0  0  0  0  0  0
    3.5124   -6.2128    2.7751 C   0  0  1  0  0  0  0  0  0  0  0  0
    4.5256   -6.0402    1.5847 C   0  0  2  0  0  0  0  0  0  0  0  0
    5.6269   -7.1557    1.4906 C   0  0  2  0  0  0  0  0  0  0  0  0
    4.9547   -8.4428    0.9467 C   0  0  0  0  0  0  0  0  0  0  0  0
    4.3369   -9.1120    2.1817 C   0  0  0  0  0  0  0  0  0  0  0  0
    4.8844   -8.3184    3.3978 C   0  0  1  0  0  0  0  0  0  0  0  0
    6.1729   -7.6524    2.8498 C   0  0  1  0  0  0  0  0  0  0  0  0
    7.3336   -8.6644    2.6921 C   0  0  0  0  0  0  0  0  0  0  0  0
    6.7080   -6.5597    3.7682 C   0  0  0  0  0  0  0  0  0  0  0  0
    6.0507   -6.0696    4.8326 C   0  0  0  0  0  0  0  0  0  0  0  0
    4.6748   -6.4870    5.0867 C   0  0  0  0  0  0  0  0  0  0  0  0
    4.1162   -6.2487    6.1564 O   0  0  0  0  0  0  0  0  0  0  0  0
    3.9168   -7.2103    3.9361 C   0  0  1  0  0  0  0  0  0  0  0  0
    2.6341   -7.8530    4.5389 C   0  0  0  0  0  0  0  0  0  0  0  0
    4.8359   -4.5013    1.3862 C   0  0  1  0  0  0  0  0  0  0  0  0
    6.3659   -4.2267    1.3453 C   0  0  0  0  0  0  0  0  0  0  0  0
    1.8100   -2.6865   -1.4900 H   0  0  0  0  0  0  0  0  0  0  0  0
    1.0575   -4.2720   -1.6843 H   0  0  0  0  0  0  0  0  0  0  0  0
    2.6407   -3.9408   -2.3833 H   0  0  0  0  0  0  0  0  0  0  0  0
    7.5591   -3.1933   -0.9507 H   0  0  0  0  0  0  0  0  0  0  0  0
    7.3553   -2.0871   -2.3086 H   0  0  0  0  0  0  0  0  0  0  0  0
    7.1207   -3.8052   -2.5615 H   0  0  0  0  0  0  0  0  0  0  0  0
    3.6652   -2.2287   -2.6287 H   0  0  0  0  0  0  0  0  0  0  0  0
    4.8470   -3.1378   -3.5852 H   0  0  0  0  0  0  0  0  0  0  0  0
    5.1275   -1.4373   -3.1681 H   0  0  0  0  0  0  0  0  0  0  0  0
    3.3616   -1.8051   -0.3795 H   0  0  0  0  0  0  0  0  0  0  0  0
    3.9301   -0.6004    1.5744 H   0  0  0  0  0  0  0  0  0  0  0  0
    4.7468   -1.8903    4.6607 H   0  0  0  0  0  0  0  0  0  0  0  0
    2.9899   -2.0830    4.5405 H   0  0  0  0  0  0  0  0  0  0  0  0
    3.7697   -0.6275    3.9158 H   0  0  0  0  0  0  0  0  0  0  0  0
    5.0794   -4.0038    3.4665 H   0  0  0  0  0  0  0  0  0  0  0  0
    2.9414   -4.6522    4.2669 H   0  0  0  0  0  0  0  0  0  0  0  0
    2.2062   -4.4446    2.7270 H   0  0  0  0  0  0  0  0  0  0  0  0
    2.6139   -6.6526    2.3384 H   0  0  0  0  0  0  0  0  0  0  0  0
    3.9766   -6.2764    0.6855 H   0  0  0  0  0  0  0  0  0  0  0  0
    6.4263   -6.8613    0.8138 H   0  0  0  0  0  0  0  0  0  0  0  0
    4.2167   -8.2880    0.1577 H   0  0  0  0  0  0  0  0  0  0  0  0
    5.6977   -9.1039    0.4996 H   0  0  0  0  0  0  0  0  0  0  0  0
    3.2501   -9.1205    2.1243 H   0  0  0  0  0  0  0  0  0  0  0  0
    4.6526  -10.1551    2.2287 H   0  0  0  0  0  0  0  0  0  0  0  0
    5.1245   -9.0131    4.2065 H   0  0  0  0  0  0  0  0  0  0  0  0
    7.0532   -9.5742    2.1634 H   0  0  0  0  0  0  0  0  0  0  0  0
    7.7123   -8.9792    3.6643 H   0  0  0  0  0  0  0  0  0  0  0  0
    8.1674   -8.2175    2.1482 H   0  0  0  0  0  0  0  0  0  0  0  0
    7.7181   -6.2275    3.5738 H   0  0  0  0  0  0  0  0  0  0  0  0
    6.4982   -5.3365    5.4893 H   0  0  0  0  0  0  0  0  0  0  0  0
    2.0648   -8.4403    3.8164 H   0  0  0  0  0  0  0  0  0  0  0  0
    1.9521   -7.0927    4.9214 H   0  0  0  0  0  0  0  0  0  0  0  0
    2.8710   -8.5190    5.3702 H   0  0  0  0  0  0  0  0  0  0  0  0
    6.8760   -4.5555    2.2416 H   0  0  0  0  0  0  0  0  0  0  0  0
    6.5875   -3.1634    1.2715 H   0  0  0  0  0  0  0  0  0  0  0  0
    6.8551   -4.7256    0.5125 H   0  0  0  0  0  0  0  0  0  0  0  0
  1  2  1  0
  1 32  1  0
  1 33  1  0
  1 34  1  0
  2  3  2  0
  4  2  1  6
  4 10  1  0
  4 30  1  0
  4  5  1  0
  5  6  1  0
  6  7  1  0
  6  8  1  0
  6  9  1  0
  7 35  1  0
  7 36  1  0
  7 37  1  0
  8 38  1  0
  8 39  1  0
  8 40  1  0
  9 10  1  0
 10 11  1  0
 10 41  1  6
 11 12  2  0
 11 42  1  0
 12 13  1  0
 12 14  1  0
 13 43  1  0
 13 44  1  0
 13 45  1  0
 14 30  1  0
 14 15  1  0
 14 46  1  1
 15 16  1  0
 15 47  1  0
 15 48  1  0
 16 28  1  0
 16 17  1  0
 16 49  1  6
 17 18  1  0
 17 30  1  0
 17 50  1  6
 18 22  1  0
 18 19  1  0
 18 51  1  6
 19 20  1  0
 19 52  1  0
 19 53  1  0
 20 21  1  0
 20 54  1  0
 20 55  1  0
 21 28  1  0
 21 22  1  0
 21 56  1  1
 22 23  1  6
 22 24  1  0
 23 57  1  0
 23 58  1  0
 23 59  1  0
 24 25  2  0
 24 60  1  0
 25 26  1  0
 25 61  1  0
 26 27  2  0
 26 28  1  0
 28 29  1  1
 29 62  1  0
 29 63  1  0
 29 64  1  0
 30 31  1  6
 31 65  1  0
 31 66  1  0
 31 67  1  0
M  END
>  <i_m_ct_stereo_status>  (458) 
1

>  <s_m_source_file>  (458) 
/var/tmp/pbs.5076255.sched01/tmp9yj1qf5s/135tauqa2n_.sdf

>  <i_m_source_file_index>  (458) 
43

>  <i_lp_mmshare_version>  (458) 
48012

>  <i_f3d_flags>  (458) 
0

>  <s_epik_input>  (458) 
W0NIM11DKD1PKVtDQF0xMltDQEhdKE9DKE8xKShbQ0gzXSlbQ0gzXSlbQ0hdPUMoW0NIM10pW0NAQEhdM1tDQEBdMihbQ0gzXSlbQ0BASF00W0NASF0oW0NIMl0zKVtDQEBdNShbQ0gzXSlbQ0BASF02W0NAQF0oW0NIM10pKFtDQEhdNFtDSDJdW0NIMl02KVtDSF09W0NIXUM1PU8=

>  <s_epik_cmdline>  (458) 
J2VwaWtfcHl0aG9uJywgJy1waHQnLCAnMi4wJywgJy1waCcsICc3LjAnLCAnLXRuJywgJzgnLCAnLW1hJywgJzIwMCcsICctaW1hZScsICc8aW5maWxlLm1hZT4nLCAnLW9tYWUnLCAnPG91dGZpbGUubWFlPic=

>  <r_lp_tautomer_probability>  (458) 
1

>  <r_epik_Ionization_Penalty>  (458) 
2.18727e-11

>  <r_epik_Ionization_Penalty_Charging>  (458) 
0

>  <r_epik_Ionization_Penalty_Neutral>  (458) 
2.18727e-11

>  <r_epik_State_Penalty>  (458) 
-0

>  <r_epik_Charging_Adjusted_Penalty>  (458) 
0

>  <i_epik_Tot_Q>  (458) 
0

>  <i_epik_Tot_abs_Q>  (458) 
0

>  <s_lp_Force_Field>  (458) 
OPLS3e

>  <r_lp_Energy>  (458) 
62.4933

>  <b_lp_Chiralities_Consistent>  (458) 
1

>  <s_lp_Variant>  (458) 
114:0-1

>  <s_i_glide_gridfile>  (458) 
pfpi4k_grid

>  <i_i_glide_lignum>  (458) 
43

>  <i_i_glide_rotatable_bonds>  (458) 
1

>  <r_i_docking_score>  (458) 
-2.72969

>  <r_i_glide_ligand_efficiency>  (458) 
-0.0880545

>  <r_i_glide_ligand_efficiency_sa>  (458) 
-0.276613

>  <r_i_glide_ligand_efficiency_ln>  (458) 
-0.615629

>  <r_i_glide_gscore>  (458) 
-2.72969

>  <r_i_glide_lipo>  (458) 
-0.465765

>  <r_i_glide_hbond>  (458) 
-0.0539916

>  <r_i_glide_metal>  (458) 
-0

>  <r_i_glide_rewards>  (458) 
-0.522444

>  <r_i_glide_evdw>  (458) 
-25.4349

>  <r_i_glide_ecoul>  (458) 
-2.44932

>  <r_i_glide_erotb>  (458) 
0

>  <r_i_glide_esite>  (458) 
-0.0483453

>  <r_i_glide_emodel>  (458) 
-31.0832

>  <r_i_glide_energy>  (458) 
-27.8842

>  <r_i_glide_einternal>  (458) 
3.86509

>  <r_i_glide_intrahb_reward>  (458) 
-0

>  <i_i_glide_confnum>  (458) 
1

>  <i_i_glide_posenum>  (458) 
2

>  <r_i_glide_eff_state_penalty>  (458) 
0

>  <ligand_id>  (458) 
114

>  <original_smiles>  (458) 
CC(=O)C12OC(C)(C)OC1C=C(C)C1CC3C(C4CCC5C4(C)C=CC(=O)C35C)C12C

>  <smiles>  (458) 
[H]C1=C([H])C2(C([H])([H])[H])C3([H])C([H])([H])C([H])([H])C2([H])C(C([H])([H])[H])(C1=O)C1([H])C([H])([H])C2([H])C(C([H])([H])[H])=C([H])C4([H])OC(C([H])([H])[H])(C([H])([H])[H])OC4(C(=O)C([H])([H])[H])C2(C([H])([H])[H])C31[H]

$$$$
115:1:0
     RDKit          3D

 72 78  0  0  1  0  0  0  0  0999 V2000
    3.1506    5.7561    4.0711 C   0  0  0  0  0  0  0  0  0  0  0  0
    2.8570    4.3983    4.1841 O   0  0  0  0  0  0  0  0  0  0  0  0
    2.4223    3.7057    3.0309 C   0  0  0  0  0  0  0  0  0  0  0  0
    2.0739    2.2099    3.3497 C   0  0  1  0  0  0  0  0  0  0  0  0
    0.7773    1.6660    2.3017 C   0  0  0  0  0  0  0  0  0  0  0  0
   -0.6641    1.2765    2.9040 O   0  0  0  0  0  0  0  0  0  0  0  0
   -1.1340    0.7175    4.2813 C   0  0  1  0  0  0  0  0  0  0  0  0
   -0.4084   -0.3304    4.9305 O   0  0  0  0  0  0  0  0  0  0  0  0
    1.0234   -0.4039    5.2136 C   0  0  1  0  0  0  0  0  0  0  0  0
    1.3479    0.0343    3.9576 C   0  0  1  0  0  0  0  0  0  0  0  0
    1.1693    1.8736    4.2935 C   0  0  1  0  0  0  0  0  0  0  0  0
    0.6673    2.8354    5.5650 C   0  0  2  0  0  0  0  0  0  0  0  0
    1.3981    2.5868    6.9245 C   0  0  1  0  0  0  0  0  0  0  0  0
    0.9412    3.6628    8.5462 Br  0  0  0  0  0  0  0  0  0  0  0  0
    1.5485    1.0953    7.1519 C   0  0  1  0  0  0  0  0  0  0  0  0
    2.5117    0.9483    8.1803 O   0  0  0  0  0  0  0  0  0  0  0  0
    0.1313    0.4960    7.6170 C   0  0  1  0  0  0  0  0  0  0  0  0
   -0.0690    0.4986    9.1551 C   0  0  0  0  0  0  0  0  0  0  0  0
   -1.2714    0.8997    6.9213 C   0  0  0  0  0  0  0  0  0  0  0  0
   -1.4933    1.6622    5.5294 C   0  0  1  0  0  0  0  0  0  0  0  0
   -0.9038    3.0640    5.5476 C   0  0  0  0  0  0  0  0  0  0  0  0
   -1.4905    3.9139    6.7143 C   0  0  0  0  0  0  0  0  0  0  0  0
   -1.4490    3.9170    4.3448 C   0  0  0  0  0  0  0  0  0  0  0  0
    2.2255    0.4858    5.8350 C   0  0  1  0  0  0  0  0  0  0  0  0
    3.2900   -0.4664    6.0070 O   0  0  0  0  0  0  0  0  0  0  0  0
    3.5502   -1.3054    4.8543 C   0  0  2  0  0  0  0  0  0  0  0  0
    3.4791   -2.7412    5.4221 C   0  0  0  0  0  0  0  0  0  0  0  0
    4.9529   -1.1485    4.3002 C   0  0  0  0  0  0  0  0  0  0  0  0
    5.0214   -0.7494    3.0199 C   0  0  0  0  0  0  0  0  0  0  0  0
    3.6636   -0.4956    2.5424 C   0  0  0  0  0  0  0  0  0  0  0  0
    3.3663   -0.0152    1.4453 O   0  0  0  0  0  0  0  0  0  0  0  0
    2.6186   -0.9494    3.5915 C   0  0  2  0  0  0  0  0  0  0  0  0
    2.0815   -2.2707    2.9553 C   0  0  0  0  0  0  0  0  0  0  0  0
    2.9296    1.6410    4.7109 C   0  0  1  0  0  0  0  0  0  0  0  0
    4.3138    1.5897    4.4901 O   0  0  0  0  0  0  0  0  0  0  0  0
    3.4051    6.1127    5.0673 H   0  0  0  0  0  0  0  0  0  0  0  0
    2.3011    6.3356    3.7218 H   0  0  0  0  0  0  0  0  0  0  0  0
    4.0075    5.9260    3.4272 H   0  0  0  0  0  0  0  0  0  0  0  0
    1.5851    4.2267    2.5704 H   0  0  0  0  0  0  0  0  0  0  0  0
    3.2287    3.7398    2.3023 H   0  0  0  0  0  0  0  0  0  0  0  0
    0.5591    2.4788    1.6118 H   0  0  0  0  0  0  0  0  0  0  0  0
    1.1005    0.8898    1.6058 H   0  0  0  0  0  0  0  0  0  0  0  0
   -2.0620    0.2102    4.0113 H   0  0  0  0  0  0  0  0  0  0  0  0
    1.1413   -1.4550    5.4478 H   0  0  0  0  0  0  0  0  0  0  0  0
    0.6889   -0.4489    3.2181 H   0  0  0  0  0  0  0  0  0  0  0  0
    0.4856    2.6470    3.9692 H   0  0  0  0  0  0  0  0  0  0  0  0
    0.9562    3.8719    5.3964 H   0  0  0  0  0  0  0  0  0  0  0  0
    2.3816    3.0275    6.8653 H   0  0  0  0  0  0  0  0  0  0  0  0
    3.3233    1.3161    7.8879 H   0  0  0  0  0  0  0  0  0  0  0  0
    0.2209   -0.5788    7.4710 H   0  0  0  0  0  0  0  0  0  0  0  0
   -0.2215    1.4908    9.5759 H   0  0  0  0  0  0  0  0  0  0  0  0
    0.7673    0.0376    9.6835 H   0  0  0  0  0  0  0  0  0  0  0  0
   -0.9360   -0.0879    9.4351 H   0  0  0  0  0  0  0  0  0  0  0  0
   -1.8416   -0.0166    6.8271 H   0  0  0  0  0  0  0  0  0  0  0  0
   -1.8467    1.4399    7.6708 H   0  0  0  0  0  0  0  0  0  0  0  0
   -2.5684    1.8191    5.4407 H   0  0  0  0  0  0  0  0  0  0  0  0
   -2.5543    4.1081    6.5765 H   0  0  0  0  0  0  0  0  0  0  0  0
   -0.9945    4.8851    6.7806 H   0  0  0  0  0  0  0  0  0  0  0  0
   -1.4506    3.4579    7.6964 H   0  0  0  0  0  0  0  0  0  0  0  0
   -2.5227    4.0845    4.4170 H   0  0  0  0  0  0  0  0  0  0  0  0
   -1.3171    3.4815    3.3579 H   0  0  0  0  0  0  0  0  0  0  0  0
   -0.9666    4.8946    4.3091 H   0  0  0  0  0  0  0  0  0  0  0  0
    3.7717   -3.4983    4.6933 H   0  0  0  0  0  0  0  0  0  0  0  0
    2.4969   -3.0165    5.8092 H   0  0  0  0  0  0  0  0  0  0  0  0
    4.1713   -2.8380    6.2616 H   0  0  0  0  0  0  0  0  0  0  0  0
    5.8138   -1.3506    4.9132 H   0  0  0  0  0  0  0  0  0  0  0  0
    5.9190   -0.5647    2.4480 H   0  0  0  0  0  0  0  0  0  0  0  0
    1.4295   -2.8333    3.6240 H   0  0  0  0  0  0  0  0  0  0  0  0
    2.8980   -2.9373    2.6593 H   0  0  0  0  0  0  0  0  0  0  0  0
    1.5170   -2.0784    2.0380 H   0  0  0  0  0  0  0  0  0  0  0  0
    3.2580    2.4627    5.3090 H   0  0  0  0  0  0  0  0  0  0  0  0
    4.5155    2.1363    3.7380 H   0  0  0  0  0  0  0  0  0  0  0  0
  1  2  1  0
  1 36  1  0
  1 37  1  0
  1 38  1  0
  2  3  1  0
  4  3  1  6
  3 39  1  0
  3 40  1  0
  4 11  1  0
  4 34  1  0
  4  5  1  0
  5  6  1  0
  5 41  1  0
  5 42  1  0
  6  7  1  0
  7 20  1  0
  7  8  1  0
  7 43  1  6
  8  9  1  0
  9 24  1  0
  9 10  1  0
  9 44  1  6
 10 32  1  0
 10 11  1  0
 10 45  1  6
 11 12  1  0
 11 46  1  6
 12 21  1  0
 12 13  1  0
 12 47  1  6
 13 14  1  0
 13 15  1  0
 13 48  1  6
 15 16  1  1
 15 17  1  0
 15 24  1  0
 16 49  1  0
 17 18  1  0
 17 19  1  0
 17 50  1  6
 18 51  1  0
 18 52  1  0
 18 53  1  0
 19 20  1  0
 19 54  1  0
 19 55  1  0
 20 21  1  0
 20 56  1  6
 21 22  1  0
 21 23  1  0
 22 57  1  0
 22 58  1  0
 22 59  1  0
 23 60  1  0
 23 61  1  0
 23 62  1  0
 24 25  1  1
 24 34  1  0
 25 26  1  0
 26 32  1  0
 26 27  1  1
 26 28  1  0
 27 63  1  0
 27 64  1  0
 27 65  1  0
 28 29  2  0
 28 66  1  0
 29 30  1  0
 29 67  1  0
 30 31  2  0
 30 32  1  0
 32 33  1  6
 33 68  1  0
 33 69  1  0
 33 70  1  0
 34 35  1  0
 34 71  1  1
 35 72  1  0
M  END
>  <i_m_ct_stereo_status>  (459) 
1

>  <s_m_source_file>  (459) 
/var/tmp/pbs.5076255.sched01/tmp9yj1qf5s/135tauqa2n_.sdf

>  <i_m_source_file_index>  (459) 
45

>  <i_lp_mmshare_version>  (459) 
48012

>  <i_f3d_flags>  (459) 
0

>  <s_epik_input>  (459) 
Tz1DMVtDSF09W0NIXVtDQF0oTzIpKFtDSDNdKVtDQEBdMShbQ0gzXSlbQ0BASF0oW0NASF0zW0NAXTI0NSlbQ0BASF02QyhbQ0BASF01W09IXSkoW0NIMl1PW0NIM10pW0NIMl1PW0NAQEhdKE8zKVtDQEhdN1tDSDJdW0NASF0oW0NIM10pW0NAXTQoW09IXSlbQ0BIXShCcilbQ0BASF02QzcoW0NIM10pW0NIM10=

>  <s_epik_cmdline>  (459) 
J2VwaWtfcHl0aG9uJywgJy1waHQnLCAnMi4wJywgJy1waCcsICc3LjAnLCAnLXRuJywgJzgnLCAnLW1hJywgJzIwMCcsICctaW1hZScsICc8aW5maWxlLm1hZT4nLCAnLW9tYWUnLCAnPG91dGZpbGUubWFlPic=

>  <r_lp_tautomer_probability>  (459) 
1

>  <r_epik_Ionization_Penalty>  (459) 
1.36433e-06

>  <r_epik_Ionization_Penalty_Charging>  (459) 
0

>  <r_epik_Ionization_Penalty_Neutral>  (459) 
1.36433e-06

>  <r_epik_State_Penalty>  (459) 
-0

>  <r_epik_Charging_Adjusted_Penalty>  (459) 
0

>  <i_epik_Tot_Q>  (459) 
0

>  <i_epik_Tot_abs_Q>  (459) 
0

>  <s_epik_Chemistry_Notes>  (459) 
This compound contains an acetal/aminal-like group ( X-CH(R)-Y where X, Y are N, S, or O) that may be acid/base labile, releasing an aldehyde.

>  <s_lp_Force_Field>  (459) 
OPLS3e

>  <r_lp_Energy>  (459) 
590.748

>  <b_lp_Chiralities_Consistent>  (459) 
1

>  <s_lp_Variant>  (459) 
115:0-2

>  <s_i_glide_gridfile>  (459) 
pfpi4k_grid

>  <i_i_glide_lignum>  (459) 
45

>  <i_i_glide_rotatable_bonds>  (459) 
4

>  <r_i_docking_score>  (459) 
-1.59847

>  <r_i_glide_ligand_efficiency>  (459) 
-0.0456706

>  <r_i_glide_ligand_efficiency_sa>  (459) 
-0.149392

>  <r_i_glide_ligand_efficiency_ln>  (459) 
-0.3509

>  <r_i_glide_gscore>  (459) 
-1.59847

>  <r_i_glide_lipo>  (459) 
-0.225112

>  <r_i_glide_hbond>  (459) 
0

>  <r_i_glide_metal>  (459) 
-0

>  <r_i_glide_rewards>  (459) 
-0.0247276

>  <r_i_glide_evdw>  (459) 
-21.3311

>  <r_i_glide_ecoul>  (459) 
-2.15567

>  <r_i_glide_erotb>  (459) 
0.0677374

>  <r_i_glide_esite>  (459) 
-0.0264613

>  <r_i_glide_emodel>  (459) 
-20.1445

>  <r_i_glide_energy>  (459) 
-23.4868

>  <r_i_glide_einternal>  (459) 
9.24064

>  <r_i_glide_intrahb_reward>  (459) 
-0

>  <i_i_glide_confnum>  (459) 
3

>  <i_i_glide_posenum>  (459) 
13

>  <r_i_glide_eff_state_penalty>  (459) 
0

>  <ligand_id>  (459) 
115

>  <original_smiles>  (459) 
COCC12COC3OC4C5C1C1C(Br)C(O)(C(C)CC3C1(C)C)C4(OC1(C)C=CC(=O)C51C)C2O

>  <smiles>  (459) 
[H]OC1([H])C23OC4(C([H])([H])[H])C([H])=C([H])C(=O)C4(C([H])([H])[H])C4([H])C2([H])OC2([H])OC([H])([H])C1(C([H])([H])OC([H])([H])[H])C4([H])C1([H])C([H])(Br)C3(O[H])C([H])(C([H])([H])[H])C([H])([H])C2([H])C1(C([H])([H])[H])C([H])([H])[H]

$$$$
115:1:1
     RDKit          3D

 72 78  0  0  1  0  0  0  0  0999 V2000
    1.4383    0.5215    1.3877 C   0  0  0  0  0  0  0  0  0  0  0  0
    1.3676    0.8389    2.7442 O   0  0  0  0  0  0  0  0  0  0  0  0
    0.2568    0.3351    3.4606 C   0  0  0  0  0  0  0  0  0  0  0  0
    0.3771    0.7193    4.9682 C   0  0  1  0  0  0  0  0  0  0  0  0
   -1.2206    0.9487    5.6570 C   0  0  0  0  0  0  0  0  0  0  0  0
   -1.6872    2.4020    6.1756 O   0  0  0  0  0  0  0  0  0  0  0  0
   -0.9231    3.6443    6.7417 C   0  0  1  0  0  0  0  0  0  0  0  0
    0.1290    3.4762    7.6938 O   0  0  0  0  0  0  0  0  0  0  0  0
    1.3008    2.6031    7.6170 C   0  0  1  0  0  0  0  0  0  0  0  0
    0.5423    1.5492    7.1907 C   0  0  1  0  0  0  0  0  0  0  0  0
    0.5158    2.0009    5.3613 C   0  0  1  0  0  0  0  0  0  0  0  0
    1.0496    3.2755    4.4173 C   0  0  2  0  0  0  0  0  0  0  0  0
    2.5667    3.6315    4.5592 C   0  0  1  0  0  0  0  0  0  0  0  0
    3.3486    5.1446    3.5124 Br  0  0  0  0  0  0  0  0  0  0  0  0
    2.9637    3.5894    6.0250 C   0  0  1  0  0  0  0  0  0  0  0  0
    4.3806    3.5559    6.0575 O   0  0  0  0  0  0  0  0  0  0  0  0
    2.4247    4.9232    6.7542 C   0  0  1  0  0  0  0  0  0  0  0  0
    3.4229    6.1115    6.7318 C   0  0  0  0  0  0  0  0  0  0  0  0
    0.9485    5.5247    6.5096 C   0  0  0  0  0  0  0  0  0  0  0  0
   -0.2905    4.7879    5.8086 C   0  0  1  0  0  0  0  0  0  0  0  0
   -0.0222    4.4494    4.3457 C   0  0  0  0  0  0  0  0  0  0  0  0
    0.3752    5.7174    3.5281 C   0  0  0  0  0  0  0  0  0  0  0  0
   -1.3557    4.0879    3.5913 C   0  0  0  0  0  0  0  0  0  0  0  0
    2.4912    2.1655    6.5994 C   0  0  1  0  0  0  0  0  0  0  0  0
    3.4041    1.4344    7.4333 O   0  0  0  0  0  0  0  0  0  0  0  0
    2.7841    0.4348    8.2852 C   0  0  2  0  0  0  0  0  0  0  0  0
    3.2828    0.8001    9.7058 C   0  0  0  0  0  0  0  0  0  0  0  0
    3.2794   -0.9738    8.0057 C   0  0  0  0  0  0  0  0  0  0  0  0
    2.3325   -1.8431    7.6369 C   0  0  0  0  0  0  0  0  0  0  0  0
    1.0513   -1.1413    7.5414 C   0  0  0  0  0  0  0  0  0  0  0  0
   -0.0188   -1.6284    7.1736 O   0  0  0  0  0  0  0  0  0  0  0  0
    1.2007    0.3089    8.0574 C   0  0  2  0  0  0  0  0  0  0  0  0
    0.4811    0.2113    9.4456 C   0  0  0  0  0  0  0  0  0  0  0  0
    2.0152    0.9475    5.4038 C   0  0  1  0  0  0  0  0  0  0  0  0
    2.7636   -0.2405    5.3023 O   0  0  0  0  0  0  0  0  0  0  0  0
    2.3398    0.9702    0.9763 H   0  0  0  0  0  0  0  0  0  0  0  0
    0.5873    0.9170    0.8387 H   0  0  0  0  0  0  0  0  0  0  0  0
    1.5157   -0.5574    1.2765 H   0  0  0  0  0  0  0  0  0  0  0  0
   -0.6738    0.6974    3.0207 H   0  0  0  0  0  0  0  0  0  0  0  0
    0.2319   -0.7522    3.3763 H   0  0  0  0  0  0  0  0  0  0  0  0
   -1.9582    0.6935    4.8911 H   0  0  0  0  0  0  0  0  0  0  0  0
   -1.4463    0.2090    6.4193 H   0  0  0  0  0  0  0  0  0  0  0  0
   -1.6976    4.1242    7.3431 H   0  0  0  0  0  0  0  0  0  0  0  0
    1.6365    2.6200    8.6479 H   0  0  0  0  0  0  0  0  0  0  0  0
   -0.4054    1.5069    7.7457 H   0  0  0  0  0  0  0  0  0  0  0  0
   -0.2408    2.3440    4.6837 H   0  0  0  0  0  0  0  0  0  0  0  0
    1.0305    2.9923    3.3644 H   0  0  0  0  0  0  0  0  0  0  0  0
    3.1440    2.8924    4.0212 H   0  0  0  0  0  0  0  0  0  0  0  0
    4.6664    2.7882    5.5926 H   0  0  0  0  0  0  0  0  0  0  0  0
    2.4631    4.7026    7.8201 H   0  0  0  0  0  0  0  0  0  0  0  0
    3.5545    6.5515    5.7463 H   0  0  0  0  0  0  0  0  0  0  0  0
    4.4077    5.8263    7.1027 H   0  0  0  0  0  0  0  0  0  0  0  0
    3.0743    6.9123    7.3835 H   0  0  0  0  0  0  0  0  0  0  0  0
    0.5942    5.8792    7.4792 H   0  0  0  0  0  0  0  0  0  0  0  0
    1.0769    6.4710    5.9921 H   0  0  0  0  0  0  0  0  0  0  0  0
   -1.0478    5.5583    5.7575 H   0  0  0  0  0  0  0  0  0  0  0  0
   -0.4521    6.4199    3.4207 H   0  0  0  0  0  0  0  0  0  0  0  0
    0.6861    5.4590    2.5131 H   0  0  0  0  0  0  0  0  0  0  0  0
    1.1601    6.3304    3.9566 H   0  0  0  0  0  0  0  0  0  0  0  0
   -2.0250    4.9425    3.5017 H   0  0  0  0  0  0  0  0  0  0  0  0
   -1.9676    3.3133    4.0409 H   0  0  0  0  0  0  0  0  0  0  0  0
   -1.1502    3.7510    2.5747 H   0  0  0  0  0  0  0  0  0  0  0  0
    2.9956    0.0606   10.4529 H   0  0  0  0  0  0  0  0  0  0  0  0
    2.9374    1.7709   10.0589 H   0  0  0  0  0  0  0  0  0  0  0  0
    4.3705    0.8432    9.7165 H   0  0  0  0  0  0  0  0  0  0  0  0
    4.3241   -1.2283    8.1177 H   0  0  0  0  0  0  0  0  0  0  0  0
    2.4822   -2.8849    7.3843 H   0  0  0  0  0  0  0  0  0  0  0  0
    0.5983    1.1123   10.0466 H   0  0  0  0  0  0  0  0  0  0  0  0
    0.8545   -0.6286   10.0393 H   0  0  0  0  0  0  0  0  0  0  0  0
   -0.5901    0.0401    9.3399 H   0  0  0  0  0  0  0  0  0  0  0  0
    2.5866    1.1669    4.5289 H   0  0  0  0  0  0  0  0  0  0  0  0
    3.6680   -0.0086    5.1541 H   0  0  0  0  0  0  0  0  0  0  0  0
  1  2  1  0
  1 36  1  0
  1 37  1  0
  1 38  1  0
  2  3  1  0
  4  3  1  6
  3 39  1  0
  3 40  1  0
  4 11  1  0
  4 34  1  0
  4  5  1  0
  5  6  1  0
  5 41  1  0
  5 42  1  0
  6  7  1  0
  7 20  1  0
  7  8  1  0
  7 43  1  1
  8  9  1  0
  9 24  1  0
  9 10  1  0
  9 44  1  1
 10 32  1  0
 10 11  1  0
 10 45  1  1
 11 12  1  0
 11 46  1  1
 12 21  1  0
 12 13  1  0
 12 47  1  6
 13 14  1  0
 13 15  1  0
 13 48  1  6
 15 16  1  6
 15 17  1  0
 15 24  1  0
 16 49  1  0
 17 18  1  0
 17 19  1  0
 17 50  1  1
 18 51  1  0
 18 52  1  0
 18 53  1  0
 19 20  1  0
 19 54  1  0
 19 55  1  0
 20 21  1  0
 20 56  1  6
 21 22  1  0
 21 23  1  0
 22 57  1  0
 22 58  1  0
 22 59  1  0
 23 60  1  0
 23 61  1  0
 23 62  1  0
 24 25  1  1
 24 34  1  0
 25 26  1  0
 26 32  1  0
 26 27  1  1
 26 28  1  0
 27 63  1  0
 27 64  1  0
 27 65  1  0
 28 29  2  0
 28 66  1  0
 29 30  1  0
 29 67  1  0
 30 31  2  0
 30 32  1  0
 32 33  1  1
 33 68  1  0
 33 69  1  0
 33 70  1  0
 34 35  1  0
 34 71  1  6
 35 72  1  0
M  END
>  <i_m_ct_stereo_status>  (460) 
1

>  <s_m_source_file>  (460) 
/var/tmp/pbs.5076255.sched01/tmp9yj1qf5s/135tauqa2n_.sdf

>  <i_m_source_file_index>  (460) 
45

>  <i_lp_mmshare_version>  (460) 
48012

>  <i_f3d_flags>  (460) 
0

>  <s_epik_input>  (460) 
Tz1DMVtDSF09W0NIXVtDQF0oTzIpKFtDSDNdKVtDQEBdMShbQ0gzXSlbQ0BASF0oW0NASF0zW0NAXTI0NSlbQ0BASF02QyhbQ0BASF01W09IXSkoW0NIMl1PW0NIM10pW0NIMl1PW0NAQEhdKE8zKVtDQEhdN1tDSDJdW0NASF0oW0NIM10pW0NAXTQoW09IXSlbQ0BIXShCcilbQ0BASF02QzcoW0NIM10pW0NIM10=

>  <s_epik_cmdline>  (460) 
J2VwaWtfcHl0aG9uJywgJy1waHQnLCAnMi4wJywgJy1waCcsICc3LjAnLCAnLXRuJywgJzgnLCAnLW1hJywgJzIwMCcsICctaW1hZScsICc8aW5maWxlLm1hZT4nLCAnLW9tYWUnLCAnPG91dGZpbGUubWFlPic=

>  <r_lp_tautomer_probability>  (460) 
1

>  <r_epik_Ionization_Penalty>  (460) 
1.36433e-06

>  <r_epik_Ionization_Penalty_Charging>  (460) 
0

>  <r_epik_Ionization_Penalty_Neutral>  (460) 
1.36433e-06

>  <r_epik_State_Penalty>  (460) 
-0

>  <r_epik_Charging_Adjusted_Penalty>  (460) 
0

>  <i_epik_Tot_Q>  (460) 
0

>  <i_epik_Tot_abs_Q>  (460) 
0

>  <s_epik_Chemistry_Notes>  (460) 
This compound contains an acetal/aminal-like group ( X-CH(R)-Y where X, Y are N, S, or O) that may be acid/base labile, releasing an aldehyde.

>  <s_lp_Force_Field>  (460) 
OPLS3e

>  <r_lp_Energy>  (460) 
590.748

>  <b_lp_Chiralities_Consistent>  (460) 
1

>  <s_lp_Variant>  (460) 
115:0-2

>  <s_i_glide_gridfile>  (460) 
pfpi4k_grid

>  <i_i_glide_lignum>  (460) 
45

>  <i_i_glide_rotatable_bonds>  (460) 
4

>  <r_i_docking_score>  (460) 
-1.12886

>  <r_i_glide_ligand_efficiency>  (460) 
-0.0322532

>  <r_i_glide_ligand_efficiency_sa>  (460) 
-0.105502

>  <r_i_glide_ligand_efficiency_ln>  (460) 
-0.24781

>  <r_i_glide_gscore>  (460) 
-1.12886

>  <r_i_glide_lipo>  (460) 
-0.0814235

>  <r_i_glide_hbond>  (460) 
0

>  <r_i_glide_metal>  (460) 
-0

>  <r_i_glide_rewards>  (460) 
-0.00329643

>  <r_i_glide_evdw>  (460) 
-17.804

>  <r_i_glide_ecoul>  (460) 
-1.40758

>  <r_i_glide_erotb>  (460) 
0.0677374

>  <r_i_glide_esite>  (460) 
-0.0105439

>  <r_i_glide_emodel>  (460) 
-15.0754

>  <r_i_glide_energy>  (460) 
-19.2115

>  <r_i_glide_einternal>  (460) 
9.20019

>  <r_i_glide_intrahb_reward>  (460) 
-0

>  <i_i_glide_confnum>  (460) 
6

>  <i_i_glide_posenum>  (460) 
3

>  <r_i_glide_eff_state_penalty>  (460) 
0

>  <ligand_id>  (460) 
115

>  <original_smiles>  (460) 
COCC12COC3OC4C5C1C1C(Br)C(O)(C(C)CC3C1(C)C)C4(OC1(C)C=CC(=O)C51C)C2O

>  <smiles>  (460) 
[H]OC1([H])C23OC4(C([H])([H])[H])C([H])=C([H])C(=O)C4(C([H])([H])[H])C4([H])C2([H])OC2([H])OC([H])([H])C1(C([H])([H])OC([H])([H])[H])C4([H])C1([H])C([H])(Br)C3(O[H])C([H])(C([H])([H])[H])C([H])([H])C2([H])C1(C([H])([H])[H])C([H])([H])[H]

$$$$
115:1:2
     RDKit          3D

 72 78  0  0  1  0  0  0  0  0999 V2000
    0.3367   -6.8208    1.4913 C   0  0  0  0  0  0  0  0  0  0  0  0
    1.1884   -5.8174    1.0435 O   0  0  0  0  0  0  0  0  0  0  0  0
    2.2327   -6.1955    0.1997 C   0  0  0  0  0  0  0  0  0  0  0  0
    3.3880   -5.1880    0.0052 C   0  0  1  0  0  0  0  0  0  0  0  0
    4.9451   -5.9479    0.0727 C   0  0  0  0  0  0  0  0  0  0  0  0
    5.9660   -5.6256    1.2731 O   0  0  0  0  0  0  0  0  0  0  0  0
    6.1761   -4.3798    2.1907 C   0  0  1  0  0  0  0  0  0  0  0  0
    6.1659   -3.0584    1.6435 O   0  0  0  0  0  0  0  0  0  0  0  0
    5.1577   -2.4369    0.7777 C   0  0  1  0  0  0  0  0  0  0  0  0
    5.1063   -3.5429   -0.0232 C   0  0  1  0  0  0  0  0  0  0  0  0
    3.8759   -4.5127    1.0462 C   0  0  1  0  0  0  0  0  0  0  0  0
    3.1436   -4.2945    2.5302 C   0  0  2  0  0  0  0  0  0  0  0  0
    2.3329   -2.9657    2.6859 C   0  0  1  0  0  0  0  0  0  0  0  0
    1.3367   -2.5691    4.3717 Br  0  0  0  0  0  0  0  0  0  0  0  0
    3.1389   -1.8202    2.1122 C   0  0  1  0  0  0  0  0  0  0  0  0
    2.2483   -0.7302    1.9745 O   0  0  0  0  0  0  0  0  0  0  0  0
    4.3109   -1.4489    3.1482 C   0  0  1  0  0  0  0  0  0  0  0  0
    3.9211   -0.3668    4.1909 C   0  0  0  0  0  0  0  0  0  0  0  0
    5.1972   -2.5690    3.8985 C   0  0  0  0  0  0  0  0  0  0  0  0
    5.3508   -4.1285    3.5567 C   0  0  1  0  0  0  0  0  0  0  0  0
    4.0265   -4.8534    3.7236 C   0  0  0  0  0  0  0  0  0  0  0  0
    3.4359   -4.6756    5.1582 C   0  0  0  0  0  0  0  0  0  0  0  0
    4.2357   -6.4097    3.7439 C   0  0  0  0  0  0  0  0  0  0  0  0
    3.5480   -2.2396    0.6179 C   0  0  1  0  0  0  0  0  0  0  0  0
    3.4088   -1.2410   -0.3951 O   0  0  0  0  0  0  0  0  0  0  0  0
    4.1631   -1.4984   -1.5972 C   0  0  2  0  0  0  0  0  0  0  0  0
    4.9649   -0.2484   -1.7742 C   0  0  0  0  0  0  0  0  0  0  0  0
    3.3180   -1.6586   -2.8353 C   0  0  0  0  0  0  0  0  0  0  0  0
    3.4945   -2.8499   -3.4628 C   0  0  0  0  0  0  0  0  0  0  0  0
    4.5134   -3.6108   -2.7619 C   0  0  0  0  0  0  0  0  0  0  0  0
    5.0083   -4.6596   -3.2026 O   0  0  0  0  0  0  0  0  0  0  0  0
    5.0406   -2.8720   -1.5306 C   0  0  2  0  0  0  0  0  0  0  0  0
    6.5021   -2.6382   -2.0140 C   0  0  0  0  0  0  0  0  0  0  0  0
    2.7311   -3.6478   -0.0965 C   0  0  1  0  0  0  0  0  0  0  0  0
    1.8459   -3.4900   -1.1848 O   0  0  0  0  0  0  0  0  0  0  0  0
   -0.3246   -6.3281    2.1959 H   0  0  0  0  0  0  0  0  0  0  0  0
    0.8887   -7.5896    2.0292 H   0  0  0  0  0  0  0  0  0  0  0  0
   -0.2527   -7.2558    0.6863 H   0  0  0  0  0  0  0  0  0  0  0  0
    2.6683   -7.1631    0.5209 H   0  0  0  0  0  0  0  0  0  0  0  0
    1.7137   -6.2246   -0.7504 H   0  0  0  0  0  0  0  0  0  0  0  0
    4.8267   -7.0342    0.1300 H   0  0  0  0  0  0  0  0  0  0  0  0
    5.4550   -5.8435   -0.9016 H   0  0  0  0  0  0  0  0  0  0  0  0
    7.2098   -4.5370    2.4625 H   0  0  0  0  0  0  0  0  0  0  0  0
    5.7011   -1.5785    0.4119 H   0  0  0  0  0  0  0  0  0  0  0  0
    6.1031   -3.9681   -0.1912 H   0  0  0  0  0  0  0  0  0  0  0  0
    3.9358   -5.4004    1.6545 H   0  0  0  0  0  0  0  0  0  0  0  0
    2.3244   -4.9941    2.6750 H   0  0  0  0  0  0  0  0  0  0  0  0
    1.4298   -3.0247    2.1060 H   0  0  0  0  0  0  0  0  0  0  0  0
    2.0595   -0.3915    2.8270 H   0  0  0  0  0  0  0  0  0  0  0  0
    5.0261   -0.8619    2.5709 H   0  0  0  0  0  0  0  0  0  0  0  0
    3.2105   -0.7201    4.9337 H   0  0  0  0  0  0  0  0  0  0  0  0
    3.5127    0.5307    3.7282 H   0  0  0  0  0  0  0  0  0  0  0  0
    4.8026   -0.0375    4.7405 H   0  0  0  0  0  0  0  0  0  0  0  0
    6.1979   -2.1726    3.8656 H   0  0  0  0  0  0  0  0  0  0  0  0
    4.9692   -2.4976    4.9622 H   0  0  0  0  0  0  0  0  0  0  0  0
    6.0020   -4.5448    4.3252 H   0  0  0  0  0  0  0  0  0  0  0  0
    4.0497   -5.1691    5.9101 H   0  0  0  0  0  0  0  0  0  0  0  0
    2.4413   -5.1215    5.2314 H   0  0  0  0  0  0  0  0  0  0  0  0
    3.3622   -3.6563    5.5128 H   0  0  0  0  0  0  0  0  0  0  0  0
    4.8029   -6.7353    4.6130 H   0  0  0  0  0  0  0  0  0  0  0  0
    4.7843   -6.8263    2.9014 H   0  0  0  0  0  0  0  0  0  0  0  0
    3.2808   -6.9377    3.7734 H   0  0  0  0  0  0  0  0  0  0  0  0
    5.5787   -0.3079   -2.6576 H   0  0  0  0  0  0  0  0  0  0  0  0
    5.6564   -0.0653   -0.9409 H   0  0  0  0  0  0  0  0  0  0  0  0
    4.2557    0.5571   -1.9247 H   0  0  0  0  0  0  0  0  0  0  0  0
    2.6611   -0.8535   -3.1917 H   0  0  0  0  0  0  0  0  0  0  0  0
    2.9934   -3.1651   -4.3655 H   0  0  0  0  0  0  0  0  0  0  0  0
    7.0879   -1.9474   -1.4189 H   0  0  0  0  0  0  0  0  0  0  0  0
    6.4724   -2.3123   -3.0444 H   0  0  0  0  0  0  0  0  0  0  0  0
    7.0665   -3.5793   -2.0753 H   0  0  0  0  0  0  0  0  0  0  0  0
    1.8084   -3.7190    0.4281 H   0  0  0  0  0  0  0  0  0  0  0  0
    1.5777   -2.5659   -1.1741 H   0  0  0  0  0  0  0  0  0  0  0  0
  1  2  1  0
  1 36  1  0
  1 37  1  0
  1 38  1  0
  2  3  1  0
  4  3  1  1
  3 39  1  0
  3 40  1  0
  4 11  1  0
  4 34  1  0
  4  5  1  0
  5  6  1  0
  5 41  1  0
  5 42  1  0
  6  7  1  0
  7 20  1  0
  7  8  1  0
  7 43  1  1
  8  9  1  0
  9 24  1  0
  9 10  1  0
  9 44  1  6
 10 32  1  0
 10 11  1  0
 10 45  1  6
 11 12  1  0
 11 46  1  1
 12 21  1  0
 12 13  1  0
 12 47  1  6
 13 14  1  0
 13 15  1  0
 13 48  1  6
 15 16  1  6
 15 17  1  0
 15 24  1  0
 16 49  1  0
 17 18  1  0
 17 19  1  0
 17 50  1  6
 18 51  1  0
 18 52  1  0
 18 53  1  0
 19 20  1  0
 19 54  1  0
 19 55  1  0
 20 21  1  0
 20 56  1  1
 21 22  1  0
 21 23  1  0
 22 57  1  0
 22 58  1  0
 22 59  1  0
 23 60  1  0
 23 61  1  0
 23 62  1  0
 24 25  1  6
 24 34  1  0
 25 26  1  0
 26 32  1  0
 26 27  1  6
 26 28  1  0
 27 63  1  0
 27 64  1  0
 27 65  1  0
 28 29  2  0
 28 66  1  0
 29 30  1  0
 29 67  1  0
 30 31  2  0
 30 32  1  0
 32 33  1  6
 33 68  1  0
 33 69  1  0
 33 70  1  0
 34 35  1  0
 34 71  1  1
 35 72  1  0
M  END
>  <i_m_ct_stereo_status>  (461) 
1

>  <s_m_source_file>  (461) 
/var/tmp/pbs.5076255.sched01/tmp9yj1qf5s/135tauqa2n_.sdf

>  <i_m_source_file_index>  (461) 
45

>  <i_lp_mmshare_version>  (461) 
48012

>  <i_f3d_flags>  (461) 
0

>  <s_epik_input>  (461) 
Tz1DMVtDSF09W0NIXVtDQF0oTzIpKFtDSDNdKVtDQEBdMShbQ0gzXSlbQ0BASF0oW0NASF0zW0NAXTI0NSlbQ0BASF02QyhbQ0BASF01W09IXSkoW0NIMl1PW0NIM10pW0NIMl1PW0NAQEhdKE8zKVtDQEhdN1tDSDJdW0NASF0oW0NIM10pW0NAXTQoW09IXSlbQ0BIXShCcilbQ0BASF02QzcoW0NIM10pW0NIM10=

>  <s_epik_cmdline>  (461) 
J2VwaWtfcHl0aG9uJywgJy1waHQnLCAnMi4wJywgJy1waCcsICc3LjAnLCAnLXRuJywgJzgnLCAnLW1hJywgJzIwMCcsICctaW1hZScsICc8aW5maWxlLm1hZT4nLCAnLW9tYWUnLCAnPG91dGZpbGUubWFlPic=

>  <r_lp_tautomer_probability>  (461) 
1

>  <r_epik_Ionization_Penalty>  (461) 
1.36433e-06

>  <r_epik_Ionization_Penalty_Charging>  (461) 
0

>  <r_epik_Ionization_Penalty_Neutral>  (461) 
1.36433e-06

>  <r_epik_State_Penalty>  (461) 
-0

>  <r_epik_Charging_Adjusted_Penalty>  (461) 
0

>  <i_epik_Tot_Q>  (461) 
0

>  <i_epik_Tot_abs_Q>  (461) 
0

>  <s_epik_Chemistry_Notes>  (461) 
This compound contains an acetal/aminal-like group ( X-CH(R)-Y where X, Y are N, S, or O) that may be acid/base labile, releasing an aldehyde.

>  <s_lp_Force_Field>  (461) 
OPLS3e

>  <r_lp_Energy>  (461) 
590.748

>  <b_lp_Chiralities_Consistent>  (461) 
1

>  <s_lp_Variant>  (461) 
115:0-2

>  <s_i_glide_gridfile>  (461) 
pfpi4k_grid

>  <i_i_glide_lignum>  (461) 
45

>  <i_i_glide_rotatable_bonds>  (461) 
4

>  <r_i_docking_score>  (461) 
-1.07313

>  <r_i_glide_ligand_efficiency>  (461) 
-0.0306608

>  <r_i_glide_ligand_efficiency_sa>  (461) 
-0.100293

>  <r_i_glide_ligand_efficiency_ln>  (461) 
-0.235575

>  <r_i_glide_gscore>  (461) 
-1.07313

>  <r_i_glide_lipo>  (461) 
-0.4417

>  <r_i_glide_hbond>  (461) 
-0.16

>  <r_i_glide_metal>  (461) 
-0

>  <r_i_glide_rewards>  (461) 
-0.0433854

>  <r_i_glide_evdw>  (461) 
-5.11508

>  <r_i_glide_ecoul>  (461) 
-1.42358

>  <r_i_glide_erotb>  (461) 
0.0474162

>  <r_i_glide_esite>  (461) 
-0.00616667

>  <r_i_glide_emodel>  (461) 
1.9333

>  <r_i_glide_energy>  (461) 
-6.53866

>  <r_i_glide_einternal>  (461) 
12.6777

>  <r_i_glide_intrahb_reward>  (461) 
-0

>  <i_i_glide_confnum>  (461) 
3

>  <i_i_glide_posenum>  (461) 
14

>  <r_i_glide_eff_state_penalty>  (461) 
0

>  <ligand_id>  (461) 
115

>  <original_smiles>  (461) 
COCC12COC3OC4C5C1C1C(Br)C(O)(C(C)CC3C1(C)C)C4(OC1(C)C=CC(=O)C51C)C2O

>  <smiles>  (461) 
[H]OC1([H])C23OC4(C([H])([H])[H])C([H])=C([H])C(=O)C4(C([H])([H])[H])C4([H])C2([H])OC2([H])OC([H])([H])C1(C([H])([H])OC([H])([H])[H])C4([H])C1([H])C([H])(Br)C3(O[H])C([H])(C([H])([H])[H])C([H])([H])C2([H])C1(C([H])([H])[H])C([H])([H])[H]

$$$$
