0:0:0
     RDKit          3D

 64 68  0  0  1  0  0  0  0  0999 V2000
    3.8147   -1.4469    0.6788 C   0  0  0  0  0  0  0  0  0  0  0  0
    5.0930   -1.9216   -0.0477 C   0  0  0  0  0  0  0  0  0  0  0  0
    4.9957   -1.7373   -1.5711 C   0  0  0  0  0  0  0  0  0  0  0  0
    6.2873   -1.1156    0.4908 C   0  0  0  0  0  0  0  0  0  0  0  0
    5.4506   -3.2776    0.2471 O   0  0  0  0  0  0  0  0  0  0  0  0
    4.5879   -4.3281    0.2514 C   0  0  0  0  0  0  0  0  0  0  0  0
    3.3958   -4.2487   -0.0225 O   0  0  0  0  0  0  0  0  0  0  0  0
    5.2631   -5.5123    0.6158 N   0  0  0  0  0  0  0  0  0  0  0  0
    6.7164   -5.6276    0.8728 C   0  0  0  0  0  0  0  0  0  0  0  0
    7.0588   -6.2198    2.2675 C   0  0  2  0  0  0  0  0  0  0  0  0
    7.3386   -7.7349    2.1886 C   0  0  0  0  0  0  0  0  0  0  0  0
    6.1007   -8.4691    1.6443 C   0  0  0  0  0  0  0  0  0  0  0  0
    4.7859   -7.6656    1.8386 C   0  0  2  0  0  0  0  0  0  0  0  0
    4.4775   -6.7467    0.6537 C   0  0  0  0  0  0  0  0  0  0  0  0
    4.8003   -6.9074    3.1256 N   0  0  0  0  0  0  0  0  0  0  0  0
    3.9123   -6.9841    4.1479 C   0  0  0  0  0  0  0  0  0  0  0  0
    4.0279   -6.2375    5.1188 O   0  0  0  0  0  0  0  0  0  0  0  0
    2.7662   -8.0332    4.1617 C   0  0  1  0  0  0  0  0  0  0  0  0
    3.2752   -9.5064    3.8998 C   0  0  0  0  0  0  0  0  0  0  0  0
    2.0714  -10.4594    3.8891 C   0  0  2  0  0  0  0  0  0  0  0  0
    1.0298  -10.0086    2.8337 C   0  0  0  0  0  0  0  0  0  0  0  0
    0.4889   -8.6062    3.1841 C   0  0  1  0  0  0  0  0  0  0  0  0
   -0.1522   -8.6361    4.5898 C   0  0  0  0  0  0  0  0  0  0  0  0
    0.9191   -9.0582    5.6115 C   0  0  1  0  0  0  0  0  0  0  0  0
    0.1582   -9.0565    7.4569 Br  0  0  0  0  0  0  0  0  0  0  0  0
    1.4307  -10.4786    5.2850 C   0  0  0  0  0  0  0  0  0  0  0  0
    2.0859   -8.0521    5.5740 C   0  0  0  0  0  0  0  0  0  0  0  0
    1.6534   -7.6018    3.1621 C   0  0  0  0  0  0  0  0  0  0  0  0
    5.9480   -5.9862    3.3088 C   0  0  0  0  0  0  0  0  0  0  0  0
    3.6617   -0.3768    0.5493 H   0  0  0  0  0  0  0  0  0  0  0  0
    3.8669   -1.6644    1.7479 H   0  0  0  0  0  0  0  0  0  0  0  0
    2.9105   -1.9098    0.2847 H   0  0  0  0  0  0  0  0  0  0  0  0
    4.1399   -2.2711   -1.9855 H   0  0  0  0  0  0  0  0  0  0  0  0
    5.8925   -2.0951   -2.0789 H   0  0  0  0  0  0  0  0  0  0  0  0
    4.8777   -0.6826   -1.8165 H   0  0  0  0  0  0  0  0  0  0  0  0
    6.1523   -0.0493    0.3124 H   0  0  0  0  0  0  0  0  0  0  0  0
    7.2244   -1.4175    0.0226 H   0  0  0  0  0  0  0  0  0  0  0  0
    6.4107   -1.2501    1.5665 H   0  0  0  0  0  0  0  0  0  0  0  0
    7.1519   -6.2490    0.0888 H   0  0  0  0  0  0  0  0  0  0  0  0
    7.2387   -4.6747    0.7995 H   0  0  0  0  0  0  0  0  0  0  0  0
    7.9676   -5.7203    2.6235 H   0  0  0  0  0  0  0  0  0  0  0  0
    8.2305   -7.9384    1.5919 H   0  0  0  0  0  0  0  0  0  0  0  0
    7.5578   -8.0967    3.1979 H   0  0  0  0  0  0  0  0  0  0  0  0
    6.2579   -8.6800    0.5897 H   0  0  0  0  0  0  0  0  0  0  0  0
    6.0334   -9.4527    2.1059 H   0  0  0  0  0  0  0  0  0  0  0  0
    3.9683   -8.3606    1.7176 H   0  0  0  0  0  0  0  0  0  0  0  0
    3.4207   -6.5123    0.7519 H   0  0  0  0  0  0  0  0  0  0  0  0
    4.5614   -7.2863   -0.2894 H   0  0  0  0  0  0  0  0  0  0  0  0
    3.7515   -9.7280    2.9510 H   0  0  0  0  0  0  0  0  0  0  0  0
    3.9789   -9.7885    4.6962 H   0  0  0  0  0  0  0  0  0  0  0  0
    2.4219  -11.4603    3.6394 H   0  0  0  0  0  0  0  0  0  0  0  0
    1.4916   -9.9792    1.8434 H   0  0  0  0  0  0  0  0  0  0  0  0
    0.2085  -10.7268    2.7605 H   0  0  0  0  0  0  0  0  0  0  0  0
   -0.2615   -8.3117    2.4439 H   0  0  0  0  0  0  0  0  0  0  0  0
   -0.5521   -7.6548    4.8368 H   0  0  0  0  0  0  0  0  0  0  0  0
   -0.9865   -9.3324    4.5935 H   0  0  0  0  0  0  0  0  0  0  0  0
    0.6286  -11.2191    5.3465 H   0  0  0  0  0  0  0  0  0  0  0  0
    2.1919  -10.7682    6.0123 H   0  0  0  0  0  0  0  0  0  0  0  0
    2.8125   -8.3227    6.3417 H   0  0  0  0  0  0  0  0  0  0  0  0
    1.7001   -7.0696    5.8555 H   0  0  0  0  0  0  0  0  0  0  0  0
    1.2834   -6.5975    3.3924 H   0  0  0  0  0  0  0  0  0  0  0  0
    2.0134   -7.5383    2.1385 H   0  0  0  0  0  0  0  0  0  0  0  0
    6.3791   -6.1179    4.3063 H   0  0  0  0  0  0  0  0  0  0  0  0
    5.5849   -4.9563    3.2707 H   0  0  0  0  0  0  0  0  0  0  0  0
  1  2  1  0
  1 30  1  0
  1 31  1  0
  1 32  1  0
  2  3  1  0
  2  4  1  0
  2  5  1  0
  3 33  1  0
  3 34  1  0
  3 35  1  0
  4 36  1  0
  4 37  1  0
  4 38  1  0
  5  6  1  0
  6  7  2  0
  6  8  1  0
  8 14  1  0
  8  9  1  0
  9 10  1  0
  9 39  1  0
  9 40  1  0
 10 29  1  0
 10 11  1  0
 10 41  1  1
 11 12  1  0
 11 42  1  0
 11 43  1  0
 12 13  1  0
 12 44  1  0
 12 45  1  0
 13 14  1  0
 13 15  1  0
 13 46  1  1
 14 47  1  0
 14 48  1  0
 15 16  1  0
 15 29  1  0
 16 17  2  0
 18 16  1  1
 18 27  1  0
 18 28  1  0
 18 19  1  0
 19 20  1  0
 19 49  1  0
 19 50  1  0
 20 26  1  0
 20 21  1  0
 20 51  1  6
 21 22  1  0
 21 52  1  0
 21 53  1  0
 22 23  1  0
 22 28  1  0
 22 54  1  6
 23 24  1  0
 23 55  1  0
 23 56  1  0
 24 25  1  1
 24 26  1  0
 24 27  1  0
 26 57  1  0
 26 58  1  0
 27 59  1  0
 27 60  1  0
 28 61  1  0
 28 62  1  0
 29 63  1  0
 29 64  1  0
M  END
>  <i_m_ct_stereo_status>  (1) 
1

>  <s_m_source_file>  (1) 
/var/tmp/pbs.5076255.sched01/tmpm7cr0ro2/0ctwvxj2z.sdf

>  <i_m_source_file_index>  (1) 
1

>  <i_lp_mmshare_version>  (1) 
48012

>  <i_f3d_flags>  (1) 
0

>  <s_epik_input>  (1) 
W0NIM11DKFtDSDNdKShbQ0gzXSlPQyg9TylOKFtDSDJdW0NASF0xMilbQ0gyXVtDQEBIXShbQ0gyXVtDSDJdMSlOKFtDSDJdMilDKD1PKVtDQEBdMzRbQ0gyXVtDQEBIXTVbQ0gyXVtDQEhdKFtDSDJdNClbQ0gyXVtDQEBdKEJyKShbQ0gyXTUpW0NIMl0z

>  <s_epik_cmdline>  (1) 
J2VwaWtfcHl0aG9uJywgJy1waHQnLCAnMi4wJywgJy1waCcsICc3LjAnLCAnLXRuJywgJzgnLCAnLW1hJywgJzIwMCcsICctaW1hZScsICc8aW5maWxlLm1hZT4nLCAnLW9tYWUnLCAnPG91dGZpbGUubWFlPic=

>  <r_lp_tautomer_probability>  (1) 
1

>  <r_epik_Ionization_Penalty>  (1) 
2.34783e-06

>  <r_epik_Ionization_Penalty_Charging>  (1) 
0

>  <r_epik_Ionization_Penalty_Neutral>  (1) 
2.34783e-06

>  <r_epik_State_Penalty>  (1) 
-0

>  <r_epik_Charging_Adjusted_Penalty>  (1) 
0

>  <i_epik_Tot_Q>  (1) 
0

>  <i_epik_Tot_abs_Q>  (1) 
0

>  <s_epik_Chemistry_Notes>  (1) 
This compound has an ester and may undergo hydrolysis at high or low pH.

>  <s_lp_Force_Field>  (1) 
OPLS3e

>  <r_lp_Energy>  (1) 
36.0236

>  <b_lp_Chiralities_Consistent>  (1) 
1

>  <s_lp_Variant>  (1) 
0:0-1

>  <s_i_glide_gridfile>  (1) 
pfpi4k_grid

>  <i_i_glide_lignum>  (1) 
1

>  <i_i_glide_rotatable_bonds>  (1) 
5

>  <r_i_docking_score>  (1) 
-2.3864

>  <r_i_glide_ligand_efficiency>  (1) 
-0.0822898

>  <r_i_glide_ligand_efficiency_sa>  (1) 
-0.25282

>  <r_i_glide_ligand_efficiency_ln>  (1) 
-0.546426

>  <r_i_glide_gscore>  (1) 
-2.3864

>  <r_i_glide_lipo>  (1) 
-0.582447

>  <r_i_glide_hbond>  (1) 
0

>  <r_i_glide_metal>  (1) 
-0

>  <r_i_glide_rewards>  (1) 
-0.399516

>  <r_i_glide_evdw>  (1) 
-34.2076

>  <r_i_glide_ecoul>  (1) 
-0.423541

>  <r_i_glide_erotb>  (1) 
0.369471

>  <r_i_glide_esite>  (1) 
0

>  <r_i_glide_emodel>  (1) 
-38.7686

>  <r_i_glide_energy>  (1) 
-34.6312

>  <r_i_glide_einternal>  (1) 
1.08163

>  <r_i_glide_intrahb_reward>  (1) 
-0

>  <i_i_glide_confnum>  (1) 
2

>  <i_i_glide_posenum>  (1) 
31

>  <r_i_glide_eff_state_penalty>  (1) 
0

>  <ligand_id>  (1) 
0

>  <original_smiles>  (1) 
CC(C)(C)OC(=O)N1CC2CCC(C1)N(C(=O)C13CC4CC(CC(Br)(C4)C1)C3)C2

>  <smiles>  (1) 
[H]C([H])([H])C(OC(=O)N1C([H])([H])C2([H])N(C(=O)C34C([H])([H])C5([H])C([H])([H])C([H])(C([H])([H])C(Br)(C5([H])[H])C3([H])[H])C4([H])[H])C([H])([H])C([H])(C1([H])[H])C([H])([H])C2([H])[H])(C([H])([H])[H])C([H])([H])[H]

$$$$
0:0:1
     RDKit          3D

 64 68  0  0  1  0  0  0  0  0999 V2000
    3.5505   -0.9813    0.8932 C   0  0  0  0  0  0  0  0  0  0  0  0
    4.7570   -1.4784    0.0684 C   0  0  0  0  0  0  0  0  0  0  0  0
    4.5836   -1.1999   -1.4368 C   0  0  0  0  0  0  0  0  0  0  0  0
    6.0140   -0.7648    0.5839 C   0  0  0  0  0  0  0  0  0  0  0  0
    5.0534   -2.8632    0.2854 O   0  0  0  0  0  0  0  0  0  0  0  0
    4.1499   -3.8743    0.2147 C   0  0  0  0  0  0  0  0  0  0  0  0
    2.9687   -3.7306   -0.0984 O   0  0  0  0  0  0  0  0  0  0  0  0
    4.7401   -5.0938    0.5983 N   0  0  0  0  0  0  0  0  0  0  0  0
    6.1897   -5.2757    0.8552 C   0  0  0  0  0  0  0  0  0  0  0  0
    6.5075   -5.8707    2.2525 C   0  0  2  0  0  0  0  0  0  0  0  0
    6.7178   -7.3921    2.1918 C   0  0  0  0  0  0  0  0  0  0  0  0
    5.4623   -8.0758    1.6435 C   0  0  0  0  0  0  0  0  0  0  0  0
    4.1859   -7.2272    1.8480 C   0  0  2  0  0  0  0  0  0  0  0  0
    3.8948   -6.2889    0.6543 C   0  0  0  0  0  0  0  0  0  0  0  0
    4.2243   -6.4521    3.1214 N   0  0  0  0  0  0  0  0  0  0  0  0
    3.3130   -6.4463    4.1325 C   0  0  0  0  0  0  0  0  0  0  0  0
    3.3927   -5.6148    5.0312 O   0  0  0  0  0  0  0  0  0  0  0  0
    2.1746   -7.5047    4.2210 C   0  0  1  0  0  0  0  0  0  0  0  0
    1.0944   -7.2752    3.1170 C   0  0  0  0  0  0  0  0  0  0  0  0
   -0.0121   -8.3374    3.2398 C   0  0  2  0  0  0  0  0  0  0  0  0
   -0.7168   -8.1715    4.5925 C   0  0  0  0  0  0  0  0  0  0  0  0
    0.3043   -8.4140    5.7253 C   0  0  1  0  0  0  0  0  0  0  0  0
    0.8887   -9.8388    5.6340 C   0  0  0  0  0  0  0  0  0  0  0  0
    1.6042   -9.9721    4.2843 C   0  0  1  0  0  0  0  0  0  0  0  0
    2.4216  -11.7767    4.1439 Br  0  0  0  0  0  0  0  0  0  0  0  0
    0.6057   -9.7498    3.1273 C   0  0  0  0  0  0  0  0  0  0  0  0
    2.7521   -8.9558    4.1989 C   0  0  0  0  0  0  0  0  0  0  0  0
    1.4408   -7.3742    5.6036 C   0  0  0  0  0  0  0  0  0  0  0  0
    5.4067   -5.5739    3.2894 C   0  0  0  0  0  0  0  0  0  0  0  0
    3.4481    0.1014    0.8376 H   0  0  0  0  0  0  0  0  0  0  0  0
    3.6477   -1.2579    1.9431 H   0  0  0  0  0  0  0  0  0  0  0  0
    2.6113   -1.3884    0.5285 H   0  0  0  0  0  0  0  0  0  0  0  0
    3.6769   -1.6608   -1.8303 H   0  0  0  0  0  0  0  0  0  0  0  0
    5.4310   -1.5699   -2.0156 H   0  0  0  0  0  0  0  0  0  0  0  0
    4.5096   -0.1295   -1.6231 H   0  0  0  0  0  0  0  0  0  0  0  0
    5.9221    0.3156    0.4831 H   0  0  0  0  0  0  0  0  0  0  0  0
    6.9086   -1.0756    0.0451 H   0  0  0  0  0  0  0  0  0  0  0  0
    6.1867   -0.9731    1.6412 H   0  0  0  0  0  0  0  0  0  0  0  0
    6.5911   -5.9217    0.0762 H   0  0  0  0  0  0  0  0  0  0  0  0
    6.7675   -4.3552    0.7707 H   0  0  0  0  0  0  0  0  0  0  0  0
    7.4394   -5.4247    2.6071 H   0  0  0  0  0  0  0  0  0  0  0  0
    7.5937   -7.6610    1.5982 H   0  0  0  0  0  0  0  0  0  0  0  0
    6.9027   -7.7635    3.2015 H   0  0  0  0  0  0  0  0  0  0  0  0
    5.5794   -8.2761    0.5808 H   0  0  0  0  0  0  0  0  0  0  0  0
    5.3433   -9.0525    2.1054 H   0  0  0  0  0  0  0  0  0  0  0  0
    3.3807   -7.9516    1.7820 H   0  0  0  0  0  0  0  0  0  0  0  0
    2.8452   -6.0085    0.7587 H   0  0  0  0  0  0  0  0  0  0  0  0
    3.9694   -6.8215   -0.2921 H   0  0  0  0  0  0  0  0  0  0  0  0
    0.6741   -6.2742    3.2181 H   0  0  0  0  0  0  0  0  0  0  0  0
    1.4712   -7.3348    2.1011 H   0  0  0  0  0  0  0  0  0  0  0  0
   -0.7295   -8.1922    2.4350 H   0  0  0  0  0  0  0  0  0  0  0  0
   -1.1326   -7.1684    4.6776 H   0  0  0  0  0  0  0  0  0  0  0  0
   -1.5517   -8.8669    4.6743 H   0  0  0  0  0  0  0  0  0  0  0  0
   -0.1826   -8.2958    6.6955 H   0  0  0  0  0  0  0  0  0  0  0  0
    1.5897  -10.0158    6.4491 H   0  0  0  0  0  0  0  0  0  0  0  0
    0.1053  -10.5920    5.7320 H   0  0  0  0  0  0  0  0  0  0  0  0
   -0.1770  -10.5077    3.1514 H   0  0  0  0  0  0  0  0  0  0  0  0
    1.1091   -9.8619    2.1637 H   0  0  0  0  0  0  0  0  0  0  0  0
    3.3158   -9.2320    3.3132 H   0  0  0  0  0  0  0  0  0  0  0  0
    3.4430   -9.1131    5.0380 H   0  0  0  0  0  0  0  0  0  0  0  0
    2.1356   -7.5171    6.4329 H   0  0  0  0  0  0  0  0  0  0  0  0
    1.0176   -6.3794    5.7314 H   0  0  0  0  0  0  0  0  0  0  0  0
    5.8234   -5.7244    4.2864 H   0  0  0  0  0  0  0  0  0  0  0  0
    5.1061   -4.5238    3.2403 H   0  0  0  0  0  0  0  0  0  0  0  0
  1  2  1  0
  1 30  1  0
  1 31  1  0
  1 32  1  0
  2  3  1  0
  2  4  1  0
  2  5  1  0
  3 33  1  0
  3 34  1  0
  3 35  1  0
  4 36  1  0
  4 37  1  0
  4 38  1  0
  5  6  1  0
  6  7  2  0
  6  8  1  0
  8 14  1  0
  8  9  1  0
  9 10  1  0
  9 39  1  0
  9 40  1  0
 10 29  1  0
 10 11  1  0
 10 41  1  1
 11 12  1  0
 11 42  1  0
 11 43  1  0
 12 13  1  0
 12 44  1  0
 12 45  1  0
 13 14  1  0
 13 15  1  0
 13 46  1  1
 14 47  1  0
 14 48  1  0
 15 16  1  0
 15 29  1  0
 16 17  2  0
 18 16  1  1
 18 27  1  0
 18 28  1  0
 18 19  1  0
 19 20  1  0
 19 49  1  0
 19 50  1  0
 20 26  1  0
 20 21  1  0
 20 51  1  6
 21 22  1  0
 21 52  1  0
 21 53  1  0
 22 23  1  0
 22 28  1  0
 22 54  1  1
 23 24  1  0
 23 55  1  0
 23 56  1  0
 24 25  1  6
 24 26  1  0
 24 27  1  0
 26 57  1  0
 26 58  1  0
 27 59  1  0
 27 60  1  0
 28 61  1  0
 28 62  1  0
 29 63  1  0
 29 64  1  0
M  END
>  <i_m_ct_stereo_status>  (2) 
1

>  <s_m_source_file>  (2) 
/var/tmp/pbs.5076255.sched01/tmpm7cr0ro2/0ctwvxj2z.sdf

>  <i_m_source_file_index>  (2) 
1

>  <i_lp_mmshare_version>  (2) 
48012

>  <i_f3d_flags>  (2) 
0

>  <s_epik_input>  (2) 
W0NIM11DKFtDSDNdKShbQ0gzXSlPQyg9TylOKFtDSDJdW0NASF0xMilbQ0gyXVtDQEBIXShbQ0gyXVtDSDJdMSlOKFtDSDJdMilDKD1PKVtDQEBdMzRbQ0gyXVtDQEBIXTVbQ0gyXVtDQEhdKFtDSDJdNClbQ0gyXVtDQEBdKEJyKShbQ0gyXTUpW0NIMl0z

>  <s_epik_cmdline>  (2) 
J2VwaWtfcHl0aG9uJywgJy1waHQnLCAnMi4wJywgJy1waCcsICc3LjAnLCAnLXRuJywgJzgnLCAnLW1hJywgJzIwMCcsICctaW1hZScsICc8aW5maWxlLm1hZT4nLCAnLW9tYWUnLCAnPG91dGZpbGUubWFlPic=

>  <r_lp_tautomer_probability>  (2) 
1

>  <r_epik_Ionization_Penalty>  (2) 
2.34783e-06

>  <r_epik_Ionization_Penalty_Charging>  (2) 
0

>  <r_epik_Ionization_Penalty_Neutral>  (2) 
2.34783e-06

>  <r_epik_State_Penalty>  (2) 
-0

>  <r_epik_Charging_Adjusted_Penalty>  (2) 
0

>  <i_epik_Tot_Q>  (2) 
0

>  <i_epik_Tot_abs_Q>  (2) 
0

>  <s_epik_Chemistry_Notes>  (2) 
This compound has an ester and may undergo hydrolysis at high or low pH.

>  <s_lp_Force_Field>  (2) 
OPLS3e

>  <r_lp_Energy>  (2) 
36.0236

>  <b_lp_Chiralities_Consistent>  (2) 
1

>  <s_lp_Variant>  (2) 
0:0-1

>  <s_i_glide_gridfile>  (2) 
pfpi4k_grid

>  <i_i_glide_lignum>  (2) 
1

>  <i_i_glide_rotatable_bonds>  (2) 
5

>  <r_i_docking_score>  (2) 
-2.00191

>  <r_i_glide_ligand_efficiency>  (2) 
-0.0690312

>  <r_i_glide_ligand_efficiency_sa>  (2) 
-0.212086

>  <r_i_glide_ligand_efficiency_ln>  (2) 
-0.458386

>  <r_i_glide_gscore>  (2) 
-2.00191

>  <r_i_glide_lipo>  (2) 
-0.506731

>  <r_i_glide_hbond>  (2) 
0

>  <r_i_glide_metal>  (2) 
-0

>  <r_i_glide_rewards>  (2) 
-0.329794

>  <r_i_glide_evdw>  (2) 
-33.1604

>  <r_i_glide_ecoul>  (2) 
0.821109

>  <r_i_glide_erotb>  (2) 
0.369471

>  <r_i_glide_esite>  (2) 
0

>  <r_i_glide_emodel>  (2) 
-36.3265

>  <r_i_glide_energy>  (2) 
-32.3392

>  <r_i_glide_einternal>  (2) 
0.566346

>  <r_i_glide_intrahb_reward>  (2) 
-0

>  <i_i_glide_confnum>  (2) 
3

>  <i_i_glide_posenum>  (2) 
20

>  <r_i_glide_eff_state_penalty>  (2) 
0

>  <ligand_id>  (2) 
0

>  <original_smiles>  (2) 
CC(C)(C)OC(=O)N1CC2CCC(C1)N(C(=O)C13CC4CC(CC(Br)(C4)C1)C3)C2

>  <smiles>  (2) 
[H]C([H])([H])C(OC(=O)N1C([H])([H])C2([H])N(C(=O)C34C([H])([H])C5([H])C([H])([H])C([H])(C([H])([H])C(Br)(C5([H])[H])C3([H])[H])C4([H])[H])C([H])([H])C([H])(C1([H])[H])C([H])([H])C2([H])[H])(C([H])([H])[H])C([H])([H])[H]

$$$$
0:0:2
     RDKit          3D

 64 68  0  0  1  0  0  0  0  0999 V2000
    3.5905   -1.2996    0.3948 C   0  0  0  0  0  0  0  0  0  0  0  0
    4.2941   -2.0768   -0.7324 C   0  0  0  0  0  0  0  0  0  0  0  0
    3.4187   -2.2006   -1.9993 C   0  0  0  0  0  0  0  0  0  0  0  0
    5.5970   -1.3617   -1.1027 C   0  0  0  0  0  0  0  0  0  0  0  0
    4.7425   -3.3412   -0.2419 O   0  0  0  0  0  0  0  0  0  0  0  0
    3.9332   -4.3619    0.1044 C   0  0  0  0  0  0  0  0  0  0  0  0
    2.6999   -4.3437   -0.0294 O   0  0  0  0  0  0  0  0  0  0  0  0
    4.6790   -5.4407    0.6023 N   0  0  0  0  0  0  0  0  0  0  0  0
    6.1357   -5.4124    0.8864 C   0  0  0  0  0  0  0  0  0  0  0  0
    6.4688   -5.7536    2.3687 C   0  0  2  0  0  0  0  0  0  0  0  0
    6.8789   -7.2278    2.5419 C   0  0  0  0  0  0  0  0  0  0  0  0
    5.7216   -8.1329    2.0808 C   0  0  0  0  0  0  0  0  0  0  0  0
    4.3384   -7.4307    2.1396 C   0  0  2  0  0  0  0  0  0  0  0  0
    3.9935   -6.7227    0.8180 C   0  0  0  0  0  0  0  0  0  0  0  0
    4.2488   -6.4895    3.2855 N   0  0  0  0  0  0  0  0  0  0  0  0
    3.3290   -6.4711    4.2901 C   0  0  0  0  0  0  0  0  0  0  0  0
    3.3687   -5.5888    5.1481 O   0  0  0  0  0  0  0  0  0  0  0  0
    2.2425   -7.5722    4.4122 C   0  0  1  0  0  0  0  0  0  0  0  0
    1.1910   -7.4209    3.2692 C   0  0  0  0  0  0  0  0  0  0  0  0
    0.0983   -8.4892    3.3903 C   0  0  2  0  0  0  0  0  0  0  0  0
   -0.6541   -8.2805    4.7160 C   0  0  0  0  0  0  0  0  0  0  0  0
    0.3364   -8.4493    5.8852 C   0  0  1  0  0  0  0  0  0  0  0  0
    0.9491   -9.8694    5.8746 C   0  0  0  0  0  0  0  0  0  0  0  0
    1.7262  -10.0521    4.5507 C   0  0  1  0  0  0  0  0  0  0  0  0
    2.5727  -11.8378    4.4930 Br  0  0  0  0  0  0  0  0  0  0  0  0
    0.7490   -9.8954    3.3568 C   0  0  0  0  0  0  0  0  0  0  0  0
    2.8609   -9.0126    4.4650 C   0  0  0  0  0  0  0  0  0  0  0  0
    1.4484   -7.3890    5.7556 C   0  0  0  0  0  0  0  0  0  0  0  0
    5.3178   -5.4479    3.3414 C   0  0  0  0  0  0  0  0  0  0  0  0
    3.3860   -0.2799    0.0804 H   0  0  0  0  0  0  0  0  0  0  0  0
    4.2030   -1.2484    1.2970 H   0  0  0  0  0  0  0  0  0  0  0  0
    2.6334   -1.7500    0.6573 H   0  0  0  0  0  0  0  0  0  0  0  0
    2.4456   -2.6435   -1.7917 H   0  0  0  0  0  0  0  0  0  0  0  0
    3.9057   -2.8067   -2.7643 H   0  0  0  0  0  0  0  0  0  0  0  0
    3.2094   -1.2175   -2.4200 H   0  0  0  0  0  0  0  0  0  0  0  0
    5.3903   -0.3585   -1.4718 H   0  0  0  0  0  0  0  0  0  0  0  0
    6.1405   -1.8963   -1.8830 H   0  0  0  0  0  0  0  0  0  0  0  0
    6.2561   -1.2629   -0.2391 H   0  0  0  0  0  0  0  0  0  0  0  0
    6.6454   -6.1054    0.2157 H   0  0  0  0  0  0  0  0  0  0  0  0
    6.5796   -4.4398    0.6932 H   0  0  0  0  0  0  0  0  0  0  0  0
    7.3231   -5.1354    2.6628 H   0  0  0  0  0  0  0  0  0  0  0  0
    7.7990   -7.4549    2.0085 H   0  0  0  0  0  0  0  0  0  0  0  0
    7.0744   -7.4136    3.5960 H   0  0  0  0  0  0  0  0  0  0  0  0
    5.9296   -8.4630    1.0625 H   0  0  0  0  0  0  0  0  0  0  0  0
    5.7157   -9.0419    2.6816 H   0  0  0  0  0  0  0  0  0  0  0  0
    3.6222   -8.2262    2.1383 H   0  0  0  0  0  0  0  0  0  0  0  0
    2.9229   -6.5661    0.8359 H   0  0  0  0  0  0  0  0  0  0  0  0
    4.1830   -7.3887   -0.0172 H   0  0  0  0  0  0  0  0  0  0  0  0
    0.7524   -6.4195    3.2686 H   0  0  0  0  0  0  0  0  0  0  0  0
    1.6139   -7.5455    2.2738 H   0  0  0  0  0  0  0  0  0  0  0  0
   -0.5979   -8.3938    2.5548 H   0  0  0  0  0  0  0  0  0  0  0  0
   -1.0972   -7.2821    4.7401 H   0  0  0  0  0  0  0  0  0  0  0  0
   -1.4653   -8.9987    4.7980 H   0  0  0  0  0  0  0  0  0  0  0  0
   -0.1855   -8.3070    6.8377 H   0  0  0  0  0  0  0  0  0  0  0  0
    1.6391   -9.9850    6.7060 H   0  0  0  0  0  0  0  0  0  0  0  0
    0.1852  -10.6380    5.9812 H   0  0  0  0  0  0  0  0  0  0  0  0
   -0.0200  -10.6629    3.3801 H   0  0  0  0  0  0  0  0  0  0  0  0
    1.2858  -10.0261    2.4149 H   0  0  0  0  0  0  0  0  0  0  0  0
    3.4438   -9.3295    3.6214 H   0  0  0  0  0  0  0  0  0  0  0  0
    3.5025   -9.1042    5.3588 H   0  0  0  0  0  0  0  0  0  0  0  0
    2.1144   -7.4738    6.6113 H   0  0  0  0  0  0  0  0  0  0  0  0
    0.9902   -6.4000    5.8219 H   0  0  0  0  0  0  0  0  0  0  0  0
    5.7191   -5.3985    4.3563 H   0  0  0  0  0  0  0  0  0  0  0  0
    4.8745   -4.4762    3.1425 H   0  0  0  0  0  0  0  0  0  0  0  0
  1  2  1  0
  1 30  1  0
  1 31  1  0
  1 32  1  0
  2  3  1  0
  2  4  1  0
  2  5  1  0
  3 33  1  0
  3 34  1  0
  3 35  1  0
  4 36  1  0
  4 37  1  0
  4 38  1  0
  5  6  1  0
  6  7  2  0
  6  8  1  0
  8 14  1  0
  8  9  1  0
  9 10  1  0
  9 39  1  0
  9 40  1  0
 10 29  1  0
 10 11  1  0
 10 41  1  1
 11 12  1  0
 11 42  1  0
 11 43  1  0
 12 13  1  0
 12 44  1  0
 12 45  1  0
 13 14  1  0
 13 15  1  0
 13 46  1  1
 14 47  1  0
 14 48  1  0
 15 16  1  0
 15 29  1  0
 16 17  2  0
 18 16  1  6
 18 27  1  0
 18 28  1  0
 18 19  1  0
 19 20  1  0
 19 49  1  0
 19 50  1  0
 20 26  1  0
 20 21  1  0
 20 51  1  6
 21 22  1  0
 21 52  1  0
 21 53  1  0
 22 23  1  0
 22 28  1  0
 22 54  1  1
 23 24  1  0
 23 55  1  0
 23 56  1  0
 24 25  1  1
 24 26  1  0
 24 27  1  0
 26 57  1  0
 26 58  1  0
 27 59  1  0
 27 60  1  0
 28 61  1  0
 28 62  1  0
 29 63  1  0
 29 64  1  0
M  END
>  <i_m_ct_stereo_status>  (3) 
1

>  <s_m_source_file>  (3) 
/var/tmp/pbs.5076255.sched01/tmpm7cr0ro2/0ctwvxj2z.sdf

>  <i_m_source_file_index>  (3) 
1

>  <i_lp_mmshare_version>  (3) 
48012

>  <i_f3d_flags>  (3) 
0

>  <s_epik_input>  (3) 
W0NIM11DKFtDSDNdKShbQ0gzXSlPQyg9TylOKFtDSDJdW0NASF0xMilbQ0gyXVtDQEBIXShbQ0gyXVtDSDJdMSlOKFtDSDJdMilDKD1PKVtDQEBdMzRbQ0gyXVtDQEBIXTVbQ0gyXVtDQEhdKFtDSDJdNClbQ0gyXVtDQEBdKEJyKShbQ0gyXTUpW0NIMl0z

>  <s_epik_cmdline>  (3) 
J2VwaWtfcHl0aG9uJywgJy1waHQnLCAnMi4wJywgJy1waCcsICc3LjAnLCAnLXRuJywgJzgnLCAnLW1hJywgJzIwMCcsICctaW1hZScsICc8aW5maWxlLm1hZT4nLCAnLW9tYWUnLCAnPG91dGZpbGUubWFlPic=

>  <r_lp_tautomer_probability>  (3) 
1

>  <r_epik_Ionization_Penalty>  (3) 
2.34783e-06

>  <r_epik_Ionization_Penalty_Charging>  (3) 
0

>  <r_epik_Ionization_Penalty_Neutral>  (3) 
2.34783e-06

>  <r_epik_State_Penalty>  (3) 
-0

>  <r_epik_Charging_Adjusted_Penalty>  (3) 
0

>  <i_epik_Tot_Q>  (3) 
0

>  <i_epik_Tot_abs_Q>  (3) 
0

>  <s_epik_Chemistry_Notes>  (3) 
This compound has an ester and may undergo hydrolysis at high or low pH.

>  <s_lp_Force_Field>  (3) 
OPLS3e

>  <r_lp_Energy>  (3) 
36.0236

>  <b_lp_Chiralities_Consistent>  (3) 
1

>  <s_lp_Variant>  (3) 
0:0-1

>  <s_i_glide_gridfile>  (3) 
pfpi4k_grid

>  <i_i_glide_lignum>  (3) 
1

>  <i_i_glide_rotatable_bonds>  (3) 
5

>  <r_i_docking_score>  (3) 
-1.85786

>  <r_i_glide_ligand_efficiency>  (3) 
-0.0640642

>  <r_i_glide_ligand_efficiency_sa>  (3) 
-0.196826

>  <r_i_glide_ligand_efficiency_ln>  (3) 
-0.425403

>  <r_i_glide_gscore>  (3) 
-1.85786

>  <r_i_glide_lipo>  (3) 
-0.329834

>  <r_i_glide_hbond>  (3) 
0

>  <r_i_glide_metal>  (3) 
-0

>  <r_i_glide_rewards>  (3) 
-0.322057

>  <r_i_glide_evdw>  (3) 
-32.3975

>  <r_i_glide_ecoul>  (3) 
0.338105

>  <r_i_glide_erotb>  (3) 
0.369471

>  <r_i_glide_esite>  (3) 
-0.00628198

>  <r_i_glide_emodel>  (3) 
-35.0532

>  <r_i_glide_energy>  (3) 
-32.0594

>  <r_i_glide_einternal>  (3) 
1.15911

>  <r_i_glide_intrahb_reward>  (3) 
-0

>  <i_i_glide_confnum>  (3) 
3

>  <i_i_glide_posenum>  (3) 
12

>  <r_i_glide_eff_state_penalty>  (3) 
0

>  <ligand_id>  (3) 
0

>  <original_smiles>  (3) 
CC(C)(C)OC(=O)N1CC2CCC(C1)N(C(=O)C13CC4CC(CC(Br)(C4)C1)C3)C2

>  <smiles>  (3) 
[H]C([H])([H])C(OC(=O)N1C([H])([H])C2([H])N(C(=O)C34C([H])([H])C5([H])C([H])([H])C([H])(C([H])([H])C(Br)(C5([H])[H])C3([H])[H])C4([H])[H])C([H])([H])C([H])(C1([H])[H])C([H])([H])C2([H])[H])(C([H])([H])[H])C([H])([H])[H]

$$$$
1:0:0
     RDKit          3D

 77 82  0  0  1  0  0  0  0  0999 V2000
    4.4743   -1.0765   -1.0247 C   0  0  0  0  0  0  0  0  0  0  0  0
    5.0801   -2.4704   -0.7708 C   0  0  0  0  0  0  0  0  0  0  0  0
    5.0668   -3.2521   -2.1029 C   0  0  0  0  0  0  0  0  0  0  0  0
    6.5136   -2.3074   -0.2333 C   0  0  0  0  0  0  0  0  0  0  0  0
    7.1400   -3.6481    0.1471 C   0  0  1  0  0  0  0  0  0  0  0  0
    8.4544   -3.4112    0.6017 O   0  0  0  0  0  0  0  0  0  0  0  0
    6.2838   -4.3693    1.2129 C   0  0  2  0  0  0  0  0  0  0  0  0
    6.8780   -5.7276    1.6170 C   0  0  0  0  0  0  0  0  0  0  0  0
    6.0942   -6.3490    2.7804 C   0  0  0  0  0  0  0  0  0  0  0  0
    4.5311   -6.3846    2.6743 C   0  0  2  0  0  0  0  0  0  0  0  0
    3.8628   -7.8208    2.8312 C   0  0  1  0  0  0  0  0  0  0  0  0
    4.4157   -8.7480    1.7160 C   0  0  0  0  0  0  0  0  0  0  0  0
    4.1393   -8.4520    4.2715 C   0  0  1  0  0  0  0  0  0  0  0  0
    5.0666   -7.7634    5.0852 O   0  0  0  0  0  0  0  0  0  0  0  0
    2.7780   -8.4859    4.9834 C   0  0  1  0  0  0  0  0  0  0  0  0
    2.5457   -8.0947    6.3222 O   0  0  0  0  0  0  0  0  0  0  0  0
    1.1388   -7.7841    6.4218 C   0  0  1  0  0  0  0  0  0  0  0  0
    0.9145   -6.6195    7.4535 C   0  0  0  0  0  0  0  0  0  0  0  0
    2.2399   -6.0511    7.9973 C   0  0  0  0  0  0  0  0  0  0  0  0
    0.0415   -5.4642    6.9338 C   0  0  0  0  0  0  0  0  0  0  0  0
    0.2200   -7.1514    8.5658 O   0  0  0  0  0  0  0  0  0  0  0  0
    0.6493   -7.5904    4.9518 C   0  0  0  0  0  0  0  0  0  0  0  0
    1.9809   -7.4527    4.2580 C   0  0  2  0  0  0  0  0  0  0  0  0
    2.2704   -7.7382    2.7753 C   0  0  2  0  0  0  0  0  0  0  0  0
    1.6196   -9.0861    2.3408 C   0  0  0  0  0  0  0  0  0  0  0  0
    1.7100   -6.6551    1.8088 C   0  0  1  0  0  0  0  0  0  0  0  0
    0.3168   -6.4437    1.9633 O   0  0  0  0  0  0  0  0  0  0  0  0
    2.4592   -5.3163    1.7496 C   0  0  1  0  0  0  0  0  0  0  0  0
    2.2124   -4.4809    2.8653 O   0  0  0  0  0  0  0  0  0  0  0  0
    3.9452   -5.5444    1.5192 C   0  0  2  0  0  0  0  0  0  0  0  0
    4.3551   -5.7832    0.0808 C   0  0  0  0  0  0  0  0  0  0  0  0
    4.8231   -4.5264    0.7761 C   0  0  2  0  0  0  0  0  0  0  0  0
    4.2419   -3.1906    0.3124 C   0  0  0  0  0  0  0  0  0  0  0  0
    5.0495   -0.5165   -1.7668 H   0  0  0  0  0  0  0  0  0  0  0  0
    4.4453   -0.4799   -0.1129 H   0  0  0  0  0  0  0  0  0  0  0  0
    3.4491   -1.1504   -1.3972 H   0  0  0  0  0  0  0  0  0  0  0  0
    5.4101   -4.2801   -1.9867 H   0  0  0  0  0  0  0  0  0  0  0  0
    5.7116   -2.7816   -2.8513 H   0  0  0  0  0  0  0  0  0  0  0  0
    4.0601   -3.3093   -2.5231 H   0  0  0  0  0  0  0  0  0  0  0  0
    7.1356   -1.8130   -0.9766 H   0  0  0  0  0  0  0  0  0  0  0  0
    6.4938   -1.6615    0.6492 H   0  0  0  0  0  0  0  0  0  0  0  0
    7.2294   -4.2595   -0.7316 H   0  0  0  0  0  0  0  0  0  0  0  0
    8.9307   -2.9680   -0.0904 H   0  0  0  0  0  0  0  0  0  0  0  0
    6.2744   -3.7401    2.1077 H   0  0  0  0  0  0  0  0  0  0  0  0
    6.9280   -6.4233    0.7754 H   0  0  0  0  0  0  0  0  0  0  0  0
    7.9145   -5.6003    1.9340 H   0  0  0  0  0  0  0  0  0  0  0  0
    6.5112   -7.3379    2.9660 H   0  0  0  0  0  0  0  0  0  0  0  0
    6.3435   -5.7583    3.6664 H   0  0  0  0  0  0  0  0  0  0  0  0
    4.2382   -5.8294    3.5661 H   0  0  0  0  0  0  0  0  0  0  0  0
    4.1404   -9.7926    1.8743 H   0  0  0  0  0  0  0  0  0  0  0  0
    5.5021   -8.7327    1.6571 H   0  0  0  0  0  0  0  0  0  0  0  0
    4.0335   -8.4626    0.7353 H   0  0  0  0  0  0  0  0  0  0  0  0
    4.4967   -9.4811    4.1762 H   0  0  0  0  0  0  0  0  0  0  0  0
    5.9335   -7.9039    4.7261 H   0  0  0  0  0  0  0  0  0  0  0  0
    2.3481   -9.4814    4.8835 H   0  0  0  0  0  0  0  0  0  0  0  0
    0.6599   -8.6946    6.7873 H   0  0  0  0  0  0  0  0  0  0  0  0
    2.8412   -5.6342    7.1892 H   0  0  0  0  0  0  0  0  0  0  0  0
    2.8388   -6.8183    8.4900 H   0  0  0  0  0  0  0  0  0  0  0  0
    2.0739   -5.2554    8.7244 H   0  0  0  0  0  0  0  0  0  0  0  0
    0.5117   -4.9728    6.0818 H   0  0  0  0  0  0  0  0  0  0  0  0
   -0.1122   -4.7033    7.7016 H   0  0  0  0  0  0  0  0  0  0  0  0
   -0.9427   -5.8184    6.6316 H   0  0  0  0  0  0  0  0  0  0  0  0
    0.7412   -7.8622    8.9179 H   0  0  0  0  0  0  0  0  0  0  0  0
    0.1179   -8.4890    4.6300 H   0  0  0  0  0  0  0  0  0  0  0  0
    0.0133   -6.7294    4.7449 H   0  0  0  0  0  0  0  0  0  0  0  0
    2.3798   -6.4736    4.5220 H   0  0  0  0  0  0  0  0  0  0  0  0
    0.5425   -9.0889    2.4987 H   0  0  0  0  0  0  0  0  0  0  0  0
    2.0192   -9.9577    2.8562 H   0  0  0  0  0  0  0  0  0  0  0  0
    1.7761   -9.2785    1.2805 H   0  0  0  0  0  0  0  0  0  0  0  0
    1.8021   -7.0677    0.8059 H   0  0  0  0  0  0  0  0  0  0  0  0
   -0.1028   -7.2969    1.9913 H   0  0  0  0  0  0  0  0  0  0  0  0
    2.0517   -4.7946    0.8883 H   0  0  0  0  0  0  0  0  0  0  0  0
    2.6174   -4.8599    3.6320 H   0  0  0  0  0  0  0  0  0  0  0  0
    5.0497   -6.5843   -0.1420 H   0  0  0  0  0  0  0  0  0  0  0  0
    3.5973   -5.6470   -0.6767 H   0  0  0  0  0  0  0  0  0  0  0  0
    4.1263   -2.5572    1.1914 H   0  0  0  0  0  0  0  0  0  0  0  0
    3.2467   -3.3432   -0.0956 H   0  0  0  0  0  0  0  0  0  0  0  0
  1  2  1  0
  1 34  1  0
  1 35  1  0
  1 36  1  0
  2 33  1  0
  2  3  1  0
  2  4  1  0
  3 37  1  0
  3 38  1  0
  3 39  1  0
  4  5  1  0
  4 40  1  0
  4 41  1  0
  5  6  1  0
  5  7  1  0
  5 42  1  6
  6 43  1  0
  7 32  1  0
  7  8  1  0
  7 44  1  1
  8  9  1  0
  8 45  1  0
  8 46  1  0
  9 10  1  0
  9 47  1  0
  9 48  1  0
 10 30  1  0
 10 11  1  0
 10 49  1  1
 11 24  1  0
 11 12  1  6
 11 13  1  0
 12 50  1  0
 12 51  1  0
 12 52  1  0
 13 14  1  0
 13 15  1  0
 13 53  1  6
 14 54  1  0
 15 23  1  0
 15 16  1  0
 15 55  1  1
 16 17  1  0
 17 18  1  0
 17 22  1  0
 17 56  1  1
 18 19  1  0
 18 20  1  0
 18 21  1  0
 19 57  1  0
 19 58  1  0
 19 59  1  0
 20 60  1  0
 20 61  1  0
 20 62  1  0
 21 63  1  0
 22 23  1  0
 22 64  1  0
 22 65  1  0
 23 24  1  0
 23 66  1  1
 24 25  1  6
 24 26  1  0
 25 67  1  0
 25 68  1  0
 25 69  1  0
 26 27  1  0
 26 28  1  0
 26 70  1  6
 27 71  1  0
 28 29  1  0
 28 30  1  0
 28 72  1  6
 29 73  1  0
 30 32  1  0
 30 31  1  6
 32 31  1  6
 31 74  1  0
 31 75  1  0
 32 33  1  0
 33 76  1  0
 33 77  1  0
M  END
>  <i_m_ct_stereo_status>  (4) 
1

>  <s_m_source_file>  (4) 
/var/tmp/pbs.5076255.sched01/tmpm7cr0ro2/0ctwvxj2z.sdf

>  <i_m_source_file_index>  (4) 
2

>  <i_lp_mmshare_version>  (4) 
48012

>  <i_f3d_flags>  (4) 
0

>  <s_epik_input>  (4) 
W0NIM11DKFtDSDNdKShbQ0gyXTEpW0NIMl1bQ0BASF0oW09IXSlbQ0BASF0oW0NAXTEoW0NAQF0yMzQpW0NIMl00KVtDSDJdW0NIMl1bQ0BASF0yW0NAXTUoW0NIM10pW0NAXShbQ0gzXSkoW0NAQEhdKFtPSF0pW0NASF0zW09IXSlbQ0BASF02W0NAQEhdKFtDQEBIXTVbT0hdKU9bQ0BIXShbQ0gyXTYpQyhbQ0gzXSkoW0NIM10pW09IXQ==

>  <s_epik_cmdline>  (4) 
J2VwaWtfcHl0aG9uJywgJy1waHQnLCAnMi4wJywgJy1waCcsICc3LjAnLCAnLXRuJywgJzgnLCAnLW1hJywgJzIwMCcsICctaW1hZScsICc8aW5maWxlLm1hZT4nLCAnLW9tYWUnLCAnPG91dGZpbGUubWFlPic=

>  <r_lp_tautomer_probability>  (4) 
1

>  <r_epik_Ionization_Penalty>  (4) 
2.57092e-06

>  <r_epik_Ionization_Penalty_Charging>  (4) 
0

>  <r_epik_Ionization_Penalty_Neutral>  (4) 
2.57092e-06

>  <r_epik_State_Penalty>  (4) 
-0

>  <r_epik_Charging_Adjusted_Penalty>  (4) 
0

>  <i_epik_Tot_Q>  (4) 
0

>  <i_epik_Tot_abs_Q>  (4) 
0

>  <s_lp_Force_Field>  (4) 
OPLS3e

>  <r_lp_Energy>  (4) 
79.9805

>  <b_lp_Chiralities_Consistent>  (4) 
1

>  <s_lp_Variant>  (4) 
1:0-1

>  <s_i_glide_gridfile>  (4) 
pfpi4k_grid

>  <i_i_glide_lignum>  (4) 
2

>  <i_i_glide_rotatable_bonds>  (4) 
6

>  <r_i_docking_score>  (4) 
-2.93758

>  <r_i_glide_ligand_efficiency>  (4) 
-0.0890175

>  <r_i_glide_ligand_efficiency_sa>  (4) 
-0.285527

>  <r_i_glide_ligand_efficiency_ln>  (4) 
-0.653302

>  <r_i_glide_gscore>  (4) 
-2.93758

>  <r_i_glide_lipo>  (4) 
-0.591583

>  <r_i_glide_hbond>  (4) 
0

>  <r_i_glide_metal>  (4) 
-0

>  <r_i_glide_rewards>  (4) 
-0.241127

>  <r_i_glide_evdw>  (4) 
-31.8668

>  <r_i_glide_ecoul>  (4) 
-4.03274

>  <r_i_glide_erotb>  (4) 
0.0933871

>  <r_i_glide_esite>  (4) 
0

>  <r_i_glide_emodel>  (4) 
-39.0298

>  <r_i_glide_energy>  (4) 
-35.8996

>  <r_i_glide_einternal>  (4) 
8.07251

>  <r_i_glide_intrahb_reward>  (4) 
-0

>  <i_i_glide_confnum>  (4) 
3

>  <i_i_glide_posenum>  (4) 
6

>  <r_i_glide_eff_state_penalty>  (4) 
0

>  <ligand_id>  (4) 
1

>  <original_smiles>  (4) 
CC1(C)CC(O)C2CCC3C4(C)C(O)C5OC(C(C)(C)O)CC5C4(C)C(O)C(O)C34CC24C1

>  <smiles>  (4) 
[H]OC1([H])C([H])([H])C(C([H])([H])[H])(C([H])([H])[H])C([H])([H])C23C([H])([H])C24C([H])(O[H])C([H])(O[H])C2(C([H])([H])[H])C5([H])C([H])([H])C([H])(C(O[H])(C([H])([H])[H])C([H])([H])[H])OC5([H])C([H])(O[H])C2(C([H])([H])[H])C4([H])C([H])([H])C([H])([H])C13[H]

$$$$
1:0:1
     RDKit          3D

 77 82  0  0  1  0  0  0  0  0999 V2000
    4.6724   -1.1880   -1.5410 C   0  0  0  0  0  0  0  0  0  0  0  0
    5.2935   -2.5270   -1.1004 C   0  0  0  0  0  0  0  0  0  0  0  0
    5.3380   -3.4508   -2.3384 C   0  0  0  0  0  0  0  0  0  0  0  0
    6.7077   -2.2761   -0.5440 C   0  0  0  0  0  0  0  0  0  0  0  0
    7.3439   -3.5438    0.0289 C   0  0  1  0  0  0  0  0  0  0  0  0
    8.6448   -3.2364    0.4816 O   0  0  0  0  0  0  0  0  0  0  0  0
    6.4573   -4.1603    1.1335 C   0  0  2  0  0  0  0  0  0  0  0  0
    7.0618   -5.4522    1.7074 C   0  0  0  0  0  0  0  0  0  0  0  0
    6.2490   -5.9462    2.9076 C   0  0  0  0  0  0  0  0  0  0  0  0
    4.6904   -6.0314    2.7511 C   0  0  2  0  0  0  0  0  0  0  0  0
    4.0456   -7.4475    3.0628 C   0  0  1  0  0  0  0  0  0  0  0  0
    4.6522   -8.4888    2.0863 C   0  0  0  0  0  0  0  0  0  0  0  0
    4.2838   -7.8916    4.5758 C   0  0  1  0  0  0  0  0  0  0  0  0
    5.1748   -7.0923    5.3284 O   0  0  0  0  0  0  0  0  0  0  0  0
    2.9065   -7.8594    5.2546 C   0  0  1  0  0  0  0  0  0  0  0  0
    2.6386   -7.2889    6.5237 O   0  0  0  0  0  0  0  0  0  0  0  0
    1.2134   -7.0525    6.5563 C   0  0  1  0  0  0  0  0  0  0  0  0
    0.9191   -5.7792    7.3942 C   0  0  0  0  0  0  0  0  0  0  0  0
    1.7901   -4.5814    6.9892 C   0  0  0  0  0  0  0  0  0  0  0  0
   -0.5671   -5.3908    7.4005 C   0  0  0  0  0  0  0  0  0  0  0  0
    1.2017   -6.1036    8.7376 O   0  0  0  0  0  0  0  0  0  0  0  0
    0.7710   -6.9964    5.0634 C   0  0  0  0  0  0  0  0  0  0  0  0
    2.1176   -6.9446    4.3801 C   0  0  2  0  0  0  0  0  0  0  0  0
    2.4521   -7.4077    2.9482 C   0  0  2  0  0  0  0  0  0  0  0  0
    1.8376   -8.8124    2.6538 C   0  0  0  0  0  0  0  0  0  0  0  0
    1.9065   -6.4623    1.8371 C   0  0  1  0  0  0  0  0  0  0  0  0
    0.5035   -6.2675    1.9224 O   0  0  0  0  0  0  0  0  0  0  0  0
    2.6345   -5.1240    1.6416 C   0  0  1  0  0  0  0  0  0  0  0  0
    2.3417   -4.1685    2.6425 O   0  0  0  0  0  0  0  0  0  0  0  0
    4.1357   -5.3499    1.4818 C   0  0  2  0  0  0  0  0  0  0  0  0
    4.5977   -5.7461    0.0950 C   0  0  0  0  0  0  0  0  0  0  0  0
    5.0181   -4.4070    0.6597 C   0  0  2  0  0  0  0  0  0  0  0  0
    4.4321   -3.1407    0.0276 C   0  0  0  0  0  0  0  0  0  0  0  0
    5.2669   -0.7102   -2.3233 H   0  0  0  0  0  0  0  0  0  0  0  0
    4.6016   -0.4902   -0.7053 H   0  0  0  0  0  0  0  0  0  0  0  0
    3.6636   -1.3294   -1.9351 H   0  0  0  0  0  0  0  0  0  0  0  0
    5.6876   -4.4427   -2.0712 H   0  0  0  0  0  0  0  0  0  0  0  0
    6.0098   -3.0649   -3.1128 H   0  0  0  0  0  0  0  0  0  0  0  0
    4.3487   -3.5842   -2.7809 H   0  0  0  0  0  0  0  0  0  0  0  0
    7.3509   -1.8774   -1.3257 H   0  0  0  0  0  0  0  0  0  0  0  0
    6.6478   -1.5265    0.2450 H   0  0  0  0  0  0  0  0  0  0  0  0
    7.4859   -4.2564   -0.7690 H   0  0  0  0  0  0  0  0  0  0  0  0
    8.5749   -2.6307    1.1996 H   0  0  0  0  0  0  0  0  0  0  0  0
    6.3940   -3.4417    1.9518 H   0  0  0  0  0  0  0  0  0  0  0  0
    7.1525   -6.2389    0.9563 H   0  0  0  0  0  0  0  0  0  0  0  0
    8.0822   -5.2677    2.0414 H   0  0  0  0  0  0  0  0  0  0  0  0
    6.6765   -6.8958    3.2221 H   0  0  0  0  0  0  0  0  0  0  0  0
    6.4557   -5.2546    3.7268 H   0  0  0  0  0  0  0  0  0  0  0  0
    4.3630   -5.3751    3.5532 H   0  0  0  0  0  0  0  0  0  0  0  0
    4.3902   -9.5116    2.3606 H   0  0  0  0  0  0  0  0  0  0  0  0
    5.7389   -8.4529    2.0630 H   0  0  0  0  0  0  0  0  0  0  0  0
    4.3001   -8.3276    1.0672 H   0  0  0  0  0  0  0  0  0  0  0  0
    4.6554   -8.9181    4.6179 H   0  0  0  0  0  0  0  0  0  0  0  0
    6.0513   -7.2547    5.0130 H   0  0  0  0  0  0  0  0  0  0  0  0
    2.4882   -8.8644    5.2743 H   0  0  0  0  0  0  0  0  0  0  0  0
    0.7285   -7.9177    7.0159 H   0  0  0  0  0  0  0  0  0  0  0  0
    1.5931   -4.2827    5.9612 H   0  0  0  0  0  0  0  0  0  0  0  0
    2.8536   -4.8065    7.0742 H   0  0  0  0  0  0  0  0  0  0  0  0
    1.5878   -3.7202    7.6235 H   0  0  0  0  0  0  0  0  0  0  0  0
   -0.9455   -5.1498    6.4067 H   0  0  0  0  0  0  0  0  0  0  0  0
   -0.7413   -4.5183    8.0303 H   0  0  0  0  0  0  0  0  0  0  0  0
   -1.1598   -6.2057    7.8111 H   0  0  0  0  0  0  0  0  0  0  0  0
    2.1090   -6.3707    8.7787 H   0  0  0  0  0  0  0  0  0  0  0  0
    0.2074   -7.8951    4.8078 H   0  0  0  0  0  0  0  0  0  0  0  0
    0.1717   -6.1276    4.8012 H   0  0  0  0  0  0  0  0  0  0  0  0
    2.5018   -5.9355    4.5196 H   0  0  0  0  0  0  0  0  0  0  0  0
    0.7556   -8.8170    2.7818 H   0  0  0  0  0  0  0  0  0  0  0  0
    2.2390   -9.6034    3.2846 H   0  0  0  0  0  0  0  0  0  0  0  0
    2.0277   -9.1230    1.6260 H   0  0  0  0  0  0  0  0  0  0  0  0
    2.0465   -6.9907    0.8947 H   0  0  0  0  0  0  0  0  0  0  0  0
    0.1082   -7.1280    2.0105 H   0  0  0  0  0  0  0  0  0  0  0  0
    2.2436   -4.7152    0.7118 H   0  0  0  0  0  0  0  0  0  0  0  0
    2.7224   -4.4442    3.4620 H   0  0  0  0  0  0  0  0  0  0  0  0
    5.3197   -6.5488   -0.0037 H   0  0  0  0  0  0  0  0  0  0  0  0
    3.8606   -5.7314   -0.6974 H   0  0  0  0  0  0  0  0  0  0  0  0
    4.2728   -2.4138    0.8238 H   0  0  0  0  0  0  0  0  0  0  0  0
    3.4537   -3.3610   -0.3961 H   0  0  0  0  0  0  0  0  0  0  0  0
  1  2  1  0
  1 34  1  0
  1 35  1  0
  1 36  1  0
  2 33  1  0
  2  3  1  0
  2  4  1  0
  3 37  1  0
  3 38  1  0
  3 39  1  0
  4  5  1  0
  4 40  1  0
  4 41  1  0
  5  6  1  0
  5  7  1  0
  5 42  1  6
  6 43  1  0
  7 32  1  0
  7  8  1  0
  7 44  1  1
  8  9  1  0
  8 45  1  0
  8 46  1  0
  9 10  1  0
  9 47  1  0
  9 48  1  0
 10 30  1  0
 10 11  1  0
 10 49  1  1
 11 24  1  0
 11 12  1  6
 11 13  1  0
 12 50  1  0
 12 51  1  0
 12 52  1  0
 13 14  1  0
 13 15  1  0
 13 53  1  6
 14 54  1  0
 15 23  1  0
 15 16  1  0
 15 55  1  1
 16 17  1  0
 17 18  1  0
 17 22  1  0
 17 56  1  1
 18 19  1  0
 18 20  1  0
 18 21  1  0
 19 57  1  0
 19 58  1  0
 19 59  1  0
 20 60  1  0
 20 61  1  0
 20 62  1  0
 21 63  1  0
 22 23  1  0
 22 64  1  0
 22 65  1  0
 23 24  1  0
 23 66  1  6
 24 25  1  6
 24 26  1  0
 25 67  1  0
 25 68  1  0
 25 69  1  0
 26 27  1  0
 26 28  1  0
 26 70  1  6
 27 71  1  0
 28 29  1  0
 28 30  1  0
 28 72  1  6
 29 73  1  0
 30 32  1  0
 30 31  1  6
 32 31  1  6
 31 74  1  0
 31 75  1  0
 32 33  1  0
 33 76  1  0
 33 77  1  0
M  END
>  <i_m_ct_stereo_status>  (5) 
1

>  <s_m_source_file>  (5) 
/var/tmp/pbs.5076255.sched01/tmpm7cr0ro2/0ctwvxj2z.sdf

>  <i_m_source_file_index>  (5) 
2

>  <i_lp_mmshare_version>  (5) 
48012

>  <i_f3d_flags>  (5) 
0

>  <s_epik_input>  (5) 
W0NIM11DKFtDSDNdKShbQ0gyXTEpW0NIMl1bQ0BASF0oW09IXSlbQ0BASF0oW0NAXTEoW0NAQF0yMzQpW0NIMl00KVtDSDJdW0NIMl1bQ0BASF0yW0NAXTUoW0NIM10pW0NAXShbQ0gzXSkoW0NAQEhdKFtPSF0pW0NASF0zW09IXSlbQ0BASF02W0NAQEhdKFtDQEBIXTVbT0hdKU9bQ0BIXShbQ0gyXTYpQyhbQ0gzXSkoW0NIM10pW09IXQ==

>  <s_epik_cmdline>  (5) 
J2VwaWtfcHl0aG9uJywgJy1waHQnLCAnMi4wJywgJy1waCcsICc3LjAnLCAnLXRuJywgJzgnLCAnLW1hJywgJzIwMCcsICctaW1hZScsICc8aW5maWxlLm1hZT4nLCAnLW9tYWUnLCAnPG91dGZpbGUubWFlPic=

>  <r_lp_tautomer_probability>  (5) 
1

>  <r_epik_Ionization_Penalty>  (5) 
2.57092e-06

>  <r_epik_Ionization_Penalty_Charging>  (5) 
0

>  <r_epik_Ionization_Penalty_Neutral>  (5) 
2.57092e-06

>  <r_epik_State_Penalty>  (5) 
-0

>  <r_epik_Charging_Adjusted_Penalty>  (5) 
0

>  <i_epik_Tot_Q>  (5) 
0

>  <i_epik_Tot_abs_Q>  (5) 
0

>  <s_lp_Force_Field>  (5) 
OPLS3e

>  <r_lp_Energy>  (5) 
79.9805

>  <b_lp_Chiralities_Consistent>  (5) 
1

>  <s_lp_Variant>  (5) 
1:0-1

>  <s_i_glide_gridfile>  (5) 
pfpi4k_grid

>  <i_i_glide_lignum>  (5) 
2

>  <i_i_glide_rotatable_bonds>  (5) 
6

>  <r_i_docking_score>  (5) 
-2.76747

>  <r_i_glide_ligand_efficiency>  (5) 
-0.0838629

>  <r_i_glide_ligand_efficiency_sa>  (5) 
-0.268993

>  <r_i_glide_ligand_efficiency_ln>  (5) 
-0.615472

>  <r_i_glide_gscore>  (5) 
-2.76747

>  <r_i_glide_lipo>  (5) 
-0.726916

>  <r_i_glide_hbond>  (5) 
0

>  <r_i_glide_metal>  (5) 
-0

>  <r_i_glide_rewards>  (5) 
-0.241127

>  <r_i_glide_evdw>  (5) 
-30.5056

>  <r_i_glide_ecoul>  (5) 
-2.45027

>  <r_i_glide_erotb>  (5) 
0.0933871

>  <r_i_glide_esite>  (5) 
0

>  <r_i_glide_emodel>  (5) 
-38.3174

>  <r_i_glide_energy>  (5) 
-32.9558

>  <r_i_glide_einternal>  (5) 
2.74211

>  <r_i_glide_intrahb_reward>  (5) 
-0

>  <i_i_glide_confnum>  (5) 
3

>  <i_i_glide_posenum>  (5) 
2

>  <r_i_glide_eff_state_penalty>  (5) 
0

>  <ligand_id>  (5) 
1

>  <original_smiles>  (5) 
CC1(C)CC(O)C2CCC3C4(C)C(O)C5OC(C(C)(C)O)CC5C4(C)C(O)C(O)C34CC24C1

>  <smiles>  (5) 
[H]OC1([H])C([H])([H])C(C([H])([H])[H])(C([H])([H])[H])C([H])([H])C23C([H])([H])C24C([H])(O[H])C([H])(O[H])C2(C([H])([H])[H])C5([H])C([H])([H])C([H])(C(O[H])(C([H])([H])[H])C([H])([H])[H])OC5([H])C([H])(O[H])C2(C([H])([H])[H])C4([H])C([H])([H])C([H])([H])C13[H]

$$$$
1:0:2
     RDKit          3D

 77 82  0  0  1  0  0  0  0  0999 V2000
    4.5407   -1.2865   -1.7357 C   0  0  0  0  0  0  0  0  0  0  0  0
    5.1753   -2.5890   -1.2169 C   0  0  0  0  0  0  0  0  0  0  0  0
    5.2643   -3.5699   -2.4036 C   0  0  0  0  0  0  0  0  0  0  0  0
    6.5673   -2.2791   -0.6362 C   0  0  0  0  0  0  0  0  0  0  0  0
    7.2136   -3.5082    0.0098 C   0  0  1  0  0  0  0  0  0  0  0  0
    8.4949   -3.1491    0.4824 O   0  0  0  0  0  0  0  0  0  0  0  0
    6.3163   -4.0907    1.1244 C   0  0  2  0  0  0  0  0  0  0  0  0
    6.9256   -5.3453    1.7736 C   0  0  0  0  0  0  0  0  0  0  0  0
    6.0916   -5.7974    2.9786 C   0  0  0  0  0  0  0  0  0  0  0  0
    4.5446   -5.9186    2.7880 C   0  0  2  0  0  0  0  0  0  0  0  0
    3.9164   -7.3298    3.1516 C   0  0  1  0  0  0  0  0  0  0  0  0
    4.5616   -8.4039    2.2395 C   0  0  0  0  0  0  0  0  0  0  0  0
    4.1196   -7.7027    4.6866 C   0  0  1  0  0  0  0  0  0  0  0  0
    4.9680   -6.8643    5.4401 O   0  0  0  0  0  0  0  0  0  0  0  0
    2.7247   -7.6683    5.3298 C   0  0  1  0  0  0  0  0  0  0  0  0
    2.4132   -7.0495    6.5670 O   0  0  0  0  0  0  0  0  0  0  0  0
    0.9830   -6.8219    6.5436 C   0  0  1  0  0  0  0  0  0  0  0  0
    0.6436   -5.5149    7.3166 C   0  0  0  0  0  0  0  0  0  0  0  0
    1.6056   -4.3625    6.9901 C   0  0  0  0  0  0  0  0  0  0  0  0
   -0.8170   -5.0594    7.1484 C   0  0  0  0  0  0  0  0  0  0  0  0
    0.7564   -5.8130    8.6918 O   0  0  0  0  0  0  0  0  0  0  0  0
    0.5834   -6.8542    5.0383 C   0  0  0  0  0  0  0  0  0  0  0  0
    1.9463   -6.8075    4.3939 C   0  0  2  0  0  0  0  0  0  0  0  0
    2.3259   -7.3289    2.9946 C   0  0  2  0  0  0  0  0  0  0  0  0
    1.7406   -8.7556    2.7512 C   0  0  0  0  0  0  0  0  0  0  0  0
    1.7961   -6.4445    1.8253 C   0  0  1  0  0  0  0  0  0  0  0  0
    0.3866   -6.2721    1.8663 O   0  0  0  0  0  0  0  0  0  0  0  0
    2.5096   -5.1042    1.5851 C   0  0  1  0  0  0  0  0  0  0  0  0
    2.1867   -4.1066    2.5330 O   0  0  0  0  0  0  0  0  0  0  0  0
    4.0137   -5.3118    1.4738 C   0  0  2  0  0  0  0  0  0  0  0  0
    4.5241   -5.7649    0.1166 C   0  0  0  0  0  0  0  0  0  0  0  0
    4.8997   -4.3901    0.6277 C   0  0  2  0  0  0  0  0  0  0  0  0
    4.3014   -3.1672   -0.0784 C   0  0  0  0  0  0  0  0  0  0  0  0
    5.1449   -0.8350   -2.5247 H   0  0  0  0  0  0  0  0  0  0  0  0
    4.4359   -0.5524   -0.9349 H   0  0  0  0  0  0  0  0  0  0  0  0
    3.5463   -1.4708   -2.1448 H   0  0  0  0  0  0  0  0  0  0  0  0
    5.6122   -4.5461   -2.0742 H   0  0  0  0  0  0  0  0  0  0  0  0
    5.9540   -3.2150   -3.1738 H   0  0  0  0  0  0  0  0  0  0  0  0
    4.2905   -3.7408   -2.8653 H   0  0  0  0  0  0  0  0  0  0  0  0
    7.2213   -1.8901   -1.4176 H   0  0  0  0  0  0  0  0  0  0  0  0
    6.4695   -1.4978    0.1192 H   0  0  0  0  0  0  0  0  0  0  0  0
    7.3818   -4.2548   -0.7449 H   0  0  0  0  0  0  0  0  0  0  0  0
    8.3898   -2.5353    1.1871 H   0  0  0  0  0  0  0  0  0  0  0  0
    6.2161   -3.3354    1.9047 H   0  0  0  0  0  0  0  0  0  0  0  0
    7.0493   -6.1641    1.0642 H   0  0  0  0  0  0  0  0  0  0  0  0
    7.9346   -5.1250    2.1188 H   0  0  0  0  0  0  0  0  0  0  0  0
    6.5189   -6.7230    3.3575 H   0  0  0  0  0  0  0  0  0  0  0  0
    6.2607   -5.0629    3.7666 H   0  0  0  0  0  0  0  0  0  0  0  0
    4.1822   -5.2341    3.5483 H   0  0  0  0  0  0  0  0  0  0  0  0
    4.3124   -9.4168    2.5582 H   0  0  0  0  0  0  0  0  0  0  0  0
    5.6476   -8.3462    2.2411 H   0  0  0  0  0  0  0  0  0  0  0  0
    4.2310   -8.2966    1.2070 H   0  0  0  0  0  0  0  0  0  0  0  0
    4.5106   -8.7171    4.7812 H   0  0  0  0  0  0  0  0  0  0  0  0
    5.0182   -7.2289    6.3116 H   0  0  0  0  0  0  0  0  0  0  0  0
    2.3213   -8.6793    5.3818 H   0  0  0  0  0  0  0  0  0  0  0  0
    0.4972   -7.6714    7.0274 H   0  0  0  0  0  0  0  0  0  0  0  0
    1.5481   -4.0880    5.9373 H   0  0  0  0  0  0  0  0  0  0  0  0
    2.6428   -4.6224    7.2096 H   0  0  0  0  0  0  0  0  0  0  0  0
    1.3657   -3.4767    7.5756 H   0  0  0  0  0  0  0  0  0  0  0  0
   -1.0612   -4.8007    6.1179 H   0  0  0  0  0  0  0  0  0  0  0  0
   -1.0254   -4.1792    7.7568 H   0  0  0  0  0  0  0  0  0  0  0  0
   -1.4916   -5.8487    7.4779 H   0  0  0  0  0  0  0  0  0  0  0  0
    1.6505   -6.0786    8.8545 H   0  0  0  0  0  0  0  0  0  0  0  0
    0.0511   -7.7826    4.8182 H   0  0  0  0  0  0  0  0  0  0  0  0
   -0.0187   -6.0178    4.6970 H   0  0  0  0  0  0  0  0  0  0  0  0
    2.3087   -5.7846    4.4936 H   0  0  0  0  0  0  0  0  0  0  0  0
    0.6583   -8.7704    2.8519 H   0  0  0  0  0  0  0  0  0  0  0  0
    2.1403   -9.5058    3.4287 H   0  0  0  0  0  0  0  0  0  0  0  0
    1.9638   -9.1112    1.7457 H   0  0  0  0  0  0  0  0  0  0  0  0
    1.9646   -7.0156    0.9141 H   0  0  0  0  0  0  0  0  0  0  0  0
   -0.0051   -7.1312    1.9539 H   0  0  0  0  0  0  0  0  0  0  0  0
    2.1373   -4.7492    0.6271 H   0  0  0  0  0  0  0  0  0  0  0  0
    2.5669   -4.3308    3.3681 H   0  0  0  0  0  0  0  0  0  0  0  0
    5.2593   -6.5598    0.0780 H   0  0  0  0  0  0  0  0  0  0  0  0
    3.8176   -5.7986   -0.6994 H   0  0  0  0  0  0  0  0  0  0  0  0
    4.1076   -2.4049    0.6776 H   0  0  0  0  0  0  0  0  0  0  0  0
    3.3381   -3.4274   -0.5156 H   0  0  0  0  0  0  0  0  0  0  0  0
  1  2  1  0
  1 34  1  0
  1 35  1  0
  1 36  1  0
  2 33  1  0
  2  3  1  0
  2  4  1  0
  3 37  1  0
  3 38  1  0
  3 39  1  0
  4  5  1  0
  4 40  1  0
  4 41  1  0
  5  6  1  0
  5  7  1  0
  5 42  1  6
  6 43  1  0
  7 32  1  0
  7  8  1  0
  7 44  1  1
  8  9  1  0
  8 45  1  0
  8 46  1  0
  9 10  1  0
  9 47  1  0
  9 48  1  0
 10 30  1  0
 10 11  1  0
 10 49  1  1
 11 24  1  0
 11 12  1  6
 11 13  1  0
 12 50  1  0
 12 51  1  0
 12 52  1  0
 13 14  1  0
 13 15  1  0
 13 53  1  6
 14 54  1  0
 15 23  1  0
 15 16  1  0
 15 55  1  1
 16 17  1  0
 17 18  1  0
 17 22  1  0
 17 56  1  1
 18 19  1  0
 18 20  1  0
 18 21  1  0
 19 57  1  0
 19 58  1  0
 19 59  1  0
 20 60  1  0
 20 61  1  0
 20 62  1  0
 21 63  1  0
 22 23  1  0
 22 64  1  0
 22 65  1  0
 23 24  1  0
 23 66  1  6
 24 25  1  6
 24 26  1  0
 25 67  1  0
 25 68  1  0
 25 69  1  0
 26 27  1  0
 26 28  1  0
 26 70  1  6
 27 71  1  0
 28 29  1  0
 28 30  1  0
 28 72  1  6
 29 73  1  0
 30 32  1  0
 30 31  1  6
 32 31  1  6
 31 74  1  0
 31 75  1  0
 32 33  1  0
 33 76  1  0
 33 77  1  0
M  END
>  <i_m_ct_stereo_status>  (6) 
1

>  <s_m_source_file>  (6) 
/var/tmp/pbs.5076255.sched01/tmpm7cr0ro2/0ctwvxj2z.sdf

>  <i_m_source_file_index>  (6) 
2

>  <i_lp_mmshare_version>  (6) 
48012

>  <i_f3d_flags>  (6) 
0

>  <s_epik_input>  (6) 
W0NIM11DKFtDSDNdKShbQ0gyXTEpW0NIMl1bQ0BASF0oW09IXSlbQ0BASF0oW0NAXTEoW0NAQF0yMzQpW0NIMl00KVtDSDJdW0NIMl1bQ0BASF0yW0NAXTUoW0NIM10pW0NAXShbQ0gzXSkoW0NAQEhdKFtPSF0pW0NASF0zW09IXSlbQ0BASF02W0NAQEhdKFtDQEBIXTVbT0hdKU9bQ0BIXShbQ0gyXTYpQyhbQ0gzXSkoW0NIM10pW09IXQ==

>  <s_epik_cmdline>  (6) 
J2VwaWtfcHl0aG9uJywgJy1waHQnLCAnMi4wJywgJy1waCcsICc3LjAnLCAnLXRuJywgJzgnLCAnLW1hJywgJzIwMCcsICctaW1hZScsICc8aW5maWxlLm1hZT4nLCAnLW9tYWUnLCAnPG91dGZpbGUubWFlPic=

>  <r_lp_tautomer_probability>  (6) 
1

>  <r_epik_Ionization_Penalty>  (6) 
2.57092e-06

>  <r_epik_Ionization_Penalty_Charging>  (6) 
0

>  <r_epik_Ionization_Penalty_Neutral>  (6) 
2.57092e-06

>  <r_epik_State_Penalty>  (6) 
-0

>  <r_epik_Charging_Adjusted_Penalty>  (6) 
0

>  <i_epik_Tot_Q>  (6) 
0

>  <i_epik_Tot_abs_Q>  (6) 
0

>  <s_lp_Force_Field>  (6) 
OPLS3e

>  <r_lp_Energy>  (6) 
79.9805

>  <b_lp_Chiralities_Consistent>  (6) 
1

>  <s_lp_Variant>  (6) 
1:0-1

>  <s_i_glide_gridfile>  (6) 
pfpi4k_grid

>  <i_i_glide_lignum>  (6) 
2

>  <i_i_glide_rotatable_bonds>  (6) 
6

>  <r_i_docking_score>  (6) 
-2.73187

>  <r_i_glide_ligand_efficiency>  (6) 
-0.0827841

>  <r_i_glide_ligand_efficiency_sa>  (6) 
-0.265533

>  <r_i_glide_ligand_efficiency_ln>  (6) 
-0.607555

>  <r_i_glide_gscore>  (6) 
-2.73187

>  <r_i_glide_lipo>  (6) 
-0.64479

>  <r_i_glide_hbond>  (6) 
0

>  <r_i_glide_metal>  (6) 
-0

>  <r_i_glide_rewards>  (6) 
-0.241127

>  <r_i_glide_evdw>  (6) 
-30.4396

>  <r_i_glide_ecoul>  (6) 
-2.78243

>  <r_i_glide_erotb>  (6) 
0.0933871

>  <r_i_glide_esite>  (6) 
0

>  <r_i_glide_emodel>  (6) 
-38.2592

>  <r_i_glide_energy>  (6) 
-33.222

>  <r_i_glide_einternal>  (6) 
3.193

>  <r_i_glide_intrahb_reward>  (6) 
-0

>  <i_i_glide_confnum>  (6) 
6

>  <i_i_glide_posenum>  (6) 
10

>  <r_i_glide_eff_state_penalty>  (6) 
0

>  <ligand_id>  (6) 
1

>  <original_smiles>  (6) 
CC1(C)CC(O)C2CCC3C4(C)C(O)C5OC(C(C)(C)O)CC5C4(C)C(O)C(O)C34CC24C1

>  <smiles>  (6) 
[H]OC1([H])C([H])([H])C(C([H])([H])[H])(C([H])([H])[H])C([H])([H])C23C([H])([H])C24C([H])(O[H])C([H])(O[H])C2(C([H])([H])[H])C5([H])C([H])([H])C([H])(C(O[H])(C([H])([H])[H])C([H])([H])[H])OC5([H])C([H])(O[H])C2(C([H])([H])[H])C4([H])C([H])([H])C([H])([H])C13[H]

$$$$
2:0:0
     RDKit          3D

 40 42  0  0  1  0  0  0  0  0999 V2000
    2.6996    0.5154    1.5961 C   0  0  0  0  0  0  0  0  0  0  0  0
    3.4670   -0.4445    2.4853 C   0  0  0  0  0  0  0  0  0  0  0  0
    4.1943    0.0449    3.5497 N   0  0  0  0  0  0  0  0  0  0  0  0
    4.8166   -0.8754    4.2304 N   0  0  0  0  0  0  0  0  0  0  0  0
    4.5291   -2.3863    3.6155 S   0  0  0  0  0  0  0  0  0  0  0  0
    3.5806   -1.8065    2.3087 C   0  0  0  0  0  0  0  0  0  0  0  0
    3.1463   -2.7831    1.3014 C   0  0  0  0  0  0  0  0  0  0  0  0
    2.5763   -3.8279    1.6671 O   0  0  0  0  0  0  0  0  0  0  0  0
    3.4174   -2.5237    0.0068 N   0  0  0  0  0  0  0  0  0  0  0  0
    3.0554   -3.4238   -1.1245 C   0  0  0  0  0  0  0  0  0  0  0  0
    3.8055   -2.7920   -2.3258 C   0  0  1  0  0  0  0  0  0  0  0  0
    3.0756   -3.0681   -3.6519 C   0  0  0  0  0  0  0  0  0  0  0  0
    3.7705   -1.3207   -1.9396 C   0  0  0  0  0  0  0  0  0  0  0  0
    4.2247   -1.4094   -0.5157 C   0  0  2  0  0  0  0  0  0  0  0  0
    5.7180   -1.6816   -0.4094 C   0  0  0  0  0  0  0  0  0  0  0  0
    6.1445   -3.0068   -1.0769 C   0  0  0  0  0  0  0  0  0  0  0  0
    7.6626   -2.9196   -1.4185 C   0  0  0  0  0  0  0  0  0  0  0  0
    6.0237   -4.2000   -0.0963 C   0  0  0  0  0  0  0  0  0  0  0  0
    5.3230   -3.2061   -2.4053 C   0  0  0  0  0  0  0  0  0  0  0  0
    2.1379   -0.0372    0.8382 H   0  0  0  0  0  0  0  0  0  0  0  0
    3.4052    1.1704    1.0648 H   0  0  0  0  0  0  0  0  0  0  0  0
    2.0009    1.1450    2.1394 H   0  0  0  0  0  0  0  0  0  0  0  0
    3.3395   -4.4861   -1.0071 H   0  0  0  0  0  0  0  0  0  0  0  0
    1.9617   -3.4226   -1.2653 H   0  0  0  0  0  0  0  0  0  0  0  0
    3.5010   -2.4751   -4.4608 H   0  0  0  0  0  0  0  0  0  0  0  0
    2.0183   -2.8064   -3.5637 H   0  0  0  0  0  0  0  0  0  0  0  0
    3.1386   -4.1275   -3.9201 H   0  0  0  0  0  0  0  0  0  0  0  0
    4.3800   -0.6755   -2.5556 H   0  0  0  0  0  0  0  0  0  0  0  0
    2.7475   -0.9532   -1.9727 H   0  0  0  0  0  0  0  0  0  0  0  0
    4.0944   -0.4435   -0.1012 H   0  0  0  0  0  0  0  0  0  0  0  0
    6.2124   -0.8415   -0.8820 H   0  0  0  0  0  0  0  0  0  0  0  0
    6.0539   -1.6624    0.6177 H   0  0  0  0  0  0  0  0  0  0  0  0
    8.0303   -3.8459   -1.8860 H   0  0  0  0  0  0  0  0  0  0  0  0
    8.2609   -2.7704   -0.5099 H   0  0  0  0  0  0  0  0  0  0  0  0
    7.9350   -2.1113   -2.1113 H   0  0  0  0  0  0  0  0  0  0  0  0
    6.2751   -5.1245   -0.5787 H   0  0  0  0  0  0  0  0  0  0  0  0
    5.0530   -4.4162    0.2859 H   0  0  0  0  0  0  0  0  0  0  0  0
    6.6727   -4.0576    0.7640 H   0  0  0  0  0  0  0  0  0  0  0  0
    5.4276   -4.2365   -2.7738 H   0  0  0  0  0  0  0  0  0  0  0  0
    5.7666   -2.5776   -3.1923 H   0  0  0  0  0  0  0  0  0  0  0  0
  1  2  1  0
  1 20  1  0
  1 21  1  0
  1 22  1  0
  2  6  2  0
  2  3  1  0
  3  4  2  0
  4  5  1  0
  5  6  1  0
  6  7  1  0
  7  8  2  0
  7  9  1  0
  9 14  1  0
  9 10  1  0
 10 11  1  0
 10 23  1  0
 10 24  1  0
 11 19  1  0
 11 12  1  6
 11 13  1  0
 12 25  1  0
 12 26  1  0
 12 27  1  0
 13 14  1  0
 13 28  1  0
 13 29  1  0
 14 15  1  0
 14 30  1  1
 15 16  1  0
 15 31  1  0
 15 32  1  0
 16 17  1  0
 16 18  1  0
 16 19  1  0
 17 33  1  0
 17 34  1  0
 17 35  1  0
 18 36  1  0
 18 37  1  0
 18 38  1  0
 19 39  1  0
 19 40  1  0
M  END
>  <i_m_ct_stereo_status>  (7) 
1

>  <s_m_source_file>  (7) 
/var/tmp/pbs.5076255.sched01/tmpm7cr0ro2/0ctwvxj2z.sdf

>  <i_m_source_file_index>  (7) 
3

>  <i_lp_mmshare_version>  (7) 
48012

>  <i_f3d_flags>  (7) 
0

>  <s_epik_input>  (7) 
W0NIM11jMW5uc2MxQyg9TylOKFtDSDJdW0NAQF0yM1tDSDNdKVtDQEhdKFtDSDJdMilbQ0gyXUMoW0NIM10pKFtDSDNdKVtDSDJdMw==

>  <s_epik_cmdline>  (7) 
J2VwaWtfcHl0aG9uJywgJy1waHQnLCAnMi4wJywgJy1waCcsICc3LjAnLCAnLXRuJywgJzgnLCAnLW1hJywgJzIwMCcsICctaW1hZScsICc8aW5maWxlLm1hZT4nLCAnLW9tYWUnLCAnPG91dGZpbGUubWFlPic=

>  <r_lp_tautomer_probability>  (7) 
1

>  <r_epik_Ionization_Penalty>  (7) 
5.09411e-10

>  <r_epik_Ionization_Penalty_Charging>  (7) 
0

>  <r_epik_Ionization_Penalty_Neutral>  (7) 
5.09411e-10

>  <r_epik_State_Penalty>  (7) 
-0

>  <r_epik_Charging_Adjusted_Penalty>  (7) 
0

>  <i_epik_Tot_Q>  (7) 
0

>  <i_epik_Tot_abs_Q>  (7) 
0

>  <s_lp_Force_Field>  (7) 
OPLS3e

>  <r_lp_Energy>  (7) 
32.7658

>  <b_lp_Chiralities_Consistent>  (7) 
1

>  <s_lp_Variant>  (7) 
2:0-1

>  <s_i_glide_gridfile>  (7) 
pfpi4k_grid

>  <i_i_glide_lignum>  (7) 
3

>  <i_i_glide_rotatable_bonds>  (7) 
2

>  <r_i_docking_score>  (7) 
-2.96602

>  <r_i_glide_ligand_efficiency>  (7) 
-0.156106

>  <r_i_glide_ligand_efficiency_sa>  (7) 
-0.416554

>  <r_i_glide_ligand_efficiency_ln>  (7) 
-0.751949

>  <r_i_glide_gscore>  (7) 
-2.96602

>  <r_i_glide_lipo>  (7) 
-0.650459

>  <r_i_glide_hbond>  (7) 
0

>  <r_i_glide_metal>  (7) 
-0

>  <r_i_glide_rewards>  (7) 
-1.50408

>  <r_i_glide_evdw>  (7) 
-22.3447

>  <r_i_glide_ecoul>  (7) 
-0.717393

>  <r_i_glide_erotb>  (7) 
0.462239

>  <r_i_glide_esite>  (7) 
-0.0488741

>  <r_i_glide_emodel>  (7) 
-24.6534

>  <r_i_glide_energy>  (7) 
-23.0621

>  <r_i_glide_einternal>  (7) 
1.17213

>  <r_i_glide_intrahb_reward>  (7) 
-0

>  <i_i_glide_confnum>  (7) 
6

>  <i_i_glide_posenum>  (7) 
19

>  <r_i_glide_eff_state_penalty>  (7) 
0

>  <ligand_id>  (7) 
2

>  <original_smiles>  (7) 
Cc1nnsc1C(=O)N1CC2(C)CC1CC(C)(C)C2

>  <smiles>  (7) 
[H]C([H])([H])c1nnsc1C(=O)N1C([H])([H])C2(C([H])([H])[H])C([H])([H])C1([H])C([H])([H])C(C([H])([H])[H])(C([H])([H])[H])C2([H])[H]

$$$$
2:0:1
     RDKit          3D

 40 42  0  0  1  0  0  0  0  0999 V2000
    2.6881   -3.3076   -3.9085 C   0  0  0  0  0  0  0  0  0  0  0  0
    3.3783   -2.3911   -3.0087 C   0  0  0  0  0  0  0  0  0  0  0  0
    4.0135   -1.2316   -3.5607 N   0  0  0  0  0  0  0  0  0  0  0  0
    4.4860   -0.4662   -2.6387 N   0  0  0  0  0  0  0  0  0  0  0  0
    4.2322   -1.0639   -1.1043 S   0  0  0  0  0  0  0  0  0  0  0  0
    3.5256   -2.5073   -1.6587 C   0  0  0  0  0  0  0  0  0  0  0  0
    3.0820   -3.5374   -0.6632 C   0  0  0  0  0  0  0  0  0  0  0  0
    1.9625   -3.9927   -0.7424 O   0  0  0  0  0  0  0  0  0  0  0  0
    3.9648   -3.9653    0.2697 N   0  0  0  0  0  0  0  0  0  0  0  0
    3.7550   -5.1964    1.0940 C   0  0  0  0  0  0  0  0  0  0  0  0
    4.9699   -5.2311    2.0421 C   0  0  1  0  0  0  0  0  0  0  0  0
    5.3088   -6.6528    2.5023 C   0  0  0  0  0  0  0  0  0  0  0  0
    6.0475   -4.6556    1.1250 C   0  0  0  0  0  0  0  0  0  0  0  0
    5.3068   -3.4486    0.5751 C   0  0  2  0  0  0  0  0  0  0  0  0
    5.2161   -2.3501    1.6792 C   0  0  0  0  0  0  0  0  0  0  0  0
    4.4000   -2.8073    2.9229 C   0  0  0  0  0  0  0  0  0  0  0  0
    4.7300   -1.8508    4.0979 C   0  0  0  0  0  0  0  0  0  0  0  0
    2.8511   -2.6326    2.7406 C   0  0  0  0  0  0  0  0  0  0  0  0
    4.8186   -4.2766    3.2758 C   0  0  0  0  0  0  0  0  0  0  0  0
    2.1481   -4.0550   -3.3426 H   0  0  0  0  0  0  0  0  0  0  0  0
    3.4293   -3.7965   -4.5366 H   0  0  0  0  0  0  0  0  0  0  0  0
    1.9598   -2.7541   -4.5008 H   0  0  0  0  0  0  0  0  0  0  0  0
    2.8215   -5.1386    1.6599 H   0  0  0  0  0  0  0  0  0  0  0  0
    3.7301   -6.0835    0.4472 H   0  0  0  0  0  0  0  0  0  0  0  0
    6.2554   -6.6787    3.0476 H   0  0  0  0  0  0  0  0  0  0  0  0
    5.3984   -7.3297    1.6494 H   0  0  0  0  0  0  0  0  0  0  0  0
    4.5280   -7.0409    3.1580 H   0  0  0  0  0  0  0  0  0  0  0  0
    6.9743   -4.3823    1.6347 H   0  0  0  0  0  0  0  0  0  0  0  0
    6.3105   -5.3597    0.3246 H   0  0  0  0  0  0  0  0  0  0  0  0
    5.8406   -3.1152   -0.3221 H   0  0  0  0  0  0  0  0  0  0  0  0
    6.2454   -2.0995    1.9500 H   0  0  0  0  0  0  0  0  0  0  0  0
    4.7698   -1.4251    1.3261 H   0  0  0  0  0  0  0  0  0  0  0  0
    4.2114   -2.1238    5.0141 H   0  0  0  0  0  0  0  0  0  0  0  0
    4.4795   -0.8181    3.8528 H   0  0  0  0  0  0  0  0  0  0  0  0
    5.7562   -1.8377    4.3565 H   0  0  0  0  0  0  0  0  0  0  0  0
    2.3528   -2.8786    3.6862 H   0  0  0  0  0  0  0  0  0  0  0  0
    2.4055   -3.2341    1.9690 H   0  0  0  0  0  0  0  0  0  0  0  0
    2.6367   -1.5556    2.5900 H   0  0  0  0  0  0  0  0  0  0  0  0
    4.1193   -4.6894    4.0062 H   0  0  0  0  0  0  0  0  0  0  0  0
    5.7894   -4.2565    3.7859 H   0  0  0  0  0  0  0  0  0  0  0  0
  1  2  1  0
  1 20  1  0
  1 21  1  0
  1 22  1  0
  2  6  2  0
  2  3  1  0
  3  4  2  0
  4  5  1  0
  5  6  1  0
  6  7  1  0
  7  8  2  0
  7  9  1  0
  9 14  1  0
  9 10  1  0
 10 11  1  0
 10 23  1  0
 10 24  1  0
 11 19  1  0
 11 12  1  1
 11 13  1  0
 12 25  1  0
 12 26  1  0
 12 27  1  0
 13 14  1  0
 13 28  1  0
 13 29  1  0
 14 15  1  0
 14 30  1  6
 15 16  1  0
 15 31  1  0
 15 32  1  0
 16 17  1  0
 16 18  1  0
 16 19  1  0
 17 33  1  0
 17 34  1  0
 17 35  1  0
 18 36  1  0
 18 37  1  0
 18 38  1  0
 19 39  1  0
 19 40  1  0
M  END
>  <i_m_ct_stereo_status>  (8) 
1

>  <s_m_source_file>  (8) 
/var/tmp/pbs.5076255.sched01/tmpm7cr0ro2/0ctwvxj2z.sdf

>  <i_m_source_file_index>  (8) 
3

>  <i_lp_mmshare_version>  (8) 
48012

>  <i_f3d_flags>  (8) 
0

>  <s_epik_input>  (8) 
W0NIM11jMW5uc2MxQyg9TylOKFtDSDJdW0NAQF0yM1tDSDNdKVtDQEhdKFtDSDJdMilbQ0gyXUMoW0NIM10pKFtDSDNdKVtDSDJdMw==

>  <s_epik_cmdline>  (8) 
J2VwaWtfcHl0aG9uJywgJy1waHQnLCAnMi4wJywgJy1waCcsICc3LjAnLCAnLXRuJywgJzgnLCAnLW1hJywgJzIwMCcsICctaW1hZScsICc8aW5maWxlLm1hZT4nLCAnLW9tYWUnLCAnPG91dGZpbGUubWFlPic=

>  <r_lp_tautomer_probability>  (8) 
1

>  <r_epik_Ionization_Penalty>  (8) 
5.09411e-10

>  <r_epik_Ionization_Penalty_Charging>  (8) 
0

>  <r_epik_Ionization_Penalty_Neutral>  (8) 
5.09411e-10

>  <r_epik_State_Penalty>  (8) 
-0

>  <r_epik_Charging_Adjusted_Penalty>  (8) 
0

>  <i_epik_Tot_Q>  (8) 
0

>  <i_epik_Tot_abs_Q>  (8) 
0

>  <s_lp_Force_Field>  (8) 
OPLS3e

>  <r_lp_Energy>  (8) 
32.7658

>  <b_lp_Chiralities_Consistent>  (8) 
1

>  <s_lp_Variant>  (8) 
2:0-1

>  <s_i_glide_gridfile>  (8) 
pfpi4k_grid

>  <i_i_glide_lignum>  (8) 
3

>  <i_i_glide_rotatable_bonds>  (8) 
2

>  <r_i_docking_score>  (8) 
-2.86893

>  <r_i_glide_ligand_efficiency>  (8) 
-0.150997

>  <r_i_glide_ligand_efficiency_sa>  (8) 
-0.402919

>  <r_i_glide_ligand_efficiency_ln>  (8) 
-0.727336

>  <r_i_glide_gscore>  (8) 
-2.86893

>  <r_i_glide_lipo>  (8) 
-0.444039

>  <r_i_glide_hbond>  (8) 
-0.00318911

>  <r_i_glide_metal>  (8) 
-0

>  <r_i_glide_rewards>  (8) 
-1.55853

>  <r_i_glide_evdw>  (8) 
-21.1757

>  <r_i_glide_ecoul>  (8) 
-1.77755

>  <r_i_glide_erotb>  (8) 
0.462239

>  <r_i_glide_esite>  (8) 
0

>  <r_i_glide_emodel>  (8) 
-23.9442

>  <r_i_glide_energy>  (8) 
-22.9533

>  <r_i_glide_einternal>  (8) 
3.30479

>  <r_i_glide_intrahb_reward>  (8) 
-0

>  <i_i_glide_confnum>  (8) 
6

>  <i_i_glide_posenum>  (8) 
1

>  <r_i_glide_eff_state_penalty>  (8) 
0

>  <ligand_id>  (8) 
2

>  <original_smiles>  (8) 
Cc1nnsc1C(=O)N1CC2(C)CC1CC(C)(C)C2

>  <smiles>  (8) 
[H]C([H])([H])c1nnsc1C(=O)N1C([H])([H])C2(C([H])([H])[H])C([H])([H])C1([H])C([H])([H])C(C([H])([H])[H])(C([H])([H])[H])C2([H])[H]

$$$$
2:0:2
     RDKit          3D

 40 42  0  0  1  0  0  0  0  0999 V2000
    4.2311   -4.2677    3.9052 C   0  0  0  0  0  0  0  0  0  0  0  0
    3.3095   -3.1384    3.5184 C   0  0  0  0  0  0  0  0  0  0  0  0
    1.9385   -3.2656    3.8363 N   0  0  0  0  0  0  0  0  0  0  0  0
    1.2279   -2.2417    3.4761 N   0  0  0  0  0  0  0  0  0  0  0  0
    2.1629   -1.0441    2.7595 S   0  0  0  0  0  0  0  0  0  0  0  0
    3.5982   -1.9825    2.8963 C   0  0  0  0  0  0  0  0  0  0  0  0
    4.8327   -1.4280    2.2531 C   0  0  0  0  0  0  0  0  0  0  0  0
    5.2094   -0.2949    2.5960 O   0  0  0  0  0  0  0  0  0  0  0  0
    5.4352   -2.1583    1.3277 N   0  0  0  0  0  0  0  0  0  0  0  0
    6.6545   -1.7134    0.5718 C   0  0  0  0  0  0  0  0  0  0  0  0
    6.8199   -2.8203   -0.4928 C   0  0  1  0  0  0  0  0  0  0  0  0
    8.2910   -2.9725   -0.9117 C   0  0  0  0  0  0  0  0  0  0  0  0
    6.3060   -4.0377    0.2711 C   0  0  0  0  0  0  0  0  0  0  0  0
    5.0195   -3.4967    0.8435 C   0  0  2  0  0  0  0  0  0  0  0  0
    3.9529   -3.3501   -0.2475 C   0  0  0  0  0  0  0  0  0  0  0  0
    4.3649   -2.4178   -1.4118 C   0  0  0  0  0  0  0  0  0  0  0  0
    3.5047   -2.7842   -2.6531 C   0  0  0  0  0  0  0  0  0  0  0  0
    4.0346   -0.9374   -1.1179 C   0  0  0  0  0  0  0  0  0  0  0  0
    5.8812   -2.6431   -1.7355 C   0  0  0  0  0  0  0  0  0  0  0  0
    5.2699   -3.9811    3.6665 H   0  0  0  0  0  0  0  0  0  0  0  0
    4.0150   -5.1626    3.2995 H   0  0  0  0  0  0  0  0  0  0  0  0
    4.1980   -4.5368    4.9430 H   0  0  0  0  0  0  0  0  0  0  0  0
    6.5554   -0.7169    0.1098 H   0  0  0  0  0  0  0  0  0  0  0  0
    7.5120   -1.6546    1.2642 H   0  0  0  0  0  0  0  0  0  0  0  0
    8.4315   -3.8485   -1.5422 H   0  0  0  0  0  0  0  0  0  0  0  0
    8.9319   -3.0811   -0.0342 H   0  0  0  0  0  0  0  0  0  0  0  0
    8.6360   -2.1068   -1.4770 H   0  0  0  0  0  0  0  0  0  0  0  0
    6.1634   -4.9261   -0.3371 H   0  0  0  0  0  0  0  0  0  0  0  0
    6.9816   -4.2886    1.0897 H   0  0  0  0  0  0  0  0  0  0  0  0
    4.6595   -4.2102    1.5551 H   0  0  0  0  0  0  0  0  0  0  0  0
    3.7643   -4.3524   -0.6260 H   0  0  0  0  0  0  0  0  0  0  0  0
    3.0083   -3.0257    0.1708 H   0  0  0  0  0  0  0  0  0  0  0  0
    3.7479   -2.1433   -3.5113 H   0  0  0  0  0  0  0  0  0  0  0  0
    2.4363   -2.6384   -2.4496 H   0  0  0  0  0  0  0  0  0  0  0  0
    3.6126   -3.8270   -2.9886 H   0  0  0  0  0  0  0  0  0  0  0  0
    4.2578   -0.3131   -1.9773 H   0  0  0  0  0  0  0  0  0  0  0  0
    4.5015   -0.4952   -0.2636 H   0  0  0  0  0  0  0  0  0  0  0  0
    2.9658   -0.8414   -0.9715 H   0  0  0  0  0  0  0  0  0  0  0  0
    6.2435   -1.8273   -2.3561 H   0  0  0  0  0  0  0  0  0  0  0  0
    5.9829   -3.5585   -2.3381 H   0  0  0  0  0  0  0  0  0  0  0  0
  1  2  1  0
  1 20  1  0
  1 21  1  0
  1 22  1  0
  2  6  2  0
  2  3  1  0
  3  4  2  0
  4  5  1  0
  5  6  1  0
  6  7  1  0
  7  8  2  0
  7  9  1  0
  9 14  1  0
  9 10  1  0
 10 11  1  0
 10 23  1  0
 10 24  1  0
 11 19  1  0
 11 12  1  6
 11 13  1  0
 12 25  1  0
 12 26  1  0
 12 27  1  0
 13 14  1  0
 13 28  1  0
 13 29  1  0
 14 15  1  0
 14 30  1  1
 15 16  1  0
 15 31  1  0
 15 32  1  0
 16 17  1  0
 16 18  1  0
 16 19  1  0
 17 33  1  0
 17 34  1  0
 17 35  1  0
 18 36  1  0
 18 37  1  0
 18 38  1  0
 19 39  1  0
 19 40  1  0
M  END
>  <i_m_ct_stereo_status>  (9) 
1

>  <s_m_source_file>  (9) 
/var/tmp/pbs.5076255.sched01/tmpm7cr0ro2/0ctwvxj2z.sdf

>  <i_m_source_file_index>  (9) 
3

>  <i_lp_mmshare_version>  (9) 
48012

>  <i_f3d_flags>  (9) 
0

>  <s_epik_input>  (9) 
W0NIM11jMW5uc2MxQyg9TylOKFtDSDJdW0NAQF0yM1tDSDNdKVtDQEhdKFtDSDJdMilbQ0gyXUMoW0NIM10pKFtDSDNdKVtDSDJdMw==

>  <s_epik_cmdline>  (9) 
J2VwaWtfcHl0aG9uJywgJy1waHQnLCAnMi4wJywgJy1waCcsICc3LjAnLCAnLXRuJywgJzgnLCAnLW1hJywgJzIwMCcsICctaW1hZScsICc8aW5maWxlLm1hZT4nLCAnLW9tYWUnLCAnPG91dGZpbGUubWFlPic=

>  <r_lp_tautomer_probability>  (9) 
1

>  <r_epik_Ionization_Penalty>  (9) 
5.09411e-10

>  <r_epik_Ionization_Penalty_Charging>  (9) 
0

>  <r_epik_Ionization_Penalty_Neutral>  (9) 
5.09411e-10

>  <r_epik_State_Penalty>  (9) 
-0

>  <r_epik_Charging_Adjusted_Penalty>  (9) 
0

>  <i_epik_Tot_Q>  (9) 
0

>  <i_epik_Tot_abs_Q>  (9) 
0

>  <s_lp_Force_Field>  (9) 
OPLS3e

>  <r_lp_Energy>  (9) 
32.7658

>  <b_lp_Chiralities_Consistent>  (9) 
1

>  <s_lp_Variant>  (9) 
2:0-1

>  <s_i_glide_gridfile>  (9) 
pfpi4k_grid

>  <i_i_glide_lignum>  (9) 
3

>  <i_i_glide_rotatable_bonds>  (9) 
2

>  <r_i_docking_score>  (9) 
-2.5032

>  <r_i_glide_ligand_efficiency>  (9) 
-0.131747

>  <r_i_glide_ligand_efficiency_sa>  (9) 
-0.351555

>  <r_i_glide_ligand_efficiency_ln>  (9) 
-0.634614

>  <r_i_glide_gscore>  (9) 
-2.5032

>  <r_i_glide_lipo>  (9) 
-0.198172

>  <r_i_glide_hbond>  (9) 
-0.0655245

>  <r_i_glide_metal>  (9) 
-0

>  <r_i_glide_rewards>  (9) 
-1.70574

>  <r_i_glide_evdw>  (9) 
-20.5077

>  <r_i_glide_ecoul>  (9) 
0.19587

>  <r_i_glide_erotb>  (9) 
0.462239

>  <r_i_glide_esite>  (9) 
0

>  <r_i_glide_emodel>  (9) 
-21.6757

>  <r_i_glide_energy>  (9) 
-20.3119

>  <r_i_glide_einternal>  (9) 
1.27065

>  <r_i_glide_intrahb_reward>  (9) 
-0

>  <i_i_glide_confnum>  (9) 
6

>  <i_i_glide_posenum>  (9) 
21

>  <r_i_glide_eff_state_penalty>  (9) 
0

>  <ligand_id>  (9) 
2

>  <original_smiles>  (9) 
Cc1nnsc1C(=O)N1CC2(C)CC1CC(C)(C)C2

>  <smiles>  (9) 
[H]C([H])([H])c1nnsc1C(=O)N1C([H])([H])C2(C([H])([H])[H])C([H])([H])C1([H])C([H])([H])C(C([H])([H])[H])(C([H])([H])[H])C2([H])[H]

$$$$
3:0:0
     RDKit          3D

 57 62  0  0  1  0  0  0  0  0999 V2000
    8.3832   -6.8046    5.0779 C   0  0  0  0  0  0  0  0  0  0  0  0
    7.7012   -6.3081    3.8575 N   0  0  2  0  0  0  0  0  0  0  0  0
    6.3561   -5.7186    4.1796 C   0  0  0  0  0  0  0  0  0  0  0  0
    5.1806   -6.7267    4.0615 C   0  0  0  0  0  0  0  0  0  0  0  0
    5.2953   -7.5044    2.7232 C   0  0  2  0  0  0  0  0  0  0  0  0
    5.2376   -6.5014    1.6249 C   0  0  0  0  0  0  0  0  0  0  0  0
    6.3303   -5.8731    1.0214 C   0  0  0  0  0  0  0  0  0  0  0  0
    6.0110   -4.8306    0.1254 C   0  0  0  0  0  0  0  0  0  0  0  0
    4.6438   -4.5197   -0.1164 C   0  0  0  0  0  0  0  0  0  0  0  0
    3.5849   -5.2692    0.4753 C   0  0  0  0  0  0  0  0  0  0  0  0
    2.2895   -4.9918    0.1560 O   0  0  0  0  0  0  0  0  0  0  0  0
    3.8935   -6.3259    1.3591 C   0  0  0  0  0  0  0  0  0  0  0  0
    3.1033   -7.2875    1.9632 O   0  0  0  0  0  0  0  0  0  0  0  0
    4.0817   -8.3049    2.2325 C   0  0  2  0  0  0  0  0  0  0  0  0
    3.9127   -9.6174    2.9845 C   0  0  1  0  0  0  0  0  0  0  0  0
    2.7182  -10.3223    2.4901 N   0  0  0  0  0  0  0  0  0  0  0  0
    1.5191  -10.9088    3.5941 S   0  0  0  0  0  0  0  0  0  0  0  0
    0.6729  -11.8694    2.8812 O   0  0  0  0  0  0  0  0  0  0  0  0
    2.2228  -11.3010    4.8249 O   0  0  0  0  0  0  0  0  0  0  0  0
    0.5558   -9.4342    3.9260 C   0  0  0  0  0  0  0  0  0  0  0  0
    0.9540   -8.5855    4.9814 C   0  0  0  0  0  0  0  0  0  0  0  0
    0.2040   -7.4260    5.2626 C   0  0  0  0  0  0  0  0  0  0  0  0
   -0.9403   -7.1249    4.4956 C   0  0  0  0  0  0  0  0  0  0  0  0
   -1.3343   -7.9693    3.4414 C   0  0  0  0  0  0  0  0  0  0  0  0
   -0.5877   -9.1228    3.1496 C   0  0  0  0  0  0  0  0  0  0  0  0
   -1.0022   -9.9102    2.1329 F   0  0  0  0  0  0  0  0  0  0  0  0
    5.2292  -10.4570    2.7504 C   0  0  0  0  0  0  0  0  0  0  0  0
    6.4698   -9.6669    2.1771 C   0  0  0  0  0  0  0  0  0  0  0  0
    6.5813   -8.3032    2.8823 C   0  0  1  0  0  0  0  0  0  0  0  0
    7.7352   -7.2820    2.7029 C   0  0  1  0  0  0  0  0  0  0  0  0
    7.6787   -6.5108    1.3569 C   0  0  0  0  0  0  0  0  0  0  0  0
    7.8023   -7.5991    5.5468 H   0  0  0  0  0  0  0  0  0  0  0  0
    8.4929   -5.9996    5.8058 H   0  0  0  0  0  0  0  0  0  0  0  0
    9.3795   -7.1842    4.8486 H   0  0  0  0  0  0  0  0  0  0  0  0
    6.3680   -5.2754    5.1752 H   0  0  0  0  0  0  0  0  0  0  0  0
    6.1780   -4.8759    3.5158 H   0  0  0  0  0  0  0  0  0  0  0  0
    5.1926   -7.4082    4.9159 H   0  0  0  0  0  0  0  0  0  0  0  0
    4.2365   -6.1898    4.1364 H   0  0  0  0  0  0  0  0  0  0  0  0
    6.8009   -4.2961   -0.3849 H   0  0  0  0  0  0  0  0  0  0  0  0
    4.4205   -3.7155   -0.7952 H   0  0  0  0  0  0  0  0  0  0  0  0
    2.2377   -4.4016   -0.5819 H   0  0  0  0  0  0  0  0  0  0  0  0
    4.2826   -8.6750    1.2184 H   0  0  0  0  0  0  0  0  0  0  0  0
    3.7916   -9.4088    4.0456 H   0  0  0  0  0  0  0  0  0  0  0  0
    2.9062  -10.9780    1.7285 H   0  0  0  0  0  0  0  0  0  0  0  0
    1.8190   -8.8320    5.5797 H   0  0  0  0  0  0  0  0  0  0  0  0
    0.4913   -6.7813    6.0796 H   0  0  0  0  0  0  0  0  0  0  0  0
   -1.5330   -6.2553    4.7291 H   0  0  0  0  0  0  0  0  0  0  0  0
   -2.2184   -7.7549    2.8600 H   0  0  0  0  0  0  0  0  0  0  0  0
    5.5130  -10.9104    3.7009 H   0  0  0  0  0  0  0  0  0  0  0  0
    5.0403  -11.2981    2.0836 H   0  0  0  0  0  0  0  0  0  0  0  0
    7.3782  -10.2510    2.3291 H   0  0  0  0  0  0  0  0  0  0  0  0
    6.3751   -9.5227    1.0977 H   0  0  0  0  0  0  0  0  0  0  0  0
    6.6635   -8.6483    3.9141 H   0  0  0  0  0  0  0  0  0  0  0  0
    8.6927   -7.8013    2.7390 H   0  0  0  0  0  0  0  0  0  0  0  0
    7.9216   -7.2122    0.5626 H   0  0  0  0  0  0  0  0  0  0  0  0
    8.4571   -5.7489    1.3205 H   0  0  0  0  0  0  0  0  0  0  0  0
    8.2778   -5.5246    3.5635 H   0  0  0  0  0  0  0  0  0  0  0  0
  1  2  1  0
  1 32  1  0
  1 33  1  0
  1 34  1  0
  2 30  1  0
  2  3  1  0
  2 57  1  6
  3  4  1  0
  3 35  1  0
  3 36  1  0
  5  4  1  1
  4 37  1  0
  4 38  1  0
  5 14  1  0
  5 29  1  0
  5  6  1  0
  6 12  2  0
  6  7  1  0
  7 31  1  0
  7  8  2  0
  8  9  1  0
  8 39  1  0
  9 10  2  0
  9 40  1  0
 10 11  1  0
 10 12  1  0
 11 41  1  0
 12 13  1  0
 13 14  1  0
 14 15  1  0
 14 42  1  6
 15 16  1  0
 15 27  1  0
 15 43  1  1
 16 17  1  0
 16 44  1  0
 17 18  2  0
 17 19  2  0
 17 20  1  0
 20 25  1  0
 20 21  2  0
 21 22  1  0
 21 45  1  0
 22 23  2  0
 22 46  1  0
 23 24  1  0
 23 47  1  0
 24 25  2  0
 24 48  1  0
 25 26  1  0
 27 28  1  0
 27 49  1  0
 27 50  1  0
 28 29  1  0
 28 51  1  0
 28 52  1  0
 29 30  1  0
 29 53  1  1
 30 31  1  0
 30 54  1  6
 31 55  1  0
 31 56  1  0
M  CHG  1   2   1
M  END
>  <i_m_ct_stereo_status>  (10) 
1

>  <s_m_source_file>  (10) 
/var/tmp/pbs.5076255.sched01/tmpm7cr0ro2/0ctwvxj2z.sdf

>  <i_m_source_file_index>  (10) 
4

>  <i_lp_mmshare_version>  (10) 
48012

>  <i_f3d_flags>  (10) 
0

>  <s_epik_input>  (10) 
RmMxW2NIXVtjSF1bY0hdW2NIXWMxUyg9TykoPU8pW05IXVtDQEBIXShbQ0gyXVtDSDJdW0NASF0yW0NAQEhdKFtDSDJdMylOKFtDSDNdKVtDSDJdW0NIMl00KVtDQEhdNU9jNmMoW09IXSlbY0hdW2NIXWMzYzZbQ0BAXTI0NQ==

>  <s_epik_cmdline>  (10) 
J2VwaWtfcHl0aG9uJywgJy1waHQnLCAnMi4wJywgJy1waCcsICc3LjAnLCAnLXRuJywgJzgnLCAnLW1hJywgJzIwMCcsICctaW1hZScsICc8aW5maWxlLm1hZT4nLCAnLW9tYWUnLCAnPG91dGZpbGUubWFlPic=

>  <r_lp_tautomer_probability>  (10) 
1

>  <r_epik_Ionization_Penalty>  (10) 
0.0400297

>  <r_epik_Ionization_Penalty_Charging>  (10) 
0.0237198

>  <r_epik_Ionization_Penalty_Neutral>  (10) 
0.0163098

>  <r_epik_State_Penalty>  (10) 
0.031382

>  <r_epik_Charging_Adjusted_Penalty>  (10) 
0.0551018

>  <i_epik_Tot_Q>  (10) 
1

>  <i_epik_Tot_abs_Q>  (10) 
1

>  <s_lp_Force_Field>  (10) 
OPLS3e

>  <r_lp_Energy>  (10) 
89.0084

>  <b_lp_Chiralities_Consistent>  (10) 
1

>  <s_lp_Variant>  (10) 
3:0-1

>  <s_i_glide_gridfile>  (10) 
pfpi4k_grid

>  <i_i_glide_lignum>  (10) 
4

>  <i_i_glide_rotatable_bonds>  (10) 
4

>  <r_i_docking_score>  (10) 
-2.68046

>  <r_i_glide_ligand_efficiency>  (10) 
-0.0864666

>  <r_i_glide_ligand_efficiency_sa>  (10) 
-0.271625

>  <r_i_glide_ligand_efficiency_ln>  (10) 
-0.604527

>  <r_i_glide_gscore>  (10) 
-2.68046

>  <r_i_glide_lipo>  (10) 
-0.353586

>  <r_i_glide_hbond>  (10) 
-0.11075

>  <r_i_glide_metal>  (10) 
-0

>  <r_i_glide_rewards>  (10) 
-0.664201

>  <r_i_glide_evdw>  (10) 
-29.1107

>  <r_i_glide_ecoul>  (10) 
-2.06035

>  <r_i_glide_erotb>  (10) 
0.302409

>  <r_i_glide_esite>  (10) 
-0.08975

>  <r_i_glide_emodel>  (10) 
-36.8621

>  <r_i_glide_energy>  (10) 
-31.171

>  <r_i_glide_einternal>  (10) 
2.82601

>  <r_i_glide_intrahb_reward>  (10) 
-0

>  <i_i_glide_confnum>  (10) 
1

>  <i_i_glide_posenum>  (10) 
17

>  <r_i_glide_eff_state_penalty>  (10) 
0

>  <ligand_id>  (10) 
3

>  <original_smiles>  (10) 
CN1CCC23c4c5ccc(O)c4OC2C(NS(=O)(=O)c2ccccc2F)CCC3C1C5

>  <smiles>  (10) 
[H]Oc1c([H])c([H])c2c3c1OC1([H])C([H])(N([H])S(=O)(=O)c4c([H])c([H])c([H])c([H])c4F)C([H])([H])C([H])([H])C4([H])C31C([H])([H])C([H])([H])[N+]([H])(C([H])([H])[H])C4([H])C2([H])[H]

$$$$
3:0:1
     RDKit          3D

 57 62  0  0  1  0  0  0  0  0999 V2000
    6.1005   -9.7557    1.4544 C   0  0  0  0  0  0  0  0  0  0  0  0
    4.6679   -9.8295    1.8257 N   0  0  2  0  0  0  0  0  0  0  0  0
    3.8205   -8.9543    0.9479 C   0  0  0  0  0  0  0  0  0  0  0  0
    3.6035   -7.5133    1.5007 C   0  0  0  0  0  0  0  0  0  0  0  0
    3.1961   -7.5832    2.9981 C   0  0  2  0  0  0  0  0  0  0  0  0
    1.9389   -8.3754    3.0727 C   0  0  0  0  0  0  0  0  0  0  0  0
    1.8373   -9.7537    3.2802 C   0  0  0  0  0  0  0  0  0  0  0  0
    0.5417  -10.2928    3.1504 C   0  0  0  0  0  0  0  0  0  0  0  0
   -0.5418   -9.4250    2.8422 C   0  0  0  0  0  0  0  0  0  0  0  0
   -0.3649   -8.0173    2.7269 C   0  0  0  0  0  0  0  0  0  0  0  0
   -1.4276   -7.2039    2.4847 O   0  0  0  0  0  0  0  0  0  0  0  0
    0.9218   -7.4604    2.8866 C   0  0  0  0  0  0  0  0  0  0  0  0
    1.3570   -6.1489    2.9686 O   0  0  0  0  0  0  0  0  0  0  0  0
    2.6057   -6.3272    3.6642 C   0  0  2  0  0  0  0  0  0  0  0  0
    3.6861   -5.2978    4.0016 C   0  0  1  0  0  0  0  0  0  0  0  0
    3.0969   -4.0869    4.5928 N   0  0  0  0  0  0  0  0  0  0  0  0
    4.0314   -2.6422    4.7751 S   0  0  0  0  0  0  0  0  0  0  0  0
    3.2644   -1.7279    5.6330 O   0  0  0  0  0  0  0  0  0  0  0  0
    5.3963   -3.0372    5.1537 O   0  0  0  0  0  0  0  0  0  0  0  0
    4.0683   -1.9993    3.0998 C   0  0  0  0  0  0  0  0  0  0  0  0
    5.2138   -2.2069    2.3008 C   0  0  0  0  0  0  0  0  0  0  0  0
    5.2555   -1.6995    0.9869 C   0  0  0  0  0  0  0  0  0  0  0  0
    4.1528   -0.9880    0.4767 C   0  0  0  0  0  0  0  0  0  0  0  0
    3.0107   -0.7857    1.2771 C   0  0  0  0  0  0  0  0  0  0  0  0
    2.9585   -1.2948    2.5875 C   0  0  0  0  0  0  0  0  0  0  0  0
    1.8439   -1.1018    3.3308 F   0  0  0  0  0  0  0  0  0  0  0  0
    4.6884   -6.0027    4.9962 C   0  0  0  0  0  0  0  0  0  0  0  0
    4.6052   -7.5755    5.0857 C   0  0  0  0  0  0  0  0  0  0  0  0
    4.4307   -8.1661    3.6715 C   0  0  1  0  0  0  0  0  0  0  0  0
    4.4372   -9.6798    3.3112 C   0  0  1  0  0  0  0  0  0  0  0  0
    3.1381  -10.4166    3.7264 C   0  0  0  0  0  0  0  0  0  0  0  0
    6.4845   -8.7381    1.5537 H   0  0  0  0  0  0  0  0  0  0  0  0
    6.2337  -10.0593    0.4199 H   0  0  0  0  0  0  0  0  0  0  0  0
    6.7086  -10.4257    2.0636 H   0  0  0  0  0  0  0  0  0  0  0  0
    4.2440   -8.8991   -0.0538 H   0  0  0  0  0  0  0  0  0  0  0  0
    2.8576   -9.4414    0.8065 H   0  0  0  0  0  0  0  0  0  0  0  0
    4.5149   -6.9216    1.3680 H   0  0  0  0  0  0  0  0  0  0  0  0
    2.8453   -7.0058    0.9006 H   0  0  0  0  0  0  0  0  0  0  0  0
    0.3828  -11.3518    3.2978 H   0  0  0  0  0  0  0  0  0  0  0  0
   -1.5181   -9.8592    2.7210 H   0  0  0  0  0  0  0  0  0  0  0  0
   -2.2210   -7.7133    2.3978 H   0  0  0  0  0  0  0  0  0  0  0  0
    2.2482   -6.5953    4.6675 H   0  0  0  0  0  0  0  0  0  0  0  0
    4.1992   -5.0083    3.0859 H   0  0  0  0  0  0  0  0  0  0  0  0
    2.4725   -4.2468    5.3820 H   0  0  0  0  0  0  0  0  0  0  0  0
    6.0610   -2.7469    2.6926 H   0  0  0  0  0  0  0  0  0  0  0  0
    6.1323   -1.8504    0.3757 H   0  0  0  0  0  0  0  0  0  0  0  0
    4.1730   -0.6020   -0.5313 H   0  0  0  0  0  0  0  0  0  0  0  0
    2.1620   -0.2464    0.8804 H   0  0  0  0  0  0  0  0  0  0  0  0
    5.6980   -5.7256    4.6940 H   0  0  0  0  0  0  0  0  0  0  0  0
    4.5750   -5.6054    6.0054 H   0  0  0  0  0  0  0  0  0  0  0  0
    5.5098   -7.9658    5.5544 H   0  0  0  0  0  0  0  0  0  0  0  0
    3.7760   -7.8863    5.7257 H   0  0  0  0  0  0  0  0  0  0  0  0
    5.3231   -7.7531    3.2013 H   0  0  0  0  0  0  0  0  0  0  0  0
    5.2628  -10.1658    3.8267 H   0  0  0  0  0  0  0  0  0  0  0  0
    3.1110  -10.4743    4.8140 H   0  0  0  0  0  0  0  0  0  0  0  0
    3.1545  -11.4481    3.3740 H   0  0  0  0  0  0  0  0  0  0  0  0
    4.3981  -10.7798    1.5594 H   0  0  0  0  0  0  0  0  0  0  0  0
  1  2  1  0
  1 32  1  0
  1 33  1  0
  1 34  1  0
  2 30  1  0
  2  3  1  0
  2 57  1  6
  3  4  1  0
  3 35  1  0
  3 36  1  0
  5  4  1  6
  4 37  1  0
  4 38  1  0
  5 14  1  0
  5 29  1  0
  5  6  1  0
  6 12  2  0
  6  7  1  0
  7 31  1  0
  7  8  2  0
  8  9  1  0
  8 39  1  0
  9 10  2  0
  9 40  1  0
 10 11  1  0
 10 12  1  0
 11 41  1  0
 12 13  1  0
 13 14  1  0
 14 15  1  0
 14 42  1  1
 15 16  1  0
 15 27  1  0
 15 43  1  6
 16 17  1  0
 16 44  1  0
 17 18  2  0
 17 19  2  0
 17 20  1  0
 20 25  1  0
 20 21  2  0
 21 22  1  0
 21 45  1  0
 22 23  2  0
 22 46  1  0
 23 24  1  0
 23 47  1  0
 24 25  2  0
 24 48  1  0
 25 26  1  0
 27 28  1  0
 27 49  1  0
 27 50  1  0
 28 29  1  0
 28 51  1  0
 28 52  1  0
 29 30  1  0
 29 53  1  6
 30 31  1  0
 30 54  1  1
 31 55  1  0
 31 56  1  0
M  CHG  1   2   1
M  END
>  <i_m_ct_stereo_status>  (11) 
1

>  <s_m_source_file>  (11) 
/var/tmp/pbs.5076255.sched01/tmpm7cr0ro2/0ctwvxj2z.sdf

>  <i_m_source_file_index>  (11) 
4

>  <i_lp_mmshare_version>  (11) 
48012

>  <i_f3d_flags>  (11) 
0

>  <s_epik_input>  (11) 
RmMxW2NIXVtjSF1bY0hdW2NIXWMxUyg9TykoPU8pW05IXVtDQEBIXShbQ0gyXVtDSDJdW0NASF0yW0NAQEhdKFtDSDJdMylOKFtDSDNdKVtDSDJdW0NIMl00KVtDQEhdNU9jNmMoW09IXSlbY0hdW2NIXWMzYzZbQ0BAXTI0NQ==

>  <s_epik_cmdline>  (11) 
J2VwaWtfcHl0aG9uJywgJy1waHQnLCAnMi4wJywgJy1waCcsICc3LjAnLCAnLXRuJywgJzgnLCAnLW1hJywgJzIwMCcsICctaW1hZScsICc8aW5maWxlLm1hZT4nLCAnLW9tYWUnLCAnPG91dGZpbGUubWFlPic=

>  <r_lp_tautomer_probability>  (11) 
1

>  <r_epik_Ionization_Penalty>  (11) 
0.0400297

>  <r_epik_Ionization_Penalty_Charging>  (11) 
0.0237198

>  <r_epik_Ionization_Penalty_Neutral>  (11) 
0.0163098

>  <r_epik_State_Penalty>  (11) 
0.031382

>  <r_epik_Charging_Adjusted_Penalty>  (11) 
0.0551018

>  <i_epik_Tot_Q>  (11) 
1

>  <i_epik_Tot_abs_Q>  (11) 
1

>  <s_lp_Force_Field>  (11) 
OPLS3e

>  <r_lp_Energy>  (11) 
89.0084

>  <b_lp_Chiralities_Consistent>  (11) 
1

>  <s_lp_Variant>  (11) 
3:0-1

>  <s_i_glide_gridfile>  (11) 
pfpi4k_grid

>  <i_i_glide_lignum>  (11) 
4

>  <i_i_glide_rotatable_bonds>  (11) 
4

>  <r_i_docking_score>  (11) 
-2.67097

>  <r_i_glide_ligand_efficiency>  (11) 
-0.0861603

>  <r_i_glide_ligand_efficiency_sa>  (11) 
-0.270662

>  <r_i_glide_ligand_efficiency_ln>  (11) 
-0.602385

>  <r_i_glide_gscore>  (11) 
-2.67097

>  <r_i_glide_lipo>  (11) 
-0.248593

>  <r_i_glide_hbond>  (11) 
-0.2

>  <r_i_glide_metal>  (11) 
-0

>  <r_i_glide_rewards>  (11) 
-0.3714

>  <r_i_glide_evdw>  (11) 
-25.789

>  <r_i_glide_ecoul>  (11) 
-5.17489

>  <r_i_glide_erotb>  (11) 
0.302409

>  <r_i_glide_esite>  (11) 
-0.0877027

>  <r_i_glide_emodel>  (11) 
-36.9988

>  <r_i_glide_energy>  (11) 
-30.9639

>  <r_i_glide_einternal>  (11) 
2.22268

>  <r_i_glide_intrahb_reward>  (11) 
-0

>  <i_i_glide_confnum>  (11) 
1

>  <i_i_glide_posenum>  (11) 
24

>  <r_i_glide_eff_state_penalty>  (11) 
0

>  <ligand_id>  (11) 
3

>  <original_smiles>  (11) 
CN1CCC23c4c5ccc(O)c4OC2C(NS(=O)(=O)c2ccccc2F)CCC3C1C5

>  <smiles>  (11) 
[H]Oc1c([H])c([H])c2c3c1OC1([H])C([H])(N([H])S(=O)(=O)c4c([H])c([H])c([H])c([H])c4F)C([H])([H])C([H])([H])C4([H])C31C([H])([H])C([H])([H])[N+]([H])(C([H])([H])[H])C4([H])C2([H])[H]

$$$$
3:0:2
     RDKit          3D

 57 62  0  0  1  0  0  0  0  0999 V2000
    4.0335   -0.1165    3.5353 C   0  0  0  0  0  0  0  0  0  0  0  0
    4.0931   -0.2904    2.0640 N   0  0  2  0  0  0  0  0  0  0  0  0
    2.7534   -0.6522    1.4981 C   0  0  0  0  0  0  0  0  0  0  0  0
    2.5233   -2.1822    1.3818 C   0  0  0  0  0  0  0  0  0  0  0  0
    3.7518   -2.8542    0.7133 C   0  0  2  0  0  0  0  0  0  0  0  0
    3.9182   -2.2383   -0.6316 C   0  0  0  0  0  0  0  0  0  0  0  0
    4.7310   -1.1506   -0.9460 C   0  0  0  0  0  0  0  0  0  0  0  0
    4.5927   -0.6599   -2.2609 C   0  0  0  0  0  0  0  0  0  0  0  0
    3.6915   -1.2803   -3.1533 C   0  0  0  0  0  0  0  0  0  0  0  0
    2.9784   -2.4546   -2.7869 C   0  0  0  0  0  0  0  0  0  0  0  0
    2.2043   -3.0722   -3.7177 O   0  0  0  0  0  0  0  0  0  0  0  0
    3.1038   -2.9722   -1.4723 C   0  0  0  0  0  0  0  0  0  0  0  0
    2.6306   -4.1181   -0.8522 O   0  0  0  0  0  0  0  0  0  0  0  0
    3.6102   -4.2872    0.1879 C   0  0  2  0  0  0  0  0  0  0  0  0
    3.6649   -5.3065    1.3285 C   0  0  1  0  0  0  0  0  0  0  0  0
    3.5371   -6.6730    0.8316 N   0  0  0  0  0  0  0  0  0  0  0  0
    3.4227   -8.0420    1.8860 S   0  0  0  0  0  0  0  0  0  0  0  0
    3.9580   -9.1783    1.1287 O   0  0  0  0  0  0  0  0  0  0  0  0
    3.9941   -7.6653    3.1870 O   0  0  0  0  0  0  0  0  0  0  0  0
    1.6605   -8.2832    2.1211 C   0  0  0  0  0  0  0  0  0  0  0  0
    0.7522   -7.2621    1.7712 C   0  0  0  0  0  0  0  0  0  0  0  0
   -0.6210   -7.4470    1.9973 C   0  0  0  0  0  0  0  0  0  0  0  0
   -1.0964   -8.6487    2.5543 C   0  0  0  0  0  0  0  0  0  0  0  0
   -0.1883   -9.6692    2.8994 C   0  0  0  0  0  0  0  0  0  0  0  0
    1.1932   -9.4897    2.6866 C   0  0  0  0  0  0  0  0  0  0  0  0
    2.0574  -10.4683    3.0437 F   0  0  0  0  0  0  0  0  0  0  0  0
    5.0524   -5.1353    2.0319 C   0  0  0  0  0  0  0  0  0  0  0  0
    5.8398   -3.8170    1.7176 C   0  0  0  0  0  0  0  0  0  0  0  0
    4.8560   -2.6337    1.7297 C   0  0  1  0  0  0  0  0  0  0  0  0
    5.2504   -1.1450    1.6104 C   0  0  1  0  0  0  0  0  0  0  0  0
    5.6876   -0.7530    0.1799 C   0  0  0  0  0  0  0  0  0  0  0  0
    3.7330   -1.0453    4.0270 H   0  0  0  0  0  0  0  0  0  0  0  0
    3.3010    0.6500    3.7986 H   0  0  0  0  0  0  0  0  0  0  0  0
    4.9993    0.1954    3.9400 H   0  0  0  0  0  0  0  0  0  0  0  0
    1.9543   -0.2024    2.0883 H   0  0  0  0  0  0  0  0  0  0  0  0
    2.6493   -0.1998    0.5138 H   0  0  0  0  0  0  0  0  0  0  0  0
    2.3214   -2.6114    2.3679 H   0  0  0  0  0  0  0  0  0  0  0  0
    1.6124   -2.3403    0.8098 H   0  0  0  0  0  0  0  0  0  0  0  0
    5.1536    0.2022   -2.5750 H   0  0  0  0  0  0  0  0  0  0  0  0
    3.5642   -0.8558   -4.1341 H   0  0  0  0  0  0  0  0  0  0  0  0
    2.0309   -2.5603   -4.4964 H   0  0  0  0  0  0  0  0  0  0  0  0
    4.5087   -4.5525   -0.3872 H   0  0  0  0  0  0  0  0  0  0  0  0
    2.8520   -5.1151    2.0243 H   0  0  0  0  0  0  0  0  0  0  0  0
    3.9289   -6.8831   -0.0869 H   0  0  0  0  0  0  0  0  0  0  0  0
    1.0897   -6.3381    1.3365 H   0  0  0  0  0  0  0  0  0  0  0  0
   -1.3132   -6.6700    1.7244 H   0  0  0  0  0  0  0  0  0  0  0  0
   -2.1538   -8.7924    2.7134 H   0  0  0  0  0  0  0  0  0  0  0  0
   -0.5532  -10.5876    3.3374 H   0  0  0  0  0  0  0  0  0  0  0  0
    4.8771   -5.1942    3.1059 H   0  0  0  0  0  0  0  0  0  0  0  0
    5.7088   -5.9726    1.7947 H   0  0  0  0  0  0  0  0  0  0  0  0
    6.6172   -3.6849    2.4684 H   0  0  0  0  0  0  0  0  0  0  0  0
    6.3486   -3.8854    0.7502 H   0  0  0  0  0  0  0  0  0  0  0  0
    4.4461   -2.7460    2.7342 H   0  0  0  0  0  0  0  0  0  0  0  0
    6.0945   -0.9411    2.2653 H   0  0  0  0  0  0  0  0  0  0  0  0
    6.6386   -1.2367   -0.0297 H   0  0  0  0  0  0  0  0  0  0  0  0
    5.8934    0.3096    0.1544 H   0  0  0  0  0  0  0  0  0  0  0  0
    4.2650    0.6425    1.7141 H   0  0  0  0  0  0  0  0  0  0  0  0
  1  2  1  0
  1 32  1  0
  1 33  1  0
  1 34  1  0
  2 30  1  0
  2  3  1  0
  2 57  1  6
  3  4  1  0
  3 35  1  0
  3 36  1  0
  5  4  1  1
  4 37  1  0
  4 38  1  0
  5 14  1  0
  5 29  1  0
  5  6  1  0
  6 12  2  0
  6  7  1  0
  7 31  1  0
  7  8  2  0
  8  9  1  0
  8 39  1  0
  9 10  2  0
  9 40  1  0
 10 11  1  0
 10 12  1  0
 11 41  1  0
 12 13  1  0
 13 14  1  0
 14 15  1  0
 14 42  1  6
 15 16  1  0
 15 27  1  0
 15 43  1  1
 16 17  1  0
 16 44  1  0
 17 18  2  0
 17 19  2  0
 17 20  1  0
 20 25  1  0
 20 21  2  0
 21 22  1  0
 21 45  1  0
 22 23  2  0
 22 46  1  0
 23 24  1  0
 23 47  1  0
 24 25  2  0
 24 48  1  0
 25 26  1  0
 27 28  1  0
 27 49  1  0
 27 50  1  0
 28 29  1  0
 28 51  1  0
 28 52  1  0
 29 30  1  0
 29 53  1  1
 30 31  1  0
 30 54  1  1
 31 55  1  0
 31 56  1  0
M  CHG  1   2   1
M  END
>  <i_m_ct_stereo_status>  (12) 
1

>  <s_m_source_file>  (12) 
/var/tmp/pbs.5076255.sched01/tmpm7cr0ro2/0ctwvxj2z.sdf

>  <i_m_source_file_index>  (12) 
4

>  <i_lp_mmshare_version>  (12) 
48012

>  <i_f3d_flags>  (12) 
0

>  <s_epik_input>  (12) 
RmMxW2NIXVtjSF1bY0hdW2NIXWMxUyg9TykoPU8pW05IXVtDQEBIXShbQ0gyXVtDSDJdW0NASF0yW0NAQEhdKFtDSDJdMylOKFtDSDNdKVtDSDJdW0NIMl00KVtDQEhdNU9jNmMoW09IXSlbY0hdW2NIXWMzYzZbQ0BAXTI0NQ==

>  <s_epik_cmdline>  (12) 
J2VwaWtfcHl0aG9uJywgJy1waHQnLCAnMi4wJywgJy1waCcsICc3LjAnLCAnLXRuJywgJzgnLCAnLW1hJywgJzIwMCcsICctaW1hZScsICc8aW5maWxlLm1hZT4nLCAnLW9tYWUnLCAnPG91dGZpbGUubWFlPic=

>  <r_lp_tautomer_probability>  (12) 
1

>  <r_epik_Ionization_Penalty>  (12) 
0.0400297

>  <r_epik_Ionization_Penalty_Charging>  (12) 
0.0237198

>  <r_epik_Ionization_Penalty_Neutral>  (12) 
0.0163098

>  <r_epik_State_Penalty>  (12) 
0.031382

>  <r_epik_Charging_Adjusted_Penalty>  (12) 
0.0551018

>  <i_epik_Tot_Q>  (12) 
1

>  <i_epik_Tot_abs_Q>  (12) 
1

>  <s_lp_Force_Field>  (12) 
OPLS3e

>  <r_lp_Energy>  (12) 
89.0084

>  <b_lp_Chiralities_Consistent>  (12) 
1

>  <s_lp_Variant>  (12) 
3:0-1

>  <s_i_glide_gridfile>  (12) 
pfpi4k_grid

>  <i_i_glide_lignum>  (12) 
4

>  <i_i_glide_rotatable_bonds>  (12) 
4

>  <r_i_docking_score>  (12) 
-2.37859

>  <r_i_glide_ligand_efficiency>  (12) 
-0.0767288

>  <r_i_glide_ligand_efficiency_sa>  (12) 
-0.241034

>  <r_i_glide_ligand_efficiency_ln>  (12) 
-0.536446

>  <r_i_glide_gscore>  (12) 
-2.37859

>  <r_i_glide_lipo>  (12) 
-0.42604

>  <r_i_glide_hbond>  (12) 
0

>  <r_i_glide_metal>  (12) 
-0

>  <r_i_glide_rewards>  (12) 
-0.461369

>  <r_i_glide_evdw>  (12) 
-33.8915

>  <r_i_glide_ecoul>  (12) 
-0.155704

>  <r_i_glide_erotb>  (12) 
0.302409

>  <r_i_glide_esite>  (12) 
-0.0756641

>  <r_i_glide_emodel>  (12) 
-38.1955

>  <r_i_glide_energy>  (12) 
-34.0472

>  <r_i_glide_einternal>  (12) 
3.90534

>  <r_i_glide_intrahb_reward>  (12) 
-0

>  <i_i_glide_confnum>  (12) 
1

>  <i_i_glide_posenum>  (12) 
12

>  <r_i_glide_eff_state_penalty>  (12) 
0

>  <ligand_id>  (12) 
3

>  <original_smiles>  (12) 
CN1CCC23c4c5ccc(O)c4OC2C(NS(=O)(=O)c2ccccc2F)CCC3C1C5

>  <smiles>  (12) 
[H]Oc1c([H])c([H])c2c3c1OC1([H])C([H])(N([H])S(=O)(=O)c4c([H])c([H])c([H])c([H])c4F)C([H])([H])C([H])([H])C4([H])C31C([H])([H])C([H])([H])[N+]([H])(C([H])([H])[H])C4([H])C2([H])[H]

$$$$
3:1:0
     RDKit          3D

 56 61  0  0  1  0  0  0  0  0999 V2000
    7.2748   -6.9022    3.8644 C   0  0  0  0  0  0  0  0  0  0  0  0
    6.7143   -5.8220    3.0670 N   0  0  0  0  0  0  0  0  0  0  0  0
    5.8446   -4.9302    3.8616 C   0  0  0  0  0  0  0  0  0  0  0  0
    4.3289   -5.2665    3.8224 C   0  0  0  0  0  0  0  0  0  0  0  0
    3.9190   -5.5397    2.3542 C   0  0  2  0  0  0  0  0  0  0  0  0
    4.1676   -4.2806    1.5882 C   0  0  0  0  0  0  0  0  0  0  0  0
    5.3285   -3.9585    0.8777 C   0  0  0  0  0  0  0  0  0  0  0  0
    5.3482   -2.6627    0.3156 C   0  0  0  0  0  0  0  0  0  0  0  0
    4.2332   -1.7998    0.4920 C   0  0  0  0  0  0  0  0  0  0  0  0
    3.0554   -2.2322    1.1751 C   0  0  0  0  0  0  0  0  0  0  0  0
    1.9825   -1.3941    1.2990 O   0  0  0  0  0  0  0  0  0  0  0  0
    2.9961   -3.5373    1.7160 C   0  0  0  0  0  0  0  0  0  0  0  0
    1.9669   -4.2655    2.2771 O   0  0  0  0  0  0  0  0  0  0  0  0
    2.4113   -5.6121    2.0194 C   0  0  2  0  0  0  0  0  0  0  0  0
    1.7910   -6.9448    2.4458 C   0  0  1  0  0  0  0  0  0  0  0  0
    0.3548   -6.9981    2.1000 N   0  0  0  0  0  0  0  0  0  0  0  0
   -0.7731   -7.7662    3.1583 S   0  0  0  0  0  0  0  0  0  0  0  0
   -1.0841   -6.7892    4.2226 O   0  0  0  0  0  0  0  0  0  0  0  0
   -1.8515   -8.2642    2.3011 O   0  0  0  0  0  0  0  0  0  0  0  0
    0.1290   -9.1751    3.8309 C   0  0  0  0  0  0  0  0  0  0  0  0
    0.3139  -10.3200    3.0278 C   0  0  0  0  0  0  0  0  0  0  0  0
    1.0142  -11.4359    3.5362 C   0  0  0  0  0  0  0  0  0  0  0  0
    1.5374  -11.3957    4.8464 C   0  0  0  0  0  0  0  0  0  0  0  0
    1.3557  -10.2535    5.6456 C   0  0  0  0  0  0  0  0  0  0  0  0
    0.6496   -9.1424    5.1440 C   0  0  0  0  0  0  0  0  0  0  0  0
    0.4972   -8.0678    5.9471 F   0  0  0  0  0  0  0  0  0  0  0  0
    2.5804   -8.0802    1.6790 C   0  0  0  0  0  0  0  0  0  0  0  0
    3.9599   -7.6610    1.0228 C   0  0  0  0  0  0  0  0  0  0  0  0
    4.7345   -6.7720    1.9965 C   0  0  1  0  0  0  0  0  0  0  0  0
    6.1799   -6.2836    1.7668 C   0  0  1  0  0  0  0  0  0  0  0  0
    6.3101   -5.1062    0.7549 C   0  0  0  0  0  0  0  0  0  0  0  0
    7.8066   -6.4906    4.7282 H   0  0  0  0  0  0  0  0  0  0  0  0
    8.0091   -7.4610    3.2764 H   0  0  0  0  0  0  0  0  0  0  0  0
    6.5117   -7.5970    4.2293 H   0  0  0  0  0  0  0  0  0  0  0  0
    6.1889   -4.8956    4.8928 H   0  0  0  0  0  0  0  0  0  0  0  0
    5.9597   -3.9157    3.4811 H   0  0  0  0  0  0  0  0  0  0  0  0
    4.1208   -6.1341    4.4518 H   0  0  0  0  0  0  0  0  0  0  0  0
    3.7588   -4.4392    4.2578 H   0  0  0  0  0  0  0  0  0  0  0  0
    6.1985   -2.3359   -0.2572 H   0  0  0  0  0  0  0  0  0  0  0  0
    4.2617   -0.8033    0.0954 H   0  0  0  0  0  0  0  0  0  0  0  0
    1.6049   -1.1249    0.4326 H   0  0  0  0  0  0  0  0  0  0  0  0
    2.3089   -5.6752    0.9269 H   0  0  0  0  0  0  0  0  0  0  0  0
    1.9169   -7.0457    3.5279 H   0  0  0  0  0  0  0  0  0  0  0  0
    0.1696   -7.2448    1.1210 H   0  0  0  0  0  0  0  0  0  0  0  0
   -0.0953  -10.3686    2.0390 H   0  0  0  0  0  0  0  0  0  0  0  0
    1.1430  -12.3277    2.9377 H   0  0  0  0  0  0  0  0  0  0  0  0
    2.0454  -12.2510    5.2664 H   0  0  0  0  0  0  0  0  0  0  0  0
    1.7254  -10.2476    6.6631 H   0  0  0  0  0  0  0  0  0  0  0  0
    2.7791   -8.8921    2.3802 H   0  0  0  0  0  0  0  0  0  0  0  0
    1.9526   -8.5218    0.8999 H   0  0  0  0  0  0  0  0  0  0  0  0
    4.5396   -8.5502    0.7799 H   0  0  0  0  0  0  0  0  0  0  0  0
    3.8084   -7.1108    0.0917 H   0  0  0  0  0  0  0  0  0  0  0  0
    4.7718   -7.4313    2.8596 H   0  0  0  0  0  0  0  0  0  0  0  0
    6.8065   -7.0934    1.4075 H   0  0  0  0  0  0  0  0  0  0  0  0
    6.1602   -5.5180   -0.2431 H   0  0  0  0  0  0  0  0  0  0  0  0
    7.3324   -4.7179    0.7761 H   0  0  0  0  0  0  0  0  0  0  0  0
  1  2  1  0
  1 32  1  0
  1 33  1  0
  1 34  1  0
  2 30  1  0
  2  3  1  0
  3  4  1  0
  3 35  1  0
  3 36  1  0
  5  4  1  1
  4 37  1  0
  4 38  1  0
  5 14  1  0
  5 29  1  0
  5  6  1  0
  6 12  2  0
  6  7  1  0
  7 31  1  0
  7  8  2  0
  8  9  1  0
  8 39  1  0
  9 10  2  0
  9 40  1  0
 10 11  1  0
 10 12  1  0
 11 41  1  0
 12 13  1  0
 13 14  1  0
 14 15  1  0
 14 42  1  6
 15 16  1  0
 15 27  1  0
 15 43  1  1
 16 17  1  0
 16 44  1  0
 17 18  2  0
 17 19  2  0
 17 20  1  0
 20 25  1  0
 20 21  2  0
 21 22  1  0
 21 45  1  0
 22 23  2  0
 22 46  1  0
 23 24  1  0
 23 47  1  0
 24 25  2  0
 24 48  1  0
 25 26  1  0
 27 28  1  0
 27 49  1  0
 27 50  1  0
 28 29  1  0
 28 51  1  0
 28 52  1  0
 29 30  1  0
 29 53  1  1
 30 31  1  0
 30 54  1  6
 31 55  1  0
 31 56  1  0
M  END
>  <i_m_ct_stereo_status>  (13) 
1

>  <s_m_source_file>  (13) 
/var/tmp/pbs.5076255.sched01/tmpm7cr0ro2/0ctwvxj2z.sdf

>  <i_m_source_file_index>  (13) 
5

>  <i_lp_mmshare_version>  (13) 
48012

>  <i_f3d_flags>  (13) 
0

>  <s_epik_input>  (13) 
RmMxW2NIXVtjSF1bY0hdW2NIXWMxUyg9TykoPU8pW05IXVtDQEBIXShbQ0gyXVtDSDJdW0NASF0yW0NAQEhdKFtDSDJdMylOKFtDSDNdKVtDSDJdW0NIMl00KVtDQEhdNU9jNmMoW09IXSlbY0hdW2NIXWMzYzZbQ0BAXTI0NQ==

>  <s_epik_cmdline>  (13) 
J2VwaWtfcHl0aG9uJywgJy1waHQnLCAnMi4wJywgJy1waCcsICc3LjAnLCAnLXRuJywgJzgnLCAnLW1hJywgJzIwMCcsICctaW1hZScsICc8aW5maWxlLm1hZT4nLCAnLW9tYWUnLCAnPG91dGZpbGUubWFlPic=

>  <r_lp_tautomer_probability>  (13) 
1

>  <r_epik_Ionization_Penalty>  (13) 
1.92187

>  <r_epik_Ionization_Penalty_Charging>  (13) 
0

>  <r_epik_Ionization_Penalty_Neutral>  (13) 
1.92187

>  <r_epik_State_Penalty>  (13) 
2.05321

>  <r_epik_Charging_Adjusted_Penalty>  (13) 
2.05321

>  <i_epik_Tot_Q>  (13) 
0

>  <i_epik_Tot_abs_Q>  (13) 
0

>  <s_lp_Force_Field>  (13) 
OPLS3e

>  <r_lp_Energy>  (13) 
85.2252

>  <b_lp_Chiralities_Consistent>  (13) 
1

>  <s_lp_Variant>  (13) 
3:0-2

>  <s_i_glide_gridfile>  (13) 
pfpi4k_grid

>  <i_i_glide_lignum>  (13) 
5

>  <i_i_glide_rotatable_bonds>  (13) 
4

>  <r_i_docking_score>  (13) 
-3.41388

>  <r_i_glide_ligand_efficiency>  (13) 
-0.110125

>  <r_i_glide_ligand_efficiency_sa>  (13) 
-0.345945

>  <r_i_glide_ligand_efficiency_ln>  (13) 
-0.769935

>  <r_i_glide_gscore>  (13) 
-3.41388

>  <r_i_glide_lipo>  (13) 
-0.601492

>  <r_i_glide_hbond>  (13) 
0

>  <r_i_glide_metal>  (13) 
-0

>  <r_i_glide_rewards>  (13) 
-0.378273

>  <r_i_glide_evdw>  (13) 
-25.4087

>  <r_i_glide_ecoul>  (13) 
-8.28022

>  <r_i_glide_erotb>  (13) 
0.303656

>  <r_i_glide_esite>  (13) 
-0.225305

>  <r_i_glide_emodel>  (13) 
-37.8134

>  <r_i_glide_energy>  (13) 
-33.6889

>  <r_i_glide_einternal>  (13) 
7.17005

>  <r_i_glide_intrahb_reward>  (13) 
-0

>  <i_i_glide_confnum>  (13) 
4

>  <i_i_glide_posenum>  (13) 
40

>  <r_i_glide_eff_state_penalty>  (13) 
0

>  <ligand_id>  (13) 
3

>  <original_smiles>  (13) 
CN1CCC23c4c5ccc(O)c4OC2C(NS(=O)(=O)c2ccccc2F)CCC3C1C5

>  <smiles>  (13) 
[H]Oc1c([H])c([H])c2c3c1OC1([H])C([H])(N([H])S(=O)(=O)c4c([H])c([H])c([H])c([H])c4F)C([H])([H])C([H])([H])C4([H])C([H])(N(C([H])([H])[H])C([H])([H])C([H])([H])C314)C2([H])[H]

$$$$
3:1:1
     RDKit          3D

 56 61  0  0  1  0  0  0  0  0999 V2000
    7.0903   -9.0194    2.2842 C   0  0  0  0  0  0  0  0  0  0  0  0
    5.6698   -8.9077    2.5727 N   0  0  0  0  0  0  0  0  0  0  0  0
    4.8620   -8.7791    1.3393 C   0  0  0  0  0  0  0  0  0  0  0  0
    4.5454   -7.3109    0.9232 C   0  0  0  0  0  0  0  0  0  0  0  0
    4.0669   -6.5152    2.1674 C   0  0  2  0  0  0  0  0  0  0  0  0
    2.8289   -7.1681    2.6773 C   0  0  0  0  0  0  0  0  0  0  0  0
    2.7628   -8.1605    3.6583 C   0  0  0  0  0  0  0  0  0  0  0  0
    1.4789   -8.7003    3.8945 C   0  0  0  0  0  0  0  0  0  0  0  0
    0.3749   -8.2185    3.1423 C   0  0  0  0  0  0  0  0  0  0  0  0
    0.5116   -7.1429    2.2149 C   0  0  0  0  0  0  0  0  0  0  0  0
   -0.5760   -6.6574    1.5654 O   0  0  0  0  0  0  0  0  0  0  0  0
    1.7835   -6.5721    1.9989 C   0  0  0  0  0  0  0  0  0  0  0  0
    2.1756   -5.4427    1.3067 O   0  0  0  0  0  0  0  0  0  0  0  0
    3.3976   -5.1379    1.9984 C   0  0  2  0  0  0  0  0  0  0  0  0
    4.4198   -4.0538    1.7008 C   0  0  1  0  0  0  0  0  0  0  0  0
    3.7870   -2.7489    1.4357 N   0  0  0  0  0  0  0  0  0  0  0  0
    4.5722   -1.5447    0.4704 S   0  0  0  0  0  0  0  0  0  0  0  0
    3.8145   -0.2957    0.6493 O   0  0  0  0  0  0  0  0  0  0  0  0
    6.0064   -1.5724    0.7812 O   0  0  0  0  0  0  0  0  0  0  0  0
    4.3501   -2.1530   -1.2104 C   0  0  0  0  0  0  0  0  0  0  0  0
    3.4169   -1.5226   -2.0577 C   0  0  0  0  0  0  0  0  0  0  0  0
    3.2153   -1.9991   -3.3692 C   0  0  0  0  0  0  0  0  0  0  0  0
    3.9276   -3.1285   -3.8168 C   0  0  0  0  0  0  0  0  0  0  0  0
    4.8670   -3.7499   -2.9750 C   0  0  0  0  0  0  0  0  0  0  0  0
    5.1120   -3.2448   -1.6891 C   0  0  0  0  0  0  0  0  0  0  0  0
    6.1104   -3.8031   -0.9587 F   0  0  0  0  0  0  0  0  0  0  0  0
    5.4227   -3.9874    2.9099 C   0  0  0  0  0  0  0  0  0  0  0  0
    5.3997   -5.2282    3.8831 C   0  0  0  0  0  0  0  0  0  0  0  0
    5.2991   -6.5290    3.0639 C   0  0  1  0  0  0  0  0  0  0  0  0
    5.3776   -7.9556    3.6699 C   0  0  1  0  0  0  0  0  0  0  0  0
    4.0780   -8.4157    4.3880 C   0  0  0  0  0  0  0  0  0  0  0  0
    7.2517   -9.8496    1.5965 H   0  0  0  0  0  0  0  0  0  0  0  0
    7.6452   -9.2432    3.1971 H   0  0  0  0  0  0  0  0  0  0  0  0
    7.5011   -8.1130    1.8373 H   0  0  0  0  0  0  0  0  0  0  0  0
    5.3399   -9.3118    0.5183 H   0  0  0  0  0  0  0  0  0  0  0  0
    3.9223   -9.3123    1.4994 H   0  0  0  0  0  0  0  0  0  0  0  0
    5.4231   -6.8462    0.4762 H   0  0  0  0  0  0  0  0  0  0  0  0
    3.8132   -7.3116    0.1215 H   0  0  0  0  0  0  0  0  0  0  0  0
    1.3436   -9.4716    4.6484 H   0  0  0  0  0  0  0  0  0  0  0  0
   -0.5900   -8.6667    3.3128 H   0  0  0  0  0  0  0  0  0  0  0  0
   -1.2368   -7.3251    1.5056 H   0  0  0  0  0  0  0  0  0  0  0  0
    3.0093   -4.7914    2.9640 H   0  0  0  0  0  0  0  0  0  0  0  0
    4.9468   -4.4041    0.8155 H   0  0  0  0  0  0  0  0  0  0  0  0
    3.2957   -2.3371    2.2267 H   0  0  0  0  0  0  0  0  0  0  0  0
    2.8389   -0.6742   -1.7110 H   0  0  0  0  0  0  0  0  0  0  0  0
    2.5015   -1.5134   -4.0255 H   0  0  0  0  0  0  0  0  0  0  0  0
    3.7597   -3.5259   -4.8020 H   0  0  0  0  0  0  0  0  0  0  0  0
    5.4105   -4.6171   -3.3077 H   0  0  0  0  0  0  0  0  0  0  0  0
    6.4226   -3.9109    2.4788 H   0  0  0  0  0  0  0  0  0  0  0  0
    5.2836   -3.0811    3.5015 H   0  0  0  0  0  0  0  0  0  0  0  0
    6.3025   -5.2444    4.4974 H   0  0  0  0  0  0  0  0  0  0  0  0
    4.5521   -5.1597    4.5680 H   0  0  0  0  0  0  0  0  0  0  0  0
    6.1886   -6.4234    2.4412 H   0  0  0  0  0  0  0  0  0  0  0  0
    6.1964   -8.0099    4.3893 H   0  0  0  0  0  0  0  0  0  0  0  0
    4.0260   -7.8983    5.3418 H   0  0  0  0  0  0  0  0  0  0  0  0
    4.1476   -9.4751    4.6301 H   0  0  0  0  0  0  0  0  0  0  0  0
  1  2  1  0
  1 32  1  0
  1 33  1  0
  1 34  1  0
  2 30  1  0
  2  3  1  0
  3  4  1  0
  3 35  1  0
  3 36  1  0
  5  4  1  6
  4 37  1  0
  4 38  1  0
  5 14  1  0
  5 29  1  0
  5  6  1  0
  6 12  2  0
  6  7  1  0
  7 31  1  0
  7  8  2  0
  8  9  1  0
  8 39  1  0
  9 10  2  0
  9 40  1  0
 10 11  1  0
 10 12  1  0
 11 41  1  0
 12 13  1  0
 13 14  1  0
 14 15  1  0
 14 42  1  1
 15 16  1  0
 15 27  1  0
 15 43  1  6
 16 17  1  0
 16 44  1  0
 17 18  2  0
 17 19  2  0
 17 20  1  0
 20 25  1  0
 20 21  2  0
 21 22  1  0
 21 45  1  0
 22 23  2  0
 22 46  1  0
 23 24  1  0
 23 47  1  0
 24 25  2  0
 24 48  1  0
 25 26  1  0
 27 28  1  0
 27 49  1  0
 27 50  1  0
 28 29  1  0
 28 51  1  0
 28 52  1  0
 29 30  1  0
 29 53  1  6
 30 31  1  0
 30 54  1  1
 31 55  1  0
 31 56  1  0
M  END
>  <i_m_ct_stereo_status>  (14) 
1

>  <s_m_source_file>  (14) 
/var/tmp/pbs.5076255.sched01/tmpm7cr0ro2/0ctwvxj2z.sdf

>  <i_m_source_file_index>  (14) 
5

>  <i_lp_mmshare_version>  (14) 
48012

>  <i_f3d_flags>  (14) 
0

>  <s_epik_input>  (14) 
RmMxW2NIXVtjSF1bY0hdW2NIXWMxUyg9TykoPU8pW05IXVtDQEBIXShbQ0gyXVtDSDJdW0NASF0yW0NAQEhdKFtDSDJdMylOKFtDSDNdKVtDSDJdW0NIMl00KVtDQEhdNU9jNmMoW09IXSlbY0hdW2NIXWMzYzZbQ0BAXTI0NQ==

>  <s_epik_cmdline>  (14) 
J2VwaWtfcHl0aG9uJywgJy1waHQnLCAnMi4wJywgJy1waCcsICc3LjAnLCAnLXRuJywgJzgnLCAnLW1hJywgJzIwMCcsICctaW1hZScsICc8aW5maWxlLm1hZT4nLCAnLW9tYWUnLCAnPG91dGZpbGUubWFlPic=

>  <r_lp_tautomer_probability>  (14) 
1

>  <r_epik_Ionization_Penalty>  (14) 
1.92187

>  <r_epik_Ionization_Penalty_Charging>  (14) 
0

>  <r_epik_Ionization_Penalty_Neutral>  (14) 
1.92187

>  <r_epik_State_Penalty>  (14) 
2.05321

>  <r_epik_Charging_Adjusted_Penalty>  (14) 
2.05321

>  <i_epik_Tot_Q>  (14) 
0

>  <i_epik_Tot_abs_Q>  (14) 
0

>  <s_lp_Force_Field>  (14) 
OPLS3e

>  <r_lp_Energy>  (14) 
85.2252

>  <b_lp_Chiralities_Consistent>  (14) 
1

>  <s_lp_Variant>  (14) 
3:0-2

>  <s_i_glide_gridfile>  (14) 
pfpi4k_grid

>  <i_i_glide_lignum>  (14) 
5

>  <i_i_glide_rotatable_bonds>  (14) 
4

>  <r_i_docking_score>  (14) 
-2.81474

>  <r_i_glide_ligand_efficiency>  (14) 
-0.090798

>  <r_i_glide_ligand_efficiency_sa>  (14) 
-0.285231

>  <r_i_glide_ligand_efficiency_ln>  (14) 
-0.63481

>  <r_i_glide_gscore>  (14) 
-2.81474

>  <r_i_glide_lipo>  (14) 
-0.645549

>  <r_i_glide_hbond>  (14) 
0

>  <r_i_glide_metal>  (14) 
-0

>  <r_i_glide_rewards>  (14) 
-0.467709

>  <r_i_glide_evdw>  (14) 
-29.9595

>  <r_i_glide_ecoul>  (14) 
-3.34633

>  <r_i_glide_erotb>  (14) 
0.303656

>  <r_i_glide_esite>  (14) 
-0.00521483

>  <r_i_glide_emodel>  (14) 
-38.5251

>  <r_i_glide_energy>  (14) 
-33.3058

>  <r_i_glide_einternal>  (14) 
2.43504

>  <r_i_glide_intrahb_reward>  (14) 
-0

>  <i_i_glide_confnum>  (14) 
5

>  <i_i_glide_posenum>  (14) 
25

>  <r_i_glide_eff_state_penalty>  (14) 
0

>  <ligand_id>  (14) 
3

>  <original_smiles>  (14) 
CN1CCC23c4c5ccc(O)c4OC2C(NS(=O)(=O)c2ccccc2F)CCC3C1C5

>  <smiles>  (14) 
[H]Oc1c([H])c([H])c2c3c1OC1([H])C([H])(N([H])S(=O)(=O)c4c([H])c([H])c([H])c([H])c4F)C([H])([H])C([H])([H])C4([H])C([H])(N(C([H])([H])[H])C([H])([H])C([H])([H])C314)C2([H])[H]

$$$$
3:1:2
     RDKit          3D

 56 61  0  0  1  0  0  0  0  0999 V2000
    5.2415   -0.5255    3.7265 C   0  0  0  0  0  0  0  0  0  0  0  0
    4.9950   -0.6077    2.2948 N   0  0  0  0  0  0  0  0  0  0  0  0
    3.5852   -0.9343    1.9851 C   0  0  0  0  0  0  0  0  0  0  0  0
    3.2874   -2.4476    1.7699 C   0  0  0  0  0  0  0  0  0  0  0  0
    4.3790   -3.0538    0.8503 C   0  0  2  0  0  0  0  0  0  0  0  0
    4.2927   -2.3548   -0.4607 C   0  0  0  0  0  0  0  0  0  0  0  0
    5.0313   -1.2357   -0.8373 C   0  0  0  0  0  0  0  0  0  0  0  0
    4.6847   -0.6933   -2.0936 C   0  0  0  0  0  0  0  0  0  0  0  0
    3.6640   -1.2857   -2.8764 C   0  0  0  0  0  0  0  0  0  0  0  0
    3.0197   -2.4776   -2.4568 C   0  0  0  0  0  0  0  0  0  0  0  0
    2.1044   -3.0625   -3.2684 O   0  0  0  0  0  0  0  0  0  0  0  0
    3.3592   -3.0600   -1.1995 C   0  0  0  0  0  0  0  0  0  0  0  0
    3.0195   -4.2488   -0.6017 O   0  0  0  0  0  0  0  0  0  0  0  0
    4.1632   -4.4544    0.2541 C   0  0  2  0  0  0  0  0  0  0  0  0
    4.4592   -5.5507    1.2893 C   0  0  1  0  0  0  0  0  0  0  0  0
    4.2341   -6.8946    0.7411 N   0  0  0  0  0  0  0  0  0  0  0  0
    4.2879   -8.3071    1.7315 S   0  0  0  0  0  0  0  0  0  0  0  0
    4.7898   -9.3846    0.8747 O   0  0  0  0  0  0  0  0  0  0  0  0
    5.0107   -7.9738    2.9693 O   0  0  0  0  0  0  0  0  0  0  0  0
    2.5671   -8.6433    2.1640 C   0  0  0  0  0  0  0  0  0  0  0  0
    2.2139   -9.9778    2.4761 C   0  0  0  0  0  0  0  0  0  0  0  0
    0.8808  -10.2889    2.8488 C   0  0  0  0  0  0  0  0  0  0  0  0
   -0.0924   -9.2659    2.9097 C   0  0  0  0  0  0  0  0  0  0  0  0
    0.2703   -7.9409    2.6020 C   0  0  0  0  0  0  0  0  0  0  0  0
    1.5864   -7.6190    2.2185 C   0  0  0  0  0  0  0  0  0  0  0  0
    1.8454   -6.3272    1.9350 F   0  0  0  0  0  0  0  0  0  0  0  0
    5.9555   -5.4076    1.7308 C   0  0  0  0  0  0  0  0  0  0  0  0
    6.6408   -4.0427    1.3816 C   0  0  0  0  0  0  0  0  0  0  0  0
    5.6556   -2.8928    1.6685 C   0  0  1  0  0  0  0  0  0  0  0  0
    6.0303   -1.3934    1.5820 C   0  0  1  0  0  0  0  0  0  0  0  0
    6.1463   -0.8621    0.1319 C   0  0  0  0  0  0  0  0  0  0  0  0
    4.5571    0.1929    4.1815 H   0  0  0  0  0  0  0  0  0  0  0  0
    6.2545   -0.1622    3.9121 H   0  0  0  0  0  0  0  0  0  0  0  0
    5.1155   -1.4877    4.2271 H   0  0  0  0  0  0  0  0  0  0  0  0
    2.9331   -0.5290    2.7560 H   0  0  0  0  0  0  0  0  0  0  0  0
    3.3113   -0.3963    1.0751 H   0  0  0  0  0  0  0  0  0  0  0  0
    3.2563   -2.9628    2.7306 H   0  0  0  0  0  0  0  0  0  0  0  0
    2.2876   -2.5621    1.3461 H   0  0  0  0  0  0  0  0  0  0  0  0
    5.2089    0.1681   -2.4614 H   0  0  0  0  0  0  0  0  0  0  0  0
    3.3945   -0.8304   -3.8107 H   0  0  0  0  0  0  0  0  0  0  0  0
    1.8383   -2.5304   -3.9992 H   0  0  0  0  0  0  0  0  0  0  0  0
    4.9458   -4.6628   -0.4941 H   0  0  0  0  0  0  0  0  0  0  0  0
    3.8422   -5.3973    2.1734 H   0  0  0  0  0  0  0  0  0  0  0  0
    4.4421   -7.0545   -0.2443 H   0  0  0  0  0  0  0  0  0  0  0  0
    2.9494  -10.7674    2.4222 H   0  0  0  0  0  0  0  0  0  0  0  0
    0.5976  -11.3120    3.0665 H   0  0  0  0  0  0  0  0  0  0  0  0
   -1.1134   -9.4947    3.1764 H   0  0  0  0  0  0  0  0  0  0  0  0
   -0.4501   -7.1462    2.6540 H   0  0  0  0  0  0  0  0  0  0  0  0
    5.9687   -5.5273    2.8163 H   0  0  0  0  0  0  0  0  0  0  0  0
    6.5725   -6.2194    1.3277 H   0  0  0  0  0  0  0  0  0  0  0  0
    7.5368   -3.9468    1.9857 H   0  0  0  0  0  0  0  0  0  0  0  0
    6.9497   -4.0280    0.3348 H   0  0  0  0  0  0  0  0  0  0  0  0
    5.4231   -3.0860    2.7166 H   0  0  0  0  0  0  0  0  0  0  0  0
    6.9856   -1.2155    2.0685 H   0  0  0  0  0  0  0  0  0  0  0  0
    7.0705   -1.2551   -0.2817 H   0  0  0  0  0  0  0  0  0  0  0  0
    6.2420    0.2204    0.1675 H   0  0  0  0  0  0  0  0  0  0  0  0
  1  2  1  0
  1 32  1  0
  1 33  1  0
  1 34  1  0
  2 30  1  0
  2  3  1  0
  3  4  1  0
  3 35  1  0
  3 36  1  0
  5  4  1  1
  4 37  1  0
  4 38  1  0
  5 14  1  0
  5 29  1  0
  5  6  1  0
  6 12  2  0
  6  7  1  0
  7 31  1  0
  7  8  2  0
  8  9  1  0
  8 39  1  0
  9 10  2  0
  9 40  1  0
 10 11  1  0
 10 12  1  0
 11 41  1  0
 12 13  1  0
 13 14  1  0
 14 15  1  0
 14 42  1  6
 15 16  1  0
 15 27  1  0
 15 43  1  1
 16 17  1  0
 16 44  1  0
 17 18  2  0
 17 19  2  0
 17 20  1  0
 20 25  1  0
 20 21  2  0
 21 22  1  0
 21 45  1  0
 22 23  2  0
 22 46  1  0
 23 24  1  0
 23 47  1  0
 24 25  2  0
 24 48  1  0
 25 26  1  0
 27 28  1  0
 27 49  1  0
 27 50  1  0
 28 29  1  0
 28 51  1  0
 28 52  1  0
 29 30  1  0
 29 53  1  1
 30 31  1  0
 30 54  1  1
 31 55  1  0
 31 56  1  0
M  END
>  <i_m_ct_stereo_status>  (15) 
1

>  <s_m_source_file>  (15) 
/var/tmp/pbs.5076255.sched01/tmpm7cr0ro2/0ctwvxj2z.sdf

>  <i_m_source_file_index>  (15) 
5

>  <i_lp_mmshare_version>  (15) 
48012

>  <i_f3d_flags>  (15) 
0

>  <s_epik_input>  (15) 
RmMxW2NIXVtjSF1bY0hdW2NIXWMxUyg9TykoPU8pW05IXVtDQEBIXShbQ0gyXVtDSDJdW0NASF0yW0NAQEhdKFtDSDJdMylOKFtDSDNdKVtDSDJdW0NIMl00KVtDQEhdNU9jNmMoW09IXSlbY0hdW2NIXWMzYzZbQ0BAXTI0NQ==

>  <s_epik_cmdline>  (15) 
J2VwaWtfcHl0aG9uJywgJy1waHQnLCAnMi4wJywgJy1waCcsICc3LjAnLCAnLXRuJywgJzgnLCAnLW1hJywgJzIwMCcsICctaW1hZScsICc8aW5maWxlLm1hZT4nLCAnLW9tYWUnLCAnPG91dGZpbGUubWFlPic=

>  <r_lp_tautomer_probability>  (15) 
1

>  <r_epik_Ionization_Penalty>  (15) 
1.92187

>  <r_epik_Ionization_Penalty_Charging>  (15) 
0

>  <r_epik_Ionization_Penalty_Neutral>  (15) 
1.92187

>  <r_epik_State_Penalty>  (15) 
2.05321

>  <r_epik_Charging_Adjusted_Penalty>  (15) 
2.05321

>  <i_epik_Tot_Q>  (15) 
0

>  <i_epik_Tot_abs_Q>  (15) 
0

>  <s_lp_Force_Field>  (15) 
OPLS3e

>  <r_lp_Energy>  (15) 
85.2252

>  <b_lp_Chiralities_Consistent>  (15) 
1

>  <s_lp_Variant>  (15) 
3:0-2

>  <s_i_glide_gridfile>  (15) 
pfpi4k_grid

>  <i_i_glide_lignum>  (15) 
5

>  <i_i_glide_rotatable_bonds>  (15) 
4

>  <r_i_docking_score>  (15) 
-2.53042

>  <r_i_glide_ligand_efficiency>  (15) 
-0.0816264

>  <r_i_glide_ligand_efficiency_sa>  (15) 
-0.256419

>  <r_i_glide_ligand_efficiency_ln>  (15) 
-0.570687

>  <r_i_glide_gscore>  (15) 
-2.53042

>  <r_i_glide_lipo>  (15) 
-0.800969

>  <r_i_glide_hbond>  (15) 
0

>  <r_i_glide_metal>  (15) 
-0

>  <r_i_glide_rewards>  (15) 
-0.378273

>  <r_i_glide_evdw>  (15) 
-35.0774

>  <r_i_glide_ecoul>  (15) 
1.39387

>  <r_i_glide_erotb>  (15) 
0.303656

>  <r_i_glide_esite>  (15) 
-0.110043

>  <r_i_glide_emodel>  (15) 
-37.4475

>  <r_i_glide_energy>  (15) 
-33.6835

>  <r_i_glide_einternal>  (15) 
4.53314

>  <r_i_glide_intrahb_reward>  (15) 
-0

>  <i_i_glide_confnum>  (15) 
5

>  <i_i_glide_posenum>  (15) 
10

>  <r_i_glide_eff_state_penalty>  (15) 
0

>  <ligand_id>  (15) 
3

>  <original_smiles>  (15) 
CN1CCC23c4c5ccc(O)c4OC2C(NS(=O)(=O)c2ccccc2F)CCC3C1C5

>  <smiles>  (15) 
[H]Oc1c([H])c([H])c2c3c1OC1([H])C([H])(N([H])S(=O)(=O)c4c([H])c([H])c([H])c([H])c4F)C([H])([H])C([H])([H])C4([H])C([H])(N(C([H])([H])[H])C([H])([H])C([H])([H])C314)C2([H])[H]

$$$$
3:2:0
     RDKit          3D

 56 61  0  0  1  0  0  0  0  0999 V2000
    6.9112   -9.2523    2.2021 C   0  0  0  0  0  0  0  0  0  0  0  0
    5.4876   -9.0633    2.5709 N   0  0  2  0  0  0  0  0  0  0  0  0
    4.6302   -8.8721    1.3521 C   0  0  0  0  0  0  0  0  0  0  0  0
    4.4371   -7.3795    0.9646 C   0  0  0  0  0  0  0  0  0  0  0  0
    4.0436   -6.5585    2.2168 C   0  0  2  0  0  0  0  0  0  0  0  0
    2.7948   -7.1515    2.7689 C   0  0  0  0  0  0  0  0  0  0  0  0
    2.6950   -8.1381    3.7477 C   0  0  0  0  0  0  0  0  0  0  0  0
    1.4082   -8.6605    3.9803 C   0  0  0  0  0  0  0  0  0  0  0  0
    0.3247   -8.1468    3.2198 C   0  0  0  0  0  0  0  0  0  0  0  0
    0.4894   -7.0796    2.2928 C   0  0  0  0  0  0  0  0  0  0  0  0
   -0.5829   -6.5888    1.6270 O   0  0  0  0  0  0  0  0  0  0  0  0
    1.7724   -6.5219    2.0805 C   0  0  0  0  0  0  0  0  0  0  0  0
    2.2016   -5.4196    1.3696 O   0  0  0  0  0  0  0  0  0  0  0  0
    3.4508   -5.1543    2.0271 C   0  0  2  0  0  0  0  0  0  0  0  0
    4.5224   -4.1287    1.6831 C   0  0  1  0  0  0  0  0  0  0  0  0
    3.9485   -2.7931    1.4377 N   0  0  0  0  0  0  0  0  0  0  0  0
    4.7732   -1.6106    0.4774 S   0  0  0  0  0  0  0  0  0  0  0  0
    4.1183   -0.3151    0.7167 O   0  0  0  0  0  0  0  0  0  0  0  0
    6.2170   -1.7551    0.7205 O   0  0  0  0  0  0  0  0  0  0  0  0
    4.4177   -2.1574   -1.1977 C   0  0  0  0  0  0  0  0  0  0  0  0
    3.4159   -1.5036   -1.9461 C   0  0  0  0  0  0  0  0  0  0  0  0
    3.1298   -1.9273   -3.2588 C   0  0  0  0  0  0  0  0  0  0  0  0
    3.8396   -3.0065   -3.8150 C   0  0  0  0  0  0  0  0  0  0  0  0
    4.8507   -3.6457   -3.0761 C   0  0  0  0  0  0  0  0  0  0  0  0
    5.1476   -3.2241   -1.7687 C   0  0  0  0  0  0  0  0  0  0  0  0
    6.1488   -3.8393   -1.0949 F   0  0  0  0  0  0  0  0  0  0  0  0
    5.5500   -4.1100    2.8747 C   0  0  0  0  0  0  0  0  0  0  0  0
    5.4765   -5.3245    3.8778 C   0  0  0  0  0  0  0  0  0  0  0  0
    5.2881   -6.6327    3.0844 C   0  0  1  0  0  0  0  0  0  0  0  0
    5.2907   -8.0652    3.6875 C   0  0  1  0  0  0  0  0  0  0  0  0
    3.9998   -8.4074    4.4809 C   0  0  0  0  0  0  0  0  0  0  0  0
    7.3036   -8.3723    1.6873 H   0  0  0  0  0  0  0  0  0  0  0  0
    7.0137  -10.1052    1.5265 H   0  0  0  0  0  0  0  0  0  0  0  0
    7.5320   -9.4454    3.0805 H   0  0  0  0  0  0  0  0  0  0  0  0
    5.0366   -9.4362    0.5126 H   0  0  0  0  0  0  0  0  0  0  0  0
    3.6657   -9.3449    1.5311 H   0  0  0  0  0  0  0  0  0  0  0  0
    5.3441   -6.9996    0.4978 H   0  0  0  0  0  0  0  0  0  0  0  0
    3.6885   -7.2974    0.1861 H   0  0  0  0  0  0  0  0  0  0  0  0
    1.2507   -9.4341    4.7228 H   0  0  0  0  0  0  0  0  0  0  0  0
   -0.6567   -8.5677    3.3710 H   0  0  0  0  0  0  0  0  0  0  0  0
    3.1009   -4.7695    2.9921 H   0  0  0  0  0  0  0  0  0  0  0  0
    5.0100   -4.4681    0.7785 H   0  0  0  0  0  0  0  0  0  0  0  0
    3.4411   -2.3830    2.2207 H   0  0  0  0  0  0  0  0  0  0  0  0
    2.8656   -0.6779   -1.5198 H   0  0  0  0  0  0  0  0  0  0  0  0
    2.3550   -1.4394   -3.8332 H   0  0  0  0  0  0  0  0  0  0  0  0
    3.5988   -3.3602   -4.8020 H   0  0  0  0  0  0  0  0  0  0  0  0
    5.3954   -4.4745   -3.5009 H   0  0  0  0  0  0  0  0  0  0  0  0
    6.5464   -4.0766    2.4356 H   0  0  0  0  0  0  0  0  0  0  0  0
    5.4535   -3.1889    3.4486 H   0  0  0  0  0  0  0  0  0  0  0  0
    6.3888   -5.3665    4.4737 H   0  0  0  0  0  0  0  0  0  0  0  0
    4.6548   -5.1932    4.5823 H   0  0  0  0  0  0  0  0  0  0  0  0
    6.1747   -6.5867    2.4507 H   0  0  0  0  0  0  0  0  0  0  0  0
    6.1284   -8.1661    4.3767 H   0  0  0  0  0  0  0  0  0  0  0  0
    3.9905   -7.8081    5.3936 H   0  0  0  0  0  0  0  0  0  0  0  0
    4.0142   -9.4472    4.8124 H   0  0  0  0  0  0  0  0  0  0  0  0
    5.2092   -9.9599    2.9486 H   0  0  0  0  0  0  0  0  0  0  0  0
  1  2  1  0
  1 32  1  0
  1 33  1  0
  1 34  1  0
  2 30  1  0
  2  3  1  0
  2 56  1  1
  3  4  1  0
  3 35  1  0
  3 36  1  0
  5  4  1  6
  4 37  1  0
  4 38  1  0
  5 14  1  0
  5 29  1  0
  5  6  1  0
  6 12  2  0
  6  7  1  0
  7 31  1  0
  7  8  2  0
  8  9  1  0
  8 39  1  0
  9 10  2  0
  9 40  1  0
 10 11  1  0
 10 12  1  0
 12 13  1  0
 13 14  1  0
 14 15  1  0
 14 41  1  1
 15 16  1  0
 15 27  1  0
 15 42  1  6
 16 17  1  0
 16 43  1  0
 17 18  2  0
 17 19  2  0
 17 20  1  0
 20 25  1  0
 20 21  2  0
 21 22  1  0
 21 44  1  0
 22 23  2  0
 22 45  1  0
 23 24  1  0
 23 46  1  0
 24 25  2  0
 24 47  1  0
 25 26  1  0
 27 28  1  0
 27 48  1  0
 27 49  1  0
 28 29  1  0
 28 50  1  0
 28 51  1  0
 29 30  1  0
 29 52  1  6
 30 31  1  0
 30 53  1  1
 31 54  1  0
 31 55  1  0
M  CHG  2   2   1  11  -1
M  END
>  <i_m_ct_stereo_status>  (16) 
1

>  <s_m_source_file>  (16) 
/var/tmp/pbs.5076255.sched01/tmpm7cr0ro2/0ctwvxj2z.sdf

>  <i_m_source_file_index>  (16) 
6

>  <i_lp_mmshare_version>  (16) 
48012

>  <i_f3d_flags>  (16) 
0

>  <s_epik_input>  (16) 
RmMxW2NIXVtjSF1bY0hdW2NIXWMxUyg9TykoPU8pW05IXVtDQEBIXShbQ0gyXVtDSDJdW0NASF0yW0NAQEhdKFtDSDJdMylOKFtDSDNdKVtDSDJdW0NIMl00KVtDQEhdNU9jNmMoW09IXSlbY0hdW2NIXWMzYzZbQ0BAXTI0NQ==

>  <s_epik_cmdline>  (16) 
J2VwaWtfcHl0aG9uJywgJy1waHQnLCAnMi4wJywgJy1waCcsICc3LjAnLCAnLXRuJywgJzgnLCAnLW1hJywgJzIwMCcsICctaW1hZScsICc8aW5maWxlLm1hZT4nLCAnLW9tYWUnLCAnPG91dGZpbGUubWFlPic=

>  <r_epik_Ionization_Penalty>  (16) 
2.17122

>  <r_epik_Ionization_Penalty_Charging>  (16) 
2.17086

>  <r_epik_Ionization_Penalty_Neutral>  (16) 
0.000356523

>  <r_epik_State_Penalty>  (16) 
2.30817

>  <r_epik_Charging_Adjusted_Penalty>  (16) 
4.47903

>  <i_epik_Tot_Q>  (16) 
0

>  <i_epik_Tot_abs_Q>  (16) 
2

>  <s_lp_Force_Field>  (16) 
OPLS3e

>  <r_lp_Energy>  (16) 
86.9418

>  <b_lp_Chiralities_Consistent>  (16) 
1

>  <s_lp_Variant>  (16) 
3:0-3

>  <s_i_glide_gridfile>  (16) 
pfpi4k_grid

>  <i_i_glide_lignum>  (16) 
6

>  <i_i_glide_rotatable_bonds>  (16) 
3

>  <r_i_docking_score>  (16) 
-3.00853

>  <r_i_glide_ligand_efficiency>  (16) 
-0.0970495

>  <r_i_glide_ligand_efficiency_sa>  (16) 
-0.304869

>  <r_i_glide_ligand_efficiency_ln>  (16) 
-0.678517

>  <r_i_glide_gscore>  (16) 
-3.00853

>  <r_i_glide_lipo>  (16) 
-0.628132

>  <r_i_glide_hbond>  (16) 
-0.300177

>  <r_i_glide_metal>  (16) 
-0

>  <r_i_glide_rewards>  (16) 
-0.49149

>  <r_i_glide_evdw>  (16) 
-28.5265

>  <r_i_glide_ecoul>  (16) 
-3.04554

>  <r_i_glide_erotb>  (16) 
0.303656

>  <r_i_glide_esite>  (16) 
-0.00923364

>  <r_i_glide_emodel>  (16) 
-40.7007

>  <r_i_glide_energy>  (16) 
-31.5721

>  <r_i_glide_einternal>  (16) 
2.01506

>  <r_i_glide_intrahb_reward>  (16) 
-0

>  <i_i_glide_confnum>  (16) 
4

>  <i_i_glide_posenum>  (16) 
13

>  <r_i_glide_eff_state_penalty>  (16) 
0

>  <ligand_id>  (16) 
3

>  <original_smiles>  (16) 
CN1CCC23c4c5ccc(O)c4OC2C(NS(=O)(=O)c2ccccc2F)CCC3C1C5

>  <smiles>  (16) 
[H]c1c([H])c([H])c(S(=O)(=O)N([H])C2([H])C([H])([H])C([H])([H])C3([H])C45c6c(c([O-])c([H])c([H])c6C([H])([H])C3([H])[N+]([H])(C([H])([H])[H])C([H])([H])C4([H])[H])OC25[H])c(F)c1[H]

$$$$
3:2:1
     RDKit          3D

 56 61  0  0  1  0  0  0  0  0999 V2000
    6.4062  -10.1998    2.3131 C   0  0  0  0  0  0  0  0  0  0  0  0
    4.9958   -9.7932    2.5096 N   0  0  2  0  0  0  0  0  0  0  0  0
    4.3674   -9.3490    1.2239 C   0  0  0  0  0  0  0  0  0  0  0  0
    4.4703   -7.8261    0.9637 C   0  0  0  0  0  0  0  0  0  0  0  0
    4.0390   -7.0705    2.2412 C   0  0  2  0  0  0  0  0  0  0  0  0
    2.6389   -7.4858    2.5559 C   0  0  0  0  0  0  0  0  0  0  0  0
    2.2437   -8.5219    3.4058 C   0  0  0  0  0  0  0  0  0  0  0  0
    0.8616   -8.8137    3.4010 C   0  0  0  0  0  0  0  0  0  0  0  0
   -0.0010   -8.0667    2.5564 C   0  0  0  0  0  0  0  0  0  0  0  0
    0.4810   -6.9838    1.7716 C   0  0  0  0  0  0  0  0  0  0  0  0
   -0.3528   -6.2588    0.9859 O   0  0  0  0  0  0  0  0  0  0  0  0
    1.8397   -6.6509    1.8168 C   0  0  0  0  0  0  0  0  0  0  0  0
    2.5436   -5.5924    1.3058 O   0  0  0  0  0  0  0  0  0  0  0  0
    3.7223   -5.5781    2.1267 C   0  0  2  0  0  0  0  0  0  0  0  0
    4.9899   -4.7209    2.0162 C   0  0  1  0  0  0  0  0  0  0  0  0
    4.6925   -3.2804    1.8723 N   0  0  0  0  0  0  0  0  0  0  0  0
    5.4013   -2.3014    0.6236 S   0  0  0  0  0  0  0  0  0  0  0  0
    5.3954   -0.9108    1.1169 O   0  0  0  0  0  0  0  0  0  0  0  0
    6.6641   -2.9396    0.2279 O   0  0  0  0  0  0  0  0  0  0  0  0
    4.2523   -2.4039   -0.7646 C   0  0  0  0  0  0  0  0  0  0  0  0
    3.1840   -3.3102   -0.7303 C   0  0  0  0  0  0  0  0  0  0  0  0
    2.2900   -3.4513   -1.8041 C   0  0  0  0  0  0  0  0  0  0  0  0
    2.4659   -2.6509   -2.9412 C   0  0  0  0  0  0  0  0  0  0  0  0
    3.5216   -1.7070   -2.9776 C   0  0  0  0  0  0  0  0  0  0  0  0
    4.4108   -1.5829   -1.8892 C   0  0  0  0  0  0  0  0  0  0  0  0
    5.4142   -0.6740   -1.9191 F   0  0  0  0  0  0  0  0  0  0  0  0
    5.8167   -4.9786    3.3289 C   0  0  0  0  0  0  0  0  0  0  0  0
    5.3934   -6.2337    4.1851 C   0  0  0  0  0  0  0  0  0  0  0  0
    5.1202   -7.4224    3.2448 C   0  0  1  0  0  0  0  0  0  0  0  0
    4.7987   -8.8750    3.6892 C   0  0  1  0  0  0  0  0  0  0  0  0
    3.3704   -9.0536    4.2671 C   0  0  0  0  0  0  0  0  0  0  0  0
    7.0061   -9.3638    1.9526 H   0  0  0  0  0  0  0  0  0  0  0  0
    6.4801  -10.9998    1.5728 H   0  0  0  0  0  0  0  0  0  0  0  0
    6.8506  -10.5658    3.2398 H   0  0  0  0  0  0  0  0  0  0  0  0
    4.8105   -9.8922    0.4044 H   0  0  0  0  0  0  0  0  0  0  0  0
    3.3286   -9.6714    1.2063 H   0  0  0  0  0  0  0  0  0  0  0  0
    5.4816   -7.5758    0.6546 H   0  0  0  0  0  0  0  0  0  0  0  0
    3.8536   -7.5627    0.1102 H   0  0  0  0  0  0  0  0  0  0  0  0
    0.4721   -9.6119    4.0358 H   0  0  0  0  0  0  0  0  0  0  0  0
   -1.0504   -8.3145    2.5226 H   0  0  0  0  0  0  0  0  0  0  0  0
    3.2995   -5.2063    3.0650 H   0  0  0  0  0  0  0  0  0  0  0  0
    5.5521   -5.0392    1.1398 H   0  0  0  0  0  0  0  0  0  0  0  0
    4.4382   -2.7685    2.7170 H   0  0  0  0  0  0  0  0  0  0  0  0
    3.0622   -3.8900    0.1385 H   0  0  0  0  0  0  0  0  0  0  0  0
    1.4792   -4.1728   -1.7374 H   0  0  0  0  0  0  0  0  0  0  0  0
    1.7656   -2.7343   -3.7583 H   0  0  0  0  0  0  0  0  0  0  0  0
    3.6391   -1.0680   -3.8339 H   0  0  0  0  0  0  0  0  0  0  0  0
    6.8623   -5.0730    3.0411 H   0  0  0  0  0  0  0  0  0  0  0  0
    5.7793   -4.1028    3.9768 H   0  0  0  0  0  0  0  0  0  0  0  0
    6.1855   -6.4746    4.8910 H   0  0  0  0  0  0  0  0  0  0  0  0
    4.5072   -6.0107    4.7795 H   0  0  0  0  0  0  0  0  0  0  0  0
    6.0858   -7.4763    2.7391 H   0  0  0  0  0  0  0  0  0  0  0  0
    5.4932   -9.1740    4.4668 H   0  0  0  0  0  0  0  0  0  0  0  0
    3.3122   -8.5302    5.2215 H   0  0  0  0  0  0  0  0  0  0  0  0
    3.1582  -10.1001    4.4811 H   0  0  0  0  0  0  0  0  0  0  0  0
    4.5245  -10.6611    2.7353 H   0  0  0  0  0  0  0  0  0  0  0  0
  1  2  1  0
  1 32  1  0
  1 33  1  0
  1 34  1  0
  2 30  1  0
  2  3  1  0
  2 56  1  1
  3  4  1  0
  3 35  1  0
  3 36  1  0
  5  4  1  6
  4 37  1  0
  4 38  1  0
  5 14  1  0
  5 29  1  0
  5  6  1  0
  6 12  2  0
  6  7  1  0
  7 31  1  0
  7  8  2  0
  8  9  1  0
  8 39  1  0
  9 10  2  0
  9 40  1  0
 10 11  1  0
 10 12  1  0
 12 13  1  0
 13 14  1  0
 14 15  1  0
 14 41  1  1
 15 16  1  0
 15 27  1  0
 15 42  1  6
 16 17  1  0
 16 43  1  0
 17 18  2  0
 17 19  2  0
 17 20  1  0
 20 25  1  0
 20 21  2  0
 21 22  1  0
 21 44  1  0
 22 23  2  0
 22 45  1  0
 23 24  1  0
 23 46  1  0
 24 25  2  0
 24 47  1  0
 25 26  1  0
 27 28  1  0
 27 48  1  0
 27 49  1  0
 28 29  1  0
 28 50  1  0
 28 51  1  0
 29 30  1  0
 29 52  1  6
 30 31  1  0
 30 53  1  1
 31 54  1  0
 31 55  1  0
M  CHG  2   2   1  11  -1
M  END
>  <i_m_ct_stereo_status>  (17) 
1

>  <s_m_source_file>  (17) 
/var/tmp/pbs.5076255.sched01/tmpm7cr0ro2/0ctwvxj2z.sdf

>  <i_m_source_file_index>  (17) 
6

>  <i_lp_mmshare_version>  (17) 
48012

>  <i_f3d_flags>  (17) 
0

>  <s_epik_input>  (17) 
RmMxW2NIXVtjSF1bY0hdW2NIXWMxUyg9TykoPU8pW05IXVtDQEBIXShbQ0gyXVtDSDJdW0NASF0yW0NAQEhdKFtDSDJdMylOKFtDSDNdKVtDSDJdW0NIMl00KVtDQEhdNU9jNmMoW09IXSlbY0hdW2NIXWMzYzZbQ0BAXTI0NQ==

>  <s_epik_cmdline>  (17) 
J2VwaWtfcHl0aG9uJywgJy1waHQnLCAnMi4wJywgJy1waCcsICc3LjAnLCAnLXRuJywgJzgnLCAnLW1hJywgJzIwMCcsICctaW1hZScsICc8aW5maWxlLm1hZT4nLCAnLW9tYWUnLCAnPG91dGZpbGUubWFlPic=

>  <r_epik_Ionization_Penalty>  (17) 
2.17122

>  <r_epik_Ionization_Penalty_Charging>  (17) 
2.17086

>  <r_epik_Ionization_Penalty_Neutral>  (17) 
0.000356523

>  <r_epik_State_Penalty>  (17) 
2.30817

>  <r_epik_Charging_Adjusted_Penalty>  (17) 
4.47903

>  <i_epik_Tot_Q>  (17) 
0

>  <i_epik_Tot_abs_Q>  (17) 
2

>  <s_lp_Force_Field>  (17) 
OPLS3e

>  <r_lp_Energy>  (17) 
86.9418

>  <b_lp_Chiralities_Consistent>  (17) 
1

>  <s_lp_Variant>  (17) 
3:0-3

>  <s_i_glide_gridfile>  (17) 
pfpi4k_grid

>  <i_i_glide_lignum>  (17) 
6

>  <i_i_glide_rotatable_bonds>  (17) 
3

>  <r_i_docking_score>  (17) 
-2.99868

>  <r_i_glide_ligand_efficiency>  (17) 
-0.0967315

>  <r_i_glide_ligand_efficiency_sa>  (17) 
-0.30387

>  <r_i_glide_ligand_efficiency_ln>  (17) 
-0.676293

>  <r_i_glide_gscore>  (17) 
-2.99868

>  <r_i_glide_lipo>  (17) 
-0.328019

>  <r_i_glide_hbond>  (17) 
-0.335568

>  <r_i_glide_metal>  (17) 
-0

>  <r_i_glide_rewards>  (17) 
-0.437849

>  <r_i_glide_evdw>  (17) 
-27.9934

>  <r_i_glide_ecoul>  (17) 
-4.76934

>  <r_i_glide_erotb>  (17) 
0.303656

>  <r_i_glide_esite>  (17) 
-0.0858249

>  <r_i_glide_emodel>  (17) 
-40.7543

>  <r_i_glide_energy>  (17) 
-32.7628

>  <r_i_glide_einternal>  (17) 
2.95106

>  <r_i_glide_intrahb_reward>  (17) 
-0

>  <i_i_glide_confnum>  (17) 
4

>  <i_i_glide_posenum>  (17) 
34

>  <r_i_glide_eff_state_penalty>  (17) 
0

>  <ligand_id>  (17) 
3

>  <original_smiles>  (17) 
CN1CCC23c4c5ccc(O)c4OC2C(NS(=O)(=O)c2ccccc2F)CCC3C1C5

>  <smiles>  (17) 
[H]c1c([H])c([H])c(S(=O)(=O)N([H])C2([H])C([H])([H])C([H])([H])C3([H])C45c6c(c([O-])c([H])c([H])c6C([H])([H])C3([H])[N+]([H])(C([H])([H])[H])C([H])([H])C4([H])[H])OC25[H])c(F)c1[H]

$$$$
3:2:2
     RDKit          3D

 56 61  0  0  1  0  0  0  0  0999 V2000
    6.5525  -10.0695    2.5176 C   0  0  0  0  0  0  0  0  0  0  0  0
    5.1316   -9.6717    2.6361 N   0  0  2  0  0  0  0  0  0  0  0  0
    4.5568   -9.2999    1.3002 C   0  0  0  0  0  0  0  0  0  0  0  0
    4.6552   -7.7856    0.9765 C   0  0  0  0  0  0  0  0  0  0  0  0
    4.1715   -6.9561    2.1918 C   0  0  2  0  0  0  0  0  0  0  0  0
    2.7640   -7.3604    2.4795 C   0  0  0  0  0  0  0  0  0  0  0  0
    2.3478   -8.3579    3.3609 C   0  0  0  0  0  0  0  0  0  0  0  0
    0.9710   -8.6722    3.3240 C   0  0  0  0  0  0  0  0  0  0  0  0
    0.1376   -7.9721    2.4117 C   0  0  0  0  0  0  0  0  0  0  0  0
    0.6398   -6.9261    1.5855 C   0  0  0  0  0  0  0  0  0  0  0  0
   -0.1765   -6.3004    0.7158 O   0  0  0  0  0  0  0  0  0  0  0  0
    1.9929   -6.5556    1.6588 C   0  0  0  0  0  0  0  0  0  0  0  0
    2.7091   -5.5082    1.1079 O   0  0  0  0  0  0  0  0  0  0  0  0
    3.8456   -5.4689    1.9886 C   0  0  2  0  0  0  0  0  0  0  0  0
    5.1051   -4.6147    1.9187 C   0  0  1  0  0  0  0  0  0  0  0  0
    4.8003   -3.1929    1.6871 N   0  0  0  0  0  0  0  0  0  0  0  0
    5.8203   -2.1853    0.7184 S   0  0  0  0  0  0  0  0  0  0  0  0
    5.7158   -0.8162    1.2493 O   0  0  0  0  0  0  0  0  0  0  0  0
    7.1330   -2.8380    0.6106 O   0  0  0  0  0  0  0  0  0  0  0  0
    5.0321   -2.2307   -0.8963 C   0  0  0  0  0  0  0  0  0  0  0  0
    4.5389   -1.0361   -1.4638 C   0  0  0  0  0  0  0  0  0  0  0  0
    3.9374   -1.0546   -2.7392 C   0  0  0  0  0  0  0  0  0  0  0  0
    3.8281   -2.2676   -3.4464 C   0  0  0  0  0  0  0  0  0  0  0  0
    4.3335   -3.4564   -2.8834 C   0  0  0  0  0  0  0  0  0  0  0  0
    4.9303   -3.4430   -1.6106 C   0  0  0  0  0  0  0  0  0  0  0  0
    5.4136   -4.5991   -1.1041 F   0  0  0  0  0  0  0  0  0  0  0  0
    5.8705   -4.8139    3.2712 C   0  0  0  0  0  0  0  0  0  0  0  0
    5.4293   -6.0325    4.1632 C   0  0  0  0  0  0  0  0  0  0  0  0
    5.2049   -7.2623    3.2640 C   0  0  1  0  0  0  0  0  0  0  0  0
    4.8815   -8.6973    3.7610 C   0  0  1  0  0  0  0  0  0  0  0  0
    3.4341   -8.8571    4.2943 C   0  0  0  0  0  0  0  0  0  0  0  0
    7.1557   -9.2436    2.1434 H   0  0  0  0  0  0  0  0  0  0  0  0
    6.6625  -10.9011    1.8201 H   0  0  0  0  0  0  0  0  0  0  0  0
    6.9611  -10.3876    3.4768 H   0  0  0  0  0  0  0  0  0  0  0  0
    5.0280   -9.8799    0.5101 H   0  0  0  0  0  0  0  0  0  0  0  0
    3.5171   -9.6240    1.2663 H   0  0  0  0  0  0  0  0  0  0  0  0
    5.6785   -7.5340    0.7067 H   0  0  0  0  0  0  0  0  0  0  0  0
    4.0740   -7.5666    0.0844 H   0  0  0  0  0  0  0  0  0  0  0  0
    0.5619   -9.4468    3.9723 H   0  0  0  0  0  0  0  0  0  0  0  0
   -0.9067   -8.2429    2.3503 H   0  0  0  0  0  0  0  0  0  0  0  0
    3.3816   -5.0671    2.8963 H   0  0  0  0  0  0  0  0  0  0  0  0
    5.7277   -4.9821    1.1110 H   0  0  0  0  0  0  0  0  0  0  0  0
    4.3025   -2.7018    2.4284 H   0  0  0  0  0  0  0  0  0  0  0  0
    4.6127   -0.1021   -0.9263 H   0  0  0  0  0  0  0  0  0  0  0  0
    3.5446   -0.1414   -3.1666 H   0  0  0  0  0  0  0  0  0  0  0  0
    3.3408   -2.2979   -4.4104 H   0  0  0  0  0  0  0  0  0  0  0  0
    4.2508   -4.3888   -3.4157 H   0  0  0  0  0  0  0  0  0  0  0  0
    6.9177   -4.9513    3.0043 H   0  0  0  0  0  0  0  0  0  0  0  0
    5.8142   -3.9064    3.8733 H   0  0  0  0  0  0  0  0  0  0  0  0
    6.2003   -6.2313    4.9082 H   0  0  0  0  0  0  0  0  0  0  0  0
    4.5225   -5.7910    4.7174 H   0  0  0  0  0  0  0  0  0  0  0  0
    6.1926   -7.3317    2.8071 H   0  0  0  0  0  0  0  0  0  0  0  0
    5.5469   -8.9549    4.5845 H   0  0  0  0  0  0  0  0  0  0  0  0
    3.3306   -8.2983    5.2242 H   0  0  0  0  0  0  0  0  0  0  0  0
    3.2179   -9.8933    4.5486 H   0  0  0  0  0  0  0  0  0  0  0  0
    4.6563  -10.5264    2.8949 H   0  0  0  0  0  0  0  0  0  0  0  0
  1  2  1  0
  1 32  1  0
  1 33  1  0
  1 34  1  0
  2 30  1  0
  2  3  1  0
  2 56  1  1
  3  4  1  0
  3 35  1  0
  3 36  1  0
  5  4  1  6
  4 37  1  0
  4 38  1  0
  5 14  1  0
  5 29  1  0
  5  6  1  0
  6 12  2  0
  6  7  1  0
  7 31  1  0
  7  8  2  0
  8  9  1  0
  8 39  1  0
  9 10  2  0
  9 40  1  0
 10 11  1  0
 10 12  1  0
 12 13  1  0
 13 14  1  0
 14 15  1  0
 14 41  1  1
 15 16  1  0
 15 27  1  0
 15 42  1  6
 16 17  1  0
 16 43  1  0
 17 18  2  0
 17 19  2  0
 17 20  1  0
 20 25  1  0
 20 21  2  0
 21 22  1  0
 21 44  1  0
 22 23  2  0
 22 45  1  0
 23 24  1  0
 23 46  1  0
 24 25  2  0
 24 47  1  0
 25 26  1  0
 27 28  1  0
 27 48  1  0
 27 49  1  0
 28 29  1  0
 28 50  1  0
 28 51  1  0
 29 30  1  0
 29 52  1  6
 30 31  1  0
 30 53  1  1
 31 54  1  0
 31 55  1  0
M  CHG  2   2   1  11  -1
M  END
>  <i_m_ct_stereo_status>  (18) 
1

>  <s_m_source_file>  (18) 
/var/tmp/pbs.5076255.sched01/tmpm7cr0ro2/0ctwvxj2z.sdf

>  <i_m_source_file_index>  (18) 
6

>  <i_lp_mmshare_version>  (18) 
48012

>  <i_f3d_flags>  (18) 
0

>  <s_epik_input>  (18) 
RmMxW2NIXVtjSF1bY0hdW2NIXWMxUyg9TykoPU8pW05IXVtDQEBIXShbQ0gyXVtDSDJdW0NASF0yW0NAQEhdKFtDSDJdMylOKFtDSDNdKVtDSDJdW0NIMl00KVtDQEhdNU9jNmMoW09IXSlbY0hdW2NIXWMzYzZbQ0BAXTI0NQ==

>  <s_epik_cmdline>  (18) 
J2VwaWtfcHl0aG9uJywgJy1waHQnLCAnMi4wJywgJy1waCcsICc3LjAnLCAnLXRuJywgJzgnLCAnLW1hJywgJzIwMCcsICctaW1hZScsICc8aW5maWxlLm1hZT4nLCAnLW9tYWUnLCAnPG91dGZpbGUubWFlPic=

>  <r_epik_Ionization_Penalty>  (18) 
2.17122

>  <r_epik_Ionization_Penalty_Charging>  (18) 
2.17086

>  <r_epik_Ionization_Penalty_Neutral>  (18) 
0.000356523

>  <r_epik_State_Penalty>  (18) 
2.30817

>  <r_epik_Charging_Adjusted_Penalty>  (18) 
4.47903

>  <i_epik_Tot_Q>  (18) 
0

>  <i_epik_Tot_abs_Q>  (18) 
2

>  <s_lp_Force_Field>  (18) 
OPLS3e

>  <r_lp_Energy>  (18) 
86.9418

>  <b_lp_Chiralities_Consistent>  (18) 
1

>  <s_lp_Variant>  (18) 
3:0-3

>  <s_i_glide_gridfile>  (18) 
pfpi4k_grid

>  <i_i_glide_lignum>  (18) 
6

>  <i_i_glide_rotatable_bonds>  (18) 
3

>  <r_i_docking_score>  (18) 
-2.90269

>  <r_i_glide_ligand_efficiency>  (18) 
-0.0936352

>  <r_i_glide_ligand_efficiency_sa>  (18) 
-0.294144

>  <r_i_glide_ligand_efficiency_ln>  (18) 
-0.654646

>  <r_i_glide_gscore>  (18) 
-2.90269

>  <r_i_glide_lipo>  (18) 
-0.342932

>  <r_i_glide_hbond>  (18) 
-0.220562

>  <r_i_glide_metal>  (18) 
-0

>  <r_i_glide_rewards>  (18) 
-0.481929

>  <r_i_glide_evdw>  (18) 
-29.4883

>  <r_i_glide_ecoul>  (18) 
-4.32655

>  <r_i_glide_erotb>  (18) 
0.303656

>  <r_i_glide_esite>  (18) 
-0.0375253

>  <r_i_glide_emodel>  (18) 
-42.3405

>  <r_i_glide_energy>  (18) 
-33.8149

>  <r_i_glide_einternal>  (18) 
2.52188

>  <r_i_glide_intrahb_reward>  (18) 
-0

>  <i_i_glide_confnum>  (18) 
4

>  <i_i_glide_posenum>  (18) 
8

>  <r_i_glide_eff_state_penalty>  (18) 
0

>  <ligand_id>  (18) 
3

>  <original_smiles>  (18) 
CN1CCC23c4c5ccc(O)c4OC2C(NS(=O)(=O)c2ccccc2F)CCC3C1C5

>  <smiles>  (18) 
[H]c1c([H])c([H])c(S(=O)(=O)N([H])C2([H])C([H])([H])C([H])([H])C3([H])C45c6c(c([O-])c([H])c([H])c6C([H])([H])C3([H])[N+]([H])(C([H])([H])[H])C([H])([H])C4([H])[H])OC25[H])c(F)c1[H]

$$$$
4:0:0
     RDKit          3D

 83 89  0  0  1  0  0  0  0  0999 V2000
    4.7869   -5.9502   -0.3660 C   0  0  0  0  0  0  0  0  0  0  0  0
    3.6560   -5.0877    0.2128 C   0  0  2  0  0  0  0  0  0  0  0  0
    3.9616   -3.6066   -0.0455 C   0  0  0  0  0  0  0  0  0  0  0  0
    5.1159   -3.1799    0.0042 O   0  0  0  0  0  0  0  0  0  0  0  0
    3.3846   -5.3010    1.7432 C   0  0  0  0  0  0  0  0  0  0  0  0
    2.8148   -6.7087    2.2085 C   0  0  2  0  0  0  0  0  0  0  0  0
    1.4937   -6.4080    3.1158 C   0  0  1  0  0  0  0  0  0  0  0  0
    0.4461   -6.1778    2.1852 O   0  0  0  0  0  0  0  0  0  0  0  0
    0.8526   -7.3656    4.2227 C   0  0  2  0  0  0  0  0  0  0  0  0
    1.3700   -7.2617    5.7532 C   0  0  1  0  0  0  0  0  0  0  0  0
    0.5183   -6.5480    6.8216 C   0  0  2  0  0  0  0  0  0  0  0  0
    0.0262   -5.3216    6.2461 O   0  0  0  0  0  0  0  0  0  0  0  0
   -0.3253   -4.2077    6.9482 C   0  0  0  0  0  0  0  0  0  0  0  0
   -1.1322   -3.3985    6.4903 O   0  0  0  0  0  0  0  0  0  0  0  0
    0.3870   -3.8871    8.2534 C   0  0  2  0  0  0  0  0  0  0  0  0
    1.9030   -3.8740    8.1763 C   0  0  0  0  0  0  0  0  0  0  0  0
    2.5085   -5.3532    8.2092 C   0  0  2  0  0  0  0  0  0  0  0  0
    3.2526   -5.5963    9.5519 C   0  0  0  0  0  0  0  0  0  0  0  0
    3.6300   -5.3177    7.0734 C   0  0  0  0  0  0  0  0  0  0  0  0
    4.7015   -6.4310    6.7076 C   0  0  1  0  0  0  0  0  0  0  0  0
    5.3004   -7.1195    7.7957 O   0  0  0  0  0  0  0  0  0  0  0  0
    4.7212   -7.1876    5.3354 C   0  0  2  0  0  0  0  0  0  0  0  0
    3.8088   -6.5155    4.5597 O   0  0  0  0  0  0  0  0  0  0  0  0
    3.7274   -7.8962    4.2530 C   0  0  2  0  0  0  0  0  0  0  0  0
    2.5022   -8.9308    4.6584 C   0  0  2  0  0  0  0  0  0  0  0  0
    1.1072   -8.8285    3.8635 C   0  0  0  0  0  0  0  0  0  0  0  0
   -0.0945   -9.6981    4.3813 C   0  0  0  0  0  0  0  0  0  0  0  0
    0.9547   -9.2507    2.3645 C   0  0  0  0  0  0  0  0  0  0  0  0
    2.0442   -8.6528    6.1057 C   0  0  1  0  0  0  0  0  0  0  0  0
    3.1753   -9.0097    7.1181 C   0  0  0  0  0  0  0  0  0  0  0  0
    1.0707   -9.4615    6.7676 O   0  0  0  0  0  0  0  0  0  0  0  0
    3.9378   -7.7748    2.7384 C   0  0  0  0  0  0  0  0  0  0  0  0
    3.9880   -9.1584    2.0103 C   0  0  0  0  0  0  0  0  0  0  0  0
    5.4252   -7.3067    2.4455 C   0  0  0  0  0  0  0  0  0  0  0  0
    1.2611   -6.3770    8.1822 C   0  0  1  0  0  0  0  0  0  0  0  0
    0.1149   -6.0383    9.2287 C   0  0  1  0  0  0  0  0  0  0  0  0
    0.2179   -6.8428   10.3969 O   0  0  0  0  0  0  0  0  0  0  0  0
    0.1701   -4.5851    9.6236 C   0  0  2  0  0  0  0  0  0  0  0  0
   -0.5231   -3.4174    9.2234 O   0  0  0  0  0  0  0  0  0  0  0  0
    4.9631   -5.7379   -1.4216 H   0  0  0  0  0  0  0  0  0  0  0  0
    4.5462   -7.0068   -0.2738 H   0  0  0  0  0  0  0  0  0  0  0  0
    5.7225   -5.8099    0.1790 H   0  0  0  0  0  0  0  0  0  0  0  0
    2.7385   -5.3117   -0.3410 H   0  0  0  0  0  0  0  0  0  0  0  0
    3.1044   -2.9725   -0.2673 H   0  0  0  0  0  0  0  0  0  0  0  0
    4.2438   -4.9999    2.3583 H   0  0  0  0  0  0  0  0  0  0  0  0
    2.6225   -4.5437    1.9740 H   0  0  0  0  0  0  0  0  0  0  0  0
    2.4641   -7.0955    1.2591 H   0  0  0  0  0  0  0  0  0  0  0  0
    1.6356   -5.4706    3.6457 H   0  0  0  0  0  0  0  0  0  0  0  0
    0.2056   -7.0115    1.8074 H   0  0  0  0  0  0  0  0  0  0  0  0
   -0.2273   -7.1819    4.2513 H   0  0  0  0  0  0  0  0  0  0  0  0
    2.0666   -6.4843    5.7059 H   0  0  0  0  0  0  0  0  0  0  0  0
   -0.3485   -7.1895    6.9887 H   0  0  0  0  0  0  0  0  0  0  0  0
    2.1841   -3.3373    7.2542 H   0  0  0  0  0  0  0  0  0  0  0  0
    2.3135   -3.2562    8.9841 H   0  0  0  0  0  0  0  0  0  0  0  0
    3.5926   -6.6240    9.6274 H   0  0  0  0  0  0  0  0  0  0  0  0
    2.6409   -5.4343   10.4350 H   0  0  0  0  0  0  0  0  0  0  0  0
    4.1280   -4.9573    9.6634 H   0  0  0  0  0  0  0  0  0  0  0  0
    3.2342   -4.8946    6.1604 H   0  0  0  0  0  0  0  0  0  0  0  0
    4.2645   -4.4972    7.4037 H   0  0  0  0  0  0  0  0  0  0  0  0
    5.5546   -5.7768    6.5171 H   0  0  0  0  0  0  0  0  0  0  0  0
    4.7118   -7.8065    8.0708 H   0  0  0  0  0  0  0  0  0  0  0  0
    5.7399   -7.2460    4.9954 H   0  0  0  0  0  0  0  0  0  0  0  0
    2.8694   -9.9584    4.5923 H   0  0  0  0  0  0  0  0  0  0  0  0
    0.2350  -10.6896    4.6847 H   0  0  0  0  0  0  0  0  0  0  0  0
   -0.8934   -9.8555    3.6574 H   0  0  0  0  0  0  0  0  0  0  0  0
   -0.6383   -9.2328    5.1979 H   0  0  0  0  0  0  0  0  0  0  0  0
    1.0626  -10.3300    2.2643 H   0  0  0  0  0  0  0  0  0  0  0  0
    1.5993   -8.8325    1.6233 H   0  0  0  0  0  0  0  0  0  0  0  0
   -0.0369   -8.9997    1.9830 H   0  0  0  0  0  0  0  0  0  0  0  0
    3.2149   -8.3957    8.0106 H   0  0  0  0  0  0  0  0  0  0  0  0
    4.1676   -9.0914    6.6794 H   0  0  0  0  0  0  0  0  0  0  0  0
    3.0828  -10.0296    7.5044 H   0  0  0  0  0  0  0  0  0  0  0  0
    1.3836  -10.3542    6.8509 H   0  0  0  0  0  0  0  0  0  0  0  0
    4.9723   -9.6225    2.0677 H   0  0  0  0  0  0  0  0  0  0  0  0
    3.7825   -9.0450    0.9433 H   0  0  0  0  0  0  0  0  0  0  0  0
    3.3383   -9.9344    2.3945 H   0  0  0  0  0  0  0  0  0  0  0  0
    6.1254   -7.9884    2.9795 H   0  0  0  0  0  0  0  0  0  0  0  0
    5.6325   -6.3043    2.8400 H   0  0  0  0  0  0  0  0  0  0  0  0
    5.6693   -7.3202    1.3818 H   0  0  0  0  0  0  0  0  0  0  0  0
    1.5796   -7.3644    8.4801 H   0  0  0  0  0  0  0  0  0  0  0  0
   -0.8842   -6.2390    8.8219 H   0  0  0  0  0  0  0  0  0  0  0  0
    1.0540   -6.6753   10.8090 H   0  0  0  0  0  0  0  0  0  0  0  0
    0.8278   -4.3574   10.4556 H   0  0  0  0  0  0  0  0  0  0  0  0
  1  2  1  0
  1 40  1  0
  1 41  1  0
  1 42  1  0
  2  3  1  0
  2  5  1  0
  2 43  1  6
  3  4  2  0
  3 44  1  0
  5  6  1  0
  5 45  1  0
  5 46  1  0
  6 32  1  0
  6  7  1  0
  6 47  1  6
  7  8  1  0
  7  9  1  0
  7 48  1  1
  8 49  1  0
  9 26  1  0
  9 10  1  0
  9 50  1  1
 10 29  1  0
 10 11  1  0
 10 51  1  6
 11 35  1  0
 11 12  1  0
 11 52  1  1
 12 13  1  0
 13 14  2  0
 13 15  1  0
 15 38  1  0
 15 39  1  1
 15 16  1  0
 16 17  1  0
 16 53  1  0
 16 54  1  0
 17 18  1  1
 17 19  1  0
 17 35  1  0
 18 55  1  0
 18 56  1  0
 18 57  1  0
 19 20  1  0
 19 58  1  0
 19 59  1  0
 20 21  1  0
 20 22  1  0
 20 60  1  6
 21 61  1  0
 22 24  1  0
 22 23  1  0
 22 62  1  6
 24 23  1  6
 24 25  1  0
 24 32  1  0
 25 26  1  0
 25 29  1  0
 25 63  1  1
 26 27  1  0
 26 28  1  0
 27 64  1  0
 27 65  1  0
 27 66  1  0
 28 67  1  0
 28 68  1  0
 28 69  1  0
 29 30  1  0
 29 31  1  1
 30 70  1  0
 30 71  1  0
 30 72  1  0
 31 73  1  0
 32 33  1  0
 32 34  1  0
 33 74  1  0
 33 75  1  0
 33 76  1  0
 34 77  1  0
 34 78  1  0
 34 79  1  0
 35 36  1  0
 35 80  1  1
 36 37  1  0
 36 38  1  0
 36 81  1  6
 37 82  1  0
 38 39  1  0
 38 83  1  1
M  END
>  <i_m_ct_stereo_status>  (19) 
1

>  <s_m_source_file>  (19) 
/var/tmp/pbs.5076255.sched01/tmpm7cr0ro2/0ctwvxj2z.sdf

>  <i_m_source_file_index>  (19) 
7

>  <i_lp_mmshare_version>  (19) 
48012

>  <i_f3d_flags>  (19) 
0

>  <s_epik_input>  (19) 
W0NIMl0xW0NAXTIoW0NIM10pW0NIMl1bQ0BASF0oW09IXSlbQ0BIXShPMylbQ0BdMyhbQ0BIXShDNChbQ0gzXSlbQ0gzXSlbQ0BdNShbQ0gzXSlbT0hdKUMoW0NIM10pKFtDSDNdKVtDQEhdKFtDSDJdW0NASF0oW0NIM10pW0NIXT1PKVtDQEBIXShbT0hdKVtDQEBIXTRbQ0BIXTVbQ0BIXShPQzY9TylbQ0BASF0yW0NAQEhdKFtPSF0pW0NAQEhdKFtDQEBdMTY3KU83

>  <s_epik_cmdline>  (19) 
J2VwaWtfcHl0aG9uJywgJy1waHQnLCAnMi4wJywgJy1waCcsICc3LjAnLCAnLXRuJywgJzgnLCAnLW1hJywgJzIwMCcsICctaW1hZScsICc8aW5maWxlLm1hZT4nLCAnLW9tYWUnLCAnPG91dGZpbGUubWFlPic=

>  <r_lp_tautomer_probability>  (19) 
1

>  <r_epik_Ionization_Penalty>  (19) 
6.1017e-07

>  <r_epik_Ionization_Penalty_Charging>  (19) 
0

>  <r_epik_Ionization_Penalty_Neutral>  (19) 
6.1017e-07

>  <r_epik_State_Penalty>  (19) 
-0

>  <r_epik_Charging_Adjusted_Penalty>  (19) 
0

>  <i_epik_Tot_Q>  (19) 
0

>  <i_epik_Tot_abs_Q>  (19) 
0

>  <s_epik_Chemistry_Notes>  (19) 
This compound has an ester and may undergo hydrolysis at high or low pH.

>  <s_lp_Force_Field>  (19) 
OPLS3e

>  <r_lp_Energy>  (19) 
262.912

>  <b_lp_Chiralities_Consistent>  (19) 
1

>  <s_lp_Variant>  (19) 
4:0-1

>  <s_i_glide_gridfile>  (19) 
pfpi4k_grid

>  <i_i_glide_lignum>  (19) 
7

>  <i_i_glide_rotatable_bonds>  (19) 
7

>  <r_i_docking_score>  (19) 
-3.11847

>  <r_i_glide_ligand_efficiency>  (19) 
-0.0799609

>  <r_i_glide_ligand_efficiency_sa>  (19) 
-0.271164

>  <r_i_glide_ligand_efficiency_ln>  (19) 
-0.66869

>  <r_i_glide_gscore>  (19) 
-3.11847

>  <r_i_glide_lipo>  (19) 
-0.0520625

>  <r_i_glide_hbond>  (19) 
-0.666042

>  <r_i_glide_metal>  (19) 
-0

>  <r_i_glide_rewards>  (19) 
-0.017794

>  <r_i_glide_evdw>  (19) 
-21.5615

>  <r_i_glide_ecoul>  (19) 
-9.51989

>  <r_i_glide_erotb>  (19) 
0.137679

>  <r_i_glide_esite>  (19) 
-0.0141955

>  <r_i_glide_emodel>  (19) 
-34.8624

>  <r_i_glide_energy>  (19) 
-31.0814

>  <r_i_glide_einternal>  (19) 
5.60008

>  <r_i_glide_intrahb_reward>  (19) 
-0

>  <i_i_glide_confnum>  (19) 
5

>  <i_i_glide_posenum>  (19) 
30

>  <r_i_glide_eff_state_penalty>  (19) 
0

>  <ligand_id>  (19) 
4

>  <original_smiles>  (19) 
CC(C=O)CC1C(O)C2C3C4OC(=O)C56CC(C)(CC(O)C7OC7(C(C2(C)C)C3(C)O)C1(C)C)C4C(O)C5O6

>  <smiles>  (19) 
[H]OC1([H])C([H])([H])C2(C([H])([H])[H])C([H])([H])C34OC3([H])C([H])(O[H])C2([H])C([H])(OC4=O)C2([H])C3([H])C([H])(O[H])C([H])(C([H])([H])C([H])(C([H])=O)C([H])([H])[H])C(C([H])([H])[H])(C([H])([H])[H])C4(OC14[H])C([H])(C2(O[H])C([H])([H])[H])C3(C([H])([H])[H])C([H])([H])[H]

$$$$
4:0:1
     RDKit          3D

 83 89  0  0  1  0  0  0  0  0999 V2000
    6.1315   -2.3588    1.2940 C   0  0  0  0  0  0  0  0  0  0  0  0
    5.0228   -2.6193    2.3511 C   0  0  2  0  0  0  0  0  0  0  0  0
    4.5815   -1.2598    2.9076 C   0  0  0  0  0  0  0  0  0  0  0  0
    5.4067   -0.3832    3.1505 O   0  0  0  0  0  0  0  0  0  0  0  0
    5.4129   -3.5615    3.5315 C   0  0  0  0  0  0  0  0  0  0  0  0
    6.0235   -4.9823    3.2178 C   0  0  2  0  0  0  0  0  0  0  0  0
    4.9572   -5.7788    2.2853 C   0  0  1  0  0  0  0  0  0  0  0  0
    5.1368   -5.3496    0.9581 O   0  0  0  0  0  0  0  0  0  0  0  0
    4.9515   -7.3530    2.0802 C   0  0  2  0  0  0  0  0  0  0  0  0
    3.9805   -8.1860    3.0252 C   0  0  1  0  0  0  0  0  0  0  0  0
    2.6498   -8.6872    2.4587 C   0  0  2  0  0  0  0  0  0  0  0  0
    2.0263   -7.6089    1.7397 O   0  0  0  0  0  0  0  0  0  0  0  0
    0.6763   -7.3987    1.5877 C   0  0  0  0  0  0  0  0  0  0  0  0
    0.2062   -6.6170    0.7800 O   0  0  0  0  0  0  0  0  0  0  0  0
   -0.2440   -7.9959    2.6287 C   0  0  2  0  0  0  0  0  0  0  0  0
   -0.0192   -7.4864    4.0177 C   0  0  0  0  0  0  0  0  0  0  0  0
    1.1570   -8.3062    4.6950 C   0  0  2  0  0  0  0  0  0  0  0  0
    0.5842   -9.2105    5.8218 C   0  0  0  0  0  0  0  0  0  0  0  0
    2.0193   -7.1949    5.4302 C   0  0  0  0  0  0  0  0  0  0  0  0
    3.2427   -7.3891    6.4172 C   0  0  1  0  0  0  0  0  0  0  0  0
    3.1365   -8.4384    7.3697 O   0  0  0  0  0  0  0  0  0  0  0  0
    4.7008   -6.9227    6.0849 C   0  0  2  0  0  0  0  0  0  0  0  0
    4.5438   -6.1716    4.9282 O   0  0  0  0  0  0  0  0  0  0  0  0
    5.7741   -6.8954    4.8551 C   0  0  2  0  0  0  0  0  0  0  0  0
    6.1053   -8.1939    3.8938 C   0  0  2  0  0  0  0  0  0  0  0  0
    6.3351   -7.9535    2.3217 C   0  0  0  0  0  0  0  0  0  0  0  0
    6.4897   -9.2302    1.4163 C   0  0  0  0  0  0  0  0  0  0  0  0
    7.6038   -7.2264    1.7491 C   0  0  0  0  0  0  0  0  0  0  0  0
    4.8936   -9.1426    3.8812 C   0  0  1  0  0  0  0  0  0  0  0  0
    4.6841   -9.7808    5.2798 C   0  0  0  0  0  0  0  0  0  0  0  0
    4.9278  -10.3925    3.2159 O   0  0  0  0  0  0  0  0  0  0  0  0
    6.6666   -5.7001    4.5488 C   0  0  0  0  0  0  0  0  0  0  0  0
    8.1881   -6.0848    4.5159 C   0  0  0  0  0  0  0  0  0  0  0  0
    6.6917   -4.7359    5.7934 C   0  0  0  0  0  0  0  0  0  0  0  0
    1.7729   -9.3054    3.5682 C   0  0  1  0  0  0  0  0  0  0  0  0
    0.7027  -10.1428    2.7810 C   0  0  1  0  0  0  0  0  0  0  0  0
    0.6420  -11.4308    3.3611 O   0  0  0  0  0  0  0  0  0  0  0  0
   -0.6576   -9.4871    2.8249 C   0  0  2  0  0  0  0  0  0  0  0  0
   -1.3890   -8.5441    2.0176 O   0  0  0  0  0  0  0  0  0  0  0  0
    5.7445   -1.6777    0.5315 H   0  0  0  0  0  0  0  0  0  0  0  0
    6.5151   -3.2625    0.8039 H   0  0  0  0  0  0  0  0  0  0  0  0
    6.9622   -1.8056    1.7341 H   0  0  0  0  0  0  0  0  0  0  0  0
    4.1439   -3.0574    1.8790 H   0  0  0  0  0  0  0  0  0  0  0  0
    3.5206   -1.1135    3.0744 H   0  0  0  0  0  0  0  0  0  0  0  0
    6.0661   -2.9798    4.1729 H   0  0  0  0  0  0  0  0  0  0  0  0
    4.5242   -3.6916    4.1534 H   0  0  0  0  0  0  0  0  0  0  0  0
    6.8491   -4.6970    2.5835 H   0  0  0  0  0  0  0  0  0  0  0  0
    3.9465   -5.4953    2.6022 H   0  0  0  0  0  0  0  0  0  0  0  0
    5.0740   -4.3891    0.9267 H   0  0  0  0  0  0  0  0  0  0  0  0
    4.6435   -7.5991    1.0592 H   0  0  0  0  0  0  0  0  0  0  0  0
    3.5282   -7.4473    3.6125 H   0  0  0  0  0  0  0  0  0  0  0  0
    2.8902   -9.4654    1.7229 H   0  0  0  0  0  0  0  0  0  0  0  0
    0.1934   -6.4050    3.9706 H   0  0  0  0  0  0  0  0  0  0  0  0
   -0.9582   -7.5673    4.5765 H   0  0  0  0  0  0  0  0  0  0  0  0
    1.3568   -9.8423    6.2462 H   0  0  0  0  0  0  0  0  0  0  0  0
   -0.1854   -9.8926    5.4794 H   0  0  0  0  0  0  0  0  0  0  0  0
    0.1507   -8.6322    6.6416 H   0  0  0  0  0  0  0  0  0  0  0  0
    2.2333   -6.3757    4.7462 H   0  0  0  0  0  0  0  0  0  0  0  0
    1.2741   -6.7244    6.0783 H   0  0  0  0  0  0  0  0  0  0  0  0
    3.0019   -6.5892    7.1120 H   0  0  0  0  0  0  0  0  0  0  0  0
    3.1939   -9.2620    6.9319 H   0  0  0  0  0  0  0  0  0  0  0  0
    5.1215   -6.4259    6.9497 H   0  0  0  0  0  0  0  0  0  0  0  0
    6.9736   -8.7078    4.3088 H   0  0  0  0  0  0  0  0  0  0  0  0
    7.0474  -10.0182    1.9211 H   0  0  0  0  0  0  0  0  0  0  0  0
    7.0372   -9.0616    0.4841 H   0  0  0  0  0  0  0  0  0  0  0  0
    5.5436   -9.6215    1.0425 H   0  0  0  0  0  0  0  0  0  0  0  0
    8.4936   -7.8436    1.8959 H   0  0  0  0  0  0  0  0  0  0  0  0
    7.9103   -6.2698    2.1101 H   0  0  0  0  0  0  0  0  0  0  0  0
    7.5226   -7.0425    0.6739 H   0  0  0  0  0  0  0  0  0  0  0  0
    3.6629  -10.0057    5.5367 H   0  0  0  0  0  0  0  0  0  0  0  0
    5.1738   -9.2662    6.0990 H   0  0  0  0  0  0  0  0  0  0  0  0
    5.1986  -10.7454    5.3542 H   0  0  0  0  0  0  0  0  0  0  0  0
    4.9616  -10.2624    2.2912 H   0  0  0  0  0  0  0  0  0  0  0  0
    8.6206   -6.1473    5.5157 H   0  0  0  0  0  0  0  0  0  0  0  0
    8.7845   -5.3392    3.9909 H   0  0  0  0  0  0  0  0  0  0  0  0
    8.4390   -7.0484    4.0865 H   0  0  0  0  0  0  0  0  0  0  0  0
    7.0337   -5.2522    6.6942 H   0  0  0  0  0  0  0  0  0  0  0  0
    5.7167   -4.3136    6.0416 H   0  0  0  0  0  0  0  0  0  0  0  0
    7.3864   -3.9061    5.6837 H   0  0  0  0  0  0  0  0  0  0  0  0
    2.3735  -10.0512    4.0558 H   0  0  0  0  0  0  0  0  0  0  0  0
    0.9739  -10.2765    1.7269 H   0  0  0  0  0  0  0  0  0  0  0  0
    0.1081  -11.4012    4.1389 H   0  0  0  0  0  0  0  0  0  0  0  0
   -1.2743   -9.7577    3.6671 H   0  0  0  0  0  0  0  0  0  0  0  0
  1  2  1  0
  1 40  1  0
  1 41  1  0
  1 42  1  0
  2  3  1  0
  2  5  1  0
  2 43  1  6
  3  4  2  0
  3 44  1  0
  5  6  1  0
  5 45  1  0
  5 46  1  0
  6 32  1  0
  6  7  1  0
  6 47  1  6
  7  8  1  0
  7  9  1  0
  7 48  1  1
  8 49  1  0
  9 26  1  0
  9 10  1  0
  9 50  1  6
 10 29  1  0
 10 11  1  0
 10 51  1  1
 11 35  1  0
 11 12  1  0
 11 52  1  6
 12 13  1  0
 13 14  2  0
 13 15  1  0
 15 38  1  0
 15 39  1  6
 15 16  1  0
 16 17  1  0
 16 53  1  0
 16 54  1  0
 17 18  1  1
 17 19  1  0
 17 35  1  0
 18 55  1  0
 18 56  1  0
 18 57  1  0
 19 20  1  0
 19 58  1  0
 19 59  1  0
 20 21  1  0
 20 22  1  0
 20 60  1  1
 21 61  1  0
 22 24  1  0
 22 23  1  0
 22 62  1  1
 24 23  1  6
 24 25  1  0
 24 32  1  0
 25 26  1  0
 25 29  1  0
 25 63  1  1
 26 27  1  0
 26 28  1  0
 27 64  1  0
 27 65  1  0
 27 66  1  0
 28 67  1  0
 28 68  1  0
 28 69  1  0
 29 30  1  0
 29 31  1  6
 30 70  1  0
 30 71  1  0
 30 72  1  0
 31 73  1  0
 32 33  1  0
 32 34  1  0
 33 74  1  0
 33 75  1  0
 33 76  1  0
 34 77  1  0
 34 78  1  0
 34 79  1  0
 35 36  1  0
 35 80  1  1
 36 37  1  0
 36 38  1  0
 36 81  1  6
 37 82  1  0
 38 39  1  0
 38 83  1  1
M  END
>  <i_m_ct_stereo_status>  (20) 
1

>  <s_m_source_file>  (20) 
/var/tmp/pbs.5076255.sched01/tmpm7cr0ro2/0ctwvxj2z.sdf

>  <i_m_source_file_index>  (20) 
7

>  <i_lp_mmshare_version>  (20) 
48012

>  <i_f3d_flags>  (20) 
0

>  <s_epik_input>  (20) 
W0NIMl0xW0NAXTIoW0NIM10pW0NIMl1bQ0BASF0oW09IXSlbQ0BIXShPMylbQ0BdMyhbQ0BIXShDNChbQ0gzXSlbQ0gzXSlbQ0BdNShbQ0gzXSlbT0hdKUMoW0NIM10pKFtDSDNdKVtDQEhdKFtDSDJdW0NASF0oW0NIM10pW0NIXT1PKVtDQEBIXShbT0hdKVtDQEBIXTRbQ0BIXTVbQ0BIXShPQzY9TylbQ0BASF0yW0NAQEhdKFtPSF0pW0NAQEhdKFtDQEBdMTY3KU83

>  <s_epik_cmdline>  (20) 
J2VwaWtfcHl0aG9uJywgJy1waHQnLCAnMi4wJywgJy1waCcsICc3LjAnLCAnLXRuJywgJzgnLCAnLW1hJywgJzIwMCcsICctaW1hZScsICc8aW5maWxlLm1hZT4nLCAnLW9tYWUnLCAnPG91dGZpbGUubWFlPic=

>  <r_lp_tautomer_probability>  (20) 
1

>  <r_epik_Ionization_Penalty>  (20) 
6.1017e-07

>  <r_epik_Ionization_Penalty_Charging>  (20) 
0

>  <r_epik_Ionization_Penalty_Neutral>  (20) 
6.1017e-07

>  <r_epik_State_Penalty>  (20) 
-0

>  <r_epik_Charging_Adjusted_Penalty>  (20) 
0

>  <i_epik_Tot_Q>  (20) 
0

>  <i_epik_Tot_abs_Q>  (20) 
0

>  <s_epik_Chemistry_Notes>  (20) 
This compound has an ester and may undergo hydrolysis at high or low pH.

>  <s_lp_Force_Field>  (20) 
OPLS3e

>  <r_lp_Energy>  (20) 
262.912

>  <b_lp_Chiralities_Consistent>  (20) 
1

>  <s_lp_Variant>  (20) 
4:0-1

>  <s_i_glide_gridfile>  (20) 
pfpi4k_grid

>  <i_i_glide_lignum>  (20) 
7

>  <i_i_glide_rotatable_bonds>  (20) 
7

>  <r_i_docking_score>  (20) 
-2.79138

>  <r_i_glide_ligand_efficiency>  (20) 
-0.0715739

>  <r_i_glide_ligand_efficiency_sa>  (20) 
-0.242722

>  <r_i_glide_ligand_efficiency_ln>  (20) 
-0.598552

>  <r_i_glide_gscore>  (20) 
-2.79138

>  <r_i_glide_lipo>  (20) 
-0.511559

>  <r_i_glide_hbond>  (20) 
-0.16

>  <r_i_glide_metal>  (20) 
-0

>  <r_i_glide_rewards>  (20) 
-0.069174

>  <r_i_glide_evdw>  (20) 
-27.9947

>  <r_i_glide_ecoul>  (20) 
-4.82572

>  <r_i_glide_erotb>  (20) 
0.137679

>  <r_i_glide_esite>  (20) 
-0.0647374

>  <r_i_glide_emodel>  (20) 
-36.5469

>  <r_i_glide_energy>  (20) 
-32.8204

>  <r_i_glide_einternal>  (20) 
3.79358

>  <r_i_glide_intrahb_reward>  (20) 
-0

>  <i_i_glide_confnum>  (20) 
2

>  <i_i_glide_posenum>  (20) 
8

>  <r_i_glide_eff_state_penalty>  (20) 
0

>  <ligand_id>  (20) 
4

>  <original_smiles>  (20) 
CC(C=O)CC1C(O)C2C3C4OC(=O)C56CC(C)(CC(O)C7OC7(C(C2(C)C)C3(C)O)C1(C)C)C4C(O)C5O6

>  <smiles>  (20) 
[H]OC1([H])C([H])([H])C2(C([H])([H])[H])C([H])([H])C34OC3([H])C([H])(O[H])C2([H])C([H])(OC4=O)C2([H])C3([H])C([H])(O[H])C([H])(C([H])([H])C([H])(C([H])=O)C([H])([H])[H])C(C([H])([H])[H])(C([H])([H])[H])C4(OC14[H])C([H])(C2(O[H])C([H])([H])[H])C3(C([H])([H])[H])C([H])([H])[H]

$$$$
4:0:2
     RDKit          3D

 83 89  0  0  1  0  0  0  0  0999 V2000
    5.9470   -2.5354    1.4439 C   0  0  0  0  0  0  0  0  0  0  0  0
    4.9764   -2.7213    2.6462 C   0  0  2  0  0  0  0  0  0  0  0  0
    4.6311   -1.3414    3.2326 C   0  0  0  0  0  0  0  0  0  0  0  0
    5.4540   -0.4270    3.2324 O   0  0  0  0  0  0  0  0  0  0  0  0
    5.4569   -3.6662    3.7865 C   0  0  0  0  0  0  0  0  0  0  0  0
    6.0867   -5.0605    3.4162 C   0  0  2  0  0  0  0  0  0  0  0  0
    5.0629   -5.8503    2.4134 C   0  0  1  0  0  0  0  0  0  0  0  0
    5.2357   -5.3714    1.1162 O   0  0  0  0  0  0  0  0  0  0  0  0
    5.0299   -7.4252    2.1695 C   0  0  2  0  0  0  0  0  0  0  0  0
    4.0427   -8.2772    3.0813 C   0  0  1  0  0  0  0  0  0  0  0  0
    2.7145   -8.7669    2.4836 C   0  0  2  0  0  0  0  0  0  0  0  0
    2.0884   -7.6564    1.8286 O   0  0  0  0  0  0  0  0  0  0  0  0
    0.7437   -7.4745    1.6295 C   0  0  0  0  0  0  0  0  0  0  0  0
    0.2972   -6.7553    0.7574 O   0  0  0  0  0  0  0  0  0  0  0  0
   -0.2110   -8.0858    2.6556 C   0  0  2  0  0  0  0  0  0  0  0  0
    0.0300   -7.6343    4.0760 C   0  0  0  0  0  0  0  0  0  0  0  0
    1.1959   -8.4950    4.7219 C   0  0  2  0  0  0  0  0  0  0  0  0
    0.6239   -9.4529    5.8057 C   0  0  0  0  0  0  0  0  0  0  0  0
    2.0690   -7.4085    5.5034 C   0  0  0  0  0  0  0  0  0  0  0  0
    3.2932   -7.6326    6.4906 C   0  0  1  0  0  0  0  0  0  0  0  0
    3.1776   -8.7177    7.3839 O   0  0  0  0  0  0  0  0  0  0  0  0
    4.7526   -7.1391    6.1790 C   0  0  2  0  0  0  0  0  0  0  0  0
    4.6070   -6.3408    5.0541 O   0  0  0  0  0  0  0  0  0  0  0  0
    5.8366   -7.0633    4.9698 C   0  0  2  0  0  0  0  0  0  0  0  0
    6.1787   -8.3261    3.9501 C   0  0  2  0  0  0  0  0  0  0  0  0
    6.4136   -8.0281    2.3850 C   0  0  0  0  0  0  0  0  0  0  0  0
    6.5749   -9.2630    1.4176 C   0  0  0  0  0  0  0  0  0  0  0  0
    7.6770   -7.2544    1.8583 C   0  0  0  0  0  0  0  0  0  0  0  0
    4.9577   -9.2750    3.8918 C   0  0  1  0  0  0  0  0  0  0  0  0
    4.7431   -9.9758    5.2621 C   0  0  0  0  0  0  0  0  0  0  0  0
    4.9961  -10.5029    3.1736 O   0  0  0  0  0  0  0  0  0  0  0  0
    6.7286   -5.8394    4.7110 C   0  0  0  0  0  0  0  0  0  0  0  0
    8.2541   -6.2154    4.6742 C   0  0  0  0  0  0  0  0  0  0  0  0
    6.7464   -4.9262    5.9925 C   0  0  0  0  0  0  0  0  0  0  0  0
    1.8173   -9.4416    3.5548 C   0  0  1  0  0  0  0  0  0  0  0  0
    0.7461  -10.2554    2.7406 C   0  0  1  0  0  0  0  0  0  0  0  0
    0.6819  -11.5728    3.2657 O   0  0  0  0  0  0  0  0  0  0  0  0
   -0.6000   -9.5629    2.8107 C   0  0  2  0  0  0  0  0  0  0  0  0
   -1.3462   -8.6361    2.0074 O   0  0  0  0  0  0  0  0  0  0  0  0
    5.4820   -1.8694    0.7103 H   0  0  0  0  0  0  0  0  0  0  0  0
    6.2174   -3.4278    0.9392 H   0  0  0  0  0  0  0  0  0  0  0  0
    6.8779   -2.0612    1.7560 H   0  0  0  0  0  0  0  0  0  0  0  0
    4.0283   -3.1297    2.2972 H   0  0  0  0  0  0  0  0  0  0  0  0
    3.6241   -1.1979    3.6406 H   0  0  0  0  0  0  0  0  0  0  0  0
    6.1637   -3.0997    4.3862 H   0  0  0  0  0  0  0  0  0  0  0  0
    4.6245   -3.8278    4.4709 H   0  0  0  0  0  0  0  0  0  0  0  0
    6.9306   -4.7211    2.8392 H   0  0  0  0  0  0  0  0  0  0  0  0
    4.0546   -5.5542    2.6917 H   0  0  0  0  0  0  0  0  0  0  0  0
    6.1368   -5.5488    0.8560 H   0  0  0  0  0  0  0  0  0  0  0  0
    4.7064   -7.6601    1.1566 H   0  0  0  0  0  0  0  0  0  0  0  0
    3.6064   -7.5626    3.6996 H   0  0  0  0  0  0  0  0  0  0  0  0
    2.9605   -9.5012    1.7128 H   0  0  0  0  0  0  0  0  0  0  0  0
    0.2589   -6.5626    4.0635 H   0  0  0  0  0  0  0  0  0  0  0  0
   -0.8954   -7.7317    4.6338 H   0  0  0  0  0  0  0  0  0  0  0  0
    1.3889  -10.1215    6.2041 H   0  0  0  0  0  0  0  0  0  0  0  0
   -0.1452  -10.1259    5.4433 H   0  0  0  0  0  0  0  0  0  0  0  0
    0.1860   -8.9216    6.6516 H   0  0  0  0  0  0  0  0  0  0  0  0
    2.2808   -6.5656    4.8491 H   0  0  0  0  0  0  0  0  0  0  0  0
    1.3216   -6.9527    6.1564 H   0  0  0  0  0  0  0  0  0  0  0  0
    3.0431   -6.8641    7.2269 H   0  0  0  0  0  0  0  0  0  0  0  0
    3.1729   -9.5254    6.8920 H   0  0  0  0  0  0  0  0  0  0  0  0
    5.1640   -6.6777    7.0704 H   0  0  0  0  0  0  0  0  0  0  0  0
    7.0466   -8.8671    4.3408 H   0  0  0  0  0  0  0  0  0  0  0  0
    7.1433  -10.0677    1.8859 H   0  0  0  0  0  0  0  0  0  0  0  0
    7.1049   -9.0566    0.4851 H   0  0  0  0  0  0  0  0  0  0  0  0
    5.6277   -9.6535    1.0390 H   0  0  0  0  0  0  0  0  0  0  0  0
    8.5794   -7.8561    1.9945 H   0  0  0  0  0  0  0  0  0  0  0  0
    7.9353   -6.3033    2.2639 H   0  0  0  0  0  0  0  0  0  0  0  0
    7.6146   -7.0409    0.7898 H   0  0  0  0  0  0  0  0  0  0  0  0
    3.7151  -10.2022    5.4990 H   0  0  0  0  0  0  0  0  0  0  0  0
    5.2278   -9.4790    6.0951 H   0  0  0  0  0  0  0  0  0  0  0  0
    5.2499  -10.9402    5.3042 H   0  0  0  0  0  0  0  0  0  0  0  0
    4.9711  -10.3306    2.2452 H   0  0  0  0  0  0  0  0  0  0  0  0
    8.6859   -6.3289    5.6764 H   0  0  0  0  0  0  0  0  0  0  0  0
    8.8511   -5.4477    4.1888 H   0  0  0  0  0  0  0  0  0  0  0  0
    8.4968   -7.1626    4.2003 H   0  0  0  0  0  0  0  0  0  0  0  0
    7.0924   -5.4604    6.8827 H   0  0  0  0  0  0  0  0  0  0  0  0
    5.7765   -4.5104    6.2693 H   0  0  0  0  0  0  0  0  0  0  0  0
    7.4288   -4.0805    5.8911 H   0  0  0  0  0  0  0  0  0  0  0  0
    2.4193  -10.2128    4.0039 H   0  0  0  0  0  0  0  0  0  0  0  0
    1.0117  -10.3138    1.6912 H   0  0  0  0  0  0  0  0  0  0  0  0
    1.4862  -12.0312    3.0655 H   0  0  0  0  0  0  0  0  0  0  0  0
   -1.1971   -9.8680    3.6582 H   0  0  0  0  0  0  0  0  0  0  0  0
  1  2  1  0
  1 40  1  0
  1 41  1  0
  1 42  1  0
  2  3  1  0
  2  5  1  0
  2 43  1  6
  3  4  2  0
  3 44  1  0
  5  6  1  0
  5 45  1  0
  5 46  1  0
  6 32  1  0
  6  7  1  0
  6 47  1  6
  7  8  1  0
  7  9  1  0
  7 48  1  1
  8 49  1  0
  9 26  1  0
  9 10  1  0
  9 50  1  6
 10 29  1  0
 10 11  1  0
 10 51  1  1
 11 35  1  0
 11 12  1  0
 11 52  1  6
 12 13  1  0
 13 14  2  0
 13 15  1  0
 15 38  1  0
 15 39  1  6
 15 16  1  0
 16 17  1  0
 16 53  1  0
 16 54  1  0
 17 18  1  1
 17 19  1  0
 17 35  1  0
 18 55  1  0
 18 56  1  0
 18 57  1  0
 19 20  1  0
 19 58  1  0
 19 59  1  0
 20 21  1  0
 20 22  1  0
 20 60  1  1
 21 61  1  0
 22 24  1  0
 22 23  1  0
 22 62  1  1
 24 23  1  6
 24 25  1  0
 24 32  1  0
 25 26  1  0
 25 29  1  0
 25 63  1  1
 26 27  1  0
 26 28  1  0
 27 64  1  0
 27 65  1  0
 27 66  1  0
 28 67  1  0
 28 68  1  0
 28 69  1  0
 29 30  1  0
 29 31  1  6
 30 70  1  0
 30 71  1  0
 30 72  1  0
 31 73  1  0
 32 33  1  0
 32 34  1  0
 33 74  1  0
 33 75  1  0
 33 76  1  0
 34 77  1  0
 34 78  1  0
 34 79  1  0
 35 36  1  0
 35 80  1  1
 36 37  1  0
 36 38  1  0
 36 81  1  6
 37 82  1  0
 38 39  1  0
 38 83  1  1
M  END
>  <i_m_ct_stereo_status>  (21) 
1

>  <s_m_source_file>  (21) 
/var/tmp/pbs.5076255.sched01/tmpm7cr0ro2/0ctwvxj2z.sdf

>  <i_m_source_file_index>  (21) 
7

>  <i_lp_mmshare_version>  (21) 
48012

>  <i_f3d_flags>  (21) 
0

>  <s_epik_input>  (21) 
W0NIMl0xW0NAXTIoW0NIM10pW0NIMl1bQ0BASF0oW09IXSlbQ0BIXShPMylbQ0BdMyhbQ0BIXShDNChbQ0gzXSlbQ0gzXSlbQ0BdNShbQ0gzXSlbT0hdKUMoW0NIM10pKFtDSDNdKVtDQEhdKFtDSDJdW0NASF0oW0NIM10pW0NIXT1PKVtDQEBIXShbT0hdKVtDQEBIXTRbQ0BIXTVbQ0BIXShPQzY9TylbQ0BASF0yW0NAQEhdKFtPSF0pW0NAQEhdKFtDQEBdMTY3KU83

>  <s_epik_cmdline>  (21) 
J2VwaWtfcHl0aG9uJywgJy1waHQnLCAnMi4wJywgJy1waCcsICc3LjAnLCAnLXRuJywgJzgnLCAnLW1hJywgJzIwMCcsICctaW1hZScsICc8aW5maWxlLm1hZT4nLCAnLW9tYWUnLCAnPG91dGZpbGUubWFlPic=

>  <r_lp_tautomer_probability>  (21) 
1

>  <r_epik_Ionization_Penalty>  (21) 
6.1017e-07

>  <r_epik_Ionization_Penalty_Charging>  (21) 
0

>  <r_epik_Ionization_Penalty_Neutral>  (21) 
6.1017e-07

>  <r_epik_State_Penalty>  (21) 
-0

>  <r_epik_Charging_Adjusted_Penalty>  (21) 
0

>  <i_epik_Tot_Q>  (21) 
0

>  <i_epik_Tot_abs_Q>  (21) 
0

>  <s_epik_Chemistry_Notes>  (21) 
This compound has an ester and may undergo hydrolysis at high or low pH.

>  <s_lp_Force_Field>  (21) 
OPLS3e

>  <r_lp_Energy>  (21) 
262.912

>  <b_lp_Chiralities_Consistent>  (21) 
1

>  <s_lp_Variant>  (21) 
4:0-1

>  <s_i_glide_gridfile>  (21) 
pfpi4k_grid

>  <i_i_glide_lignum>  (21) 
7

>  <i_i_glide_rotatable_bonds>  (21) 
7

>  <r_i_docking_score>  (21) 
-2.71674

>  <r_i_glide_ligand_efficiency>  (21) 
-0.0696601

>  <r_i_glide_ligand_efficiency_sa>  (21) 
-0.236232

>  <r_i_glide_ligand_efficiency_ln>  (21) 
-0.582547

>  <r_i_glide_gscore>  (21) 
-2.71674

>  <r_i_glide_lipo>  (21) 
-0.491329

>  <r_i_glide_hbond>  (21) 
-0.119802

>  <r_i_glide_metal>  (21) 
-0

>  <r_i_glide_rewards>  (21) 
-0.0678888

>  <r_i_glide_evdw>  (21) 
-27.0058

>  <r_i_glide_ecoul>  (21) 
-5.09323

>  <r_i_glide_erotb>  (21) 
0.137679

>  <r_i_glide_esite>  (21) 
-0.0611282

>  <r_i_glide_emodel>  (21) 
-34.7815

>  <r_i_glide_energy>  (21) 
-32.0991

>  <r_i_glide_einternal>  (21) 
4.4087

>  <r_i_glide_intrahb_reward>  (21) 
-0

>  <i_i_glide_confnum>  (21) 
2

>  <i_i_glide_posenum>  (21) 
17

>  <r_i_glide_eff_state_penalty>  (21) 
0

>  <ligand_id>  (21) 
4

>  <original_smiles>  (21) 
CC(C=O)CC1C(O)C2C3C4OC(=O)C56CC(C)(CC(O)C7OC7(C(C2(C)C)C3(C)O)C1(C)C)C4C(O)C5O6

>  <smiles>  (21) 
[H]OC1([H])C([H])([H])C2(C([H])([H])[H])C([H])([H])C34OC3([H])C([H])(O[H])C2([H])C([H])(OC4=O)C2([H])C3([H])C([H])(O[H])C([H])(C([H])([H])C([H])(C([H])=O)C([H])([H])[H])C(C([H])([H])[H])(C([H])([H])[H])C4(OC14[H])C([H])(C2(O[H])C([H])([H])[H])C3(C([H])([H])[H])C([H])([H])[H]

$$$$
5:0:0
     RDKit          3D

 45 49  0  0  1  0  0  0  0  0999 V2000
    2.2186   -3.0161   -2.4399 C   0  0  0  0  0  0  0  0  0  0  0  0
    2.6530   -2.6788   -1.0616 N   0  0  1  0  0  0  0  0  0  0  0  0
    2.5555   -3.8418   -0.1388 C   0  0  0  0  0  0  0  0  0  0  0  0
    3.8632   -4.6544   -0.0702 C   0  0  0  0  0  0  0  0  0  0  0  0
    5.1141   -3.7696    0.1969 C   0  0  1  0  0  0  0  0  0  0  0  0
    4.8531   -3.0264    1.4737 C   0  0  0  0  0  0  0  0  0  0  0  0
    4.2117   -1.7817    1.6202 C   0  0  0  0  0  0  0  0  0  0  0  0
    3.9613   -1.3621    2.9405 C   0  0  0  0  0  0  0  0  0  0  0  0
    4.3457   -2.1950    4.0236 C   0  0  0  0  0  0  0  0  0  0  0  0
    5.0179   -3.4223    3.8006 C   0  0  0  0  0  0  0  0  0  0  0  0
    5.4080   -4.1916    4.8562 O   0  0  0  0  0  0  0  0  0  0  0  0
    5.3099   -3.8402    2.4871 C   0  0  0  0  0  0  0  0  0  0  0  0
    5.9895   -4.9405    2.0390 O   0  0  0  0  0  0  0  0  0  0  0  0
    6.3022   -4.7076    0.6437 C   0  0  2  0  0  0  0  0  0  0  0  0
    7.7324   -4.0968    0.6806 C   0  0  1  0  0  0  0  0  0  0  0  0
    8.6260   -5.0576    1.1966 O   0  0  0  0  0  0  0  0  0  0  0  0
    8.2793   -3.6409   -0.6470 C   0  0  0  0  0  0  0  0  0  0  0  0
    7.7528   -2.6641   -1.3930 C   0  0  0  0  0  0  0  0  0  0  0  0
    6.4851   -1.9146   -1.0416 C   0  0  0  0  0  0  0  0  0  0  0  0
    5.2159   -2.7930   -1.0155 C   0  0  1  0  0  0  0  0  0  0  0  0
    5.2345   -3.4538   -2.2739 O   0  0  0  0  0  0  0  0  0  0  0  0
    3.9317   -1.8996   -0.9610 C   0  0  2  0  0  0  0  0  0  0  0  0
    3.9117   -1.0366    0.3219 C   0  0  0  0  0  0  0  0  0  0  0  0
    2.7932   -3.8430   -2.8564 H   0  0  0  0  0  0  0  0  0  0  0  0
    2.3063   -2.1532   -3.1005 H   0  0  0  0  0  0  0  0  0  0  0  0
    1.1739   -3.3230   -2.4283 H   0  0  0  0  0  0  0  0  0  0  0  0
    2.2792   -3.4953    0.8572 H   0  0  0  0  0  0  0  0  0  0  0  0
    1.7421   -4.4968   -0.4523 H   0  0  0  0  0  0  0  0  0  0  0  0
    3.7449   -5.4256    0.6925 H   0  0  0  0  0  0  0  0  0  0  0  0
    4.0212   -5.1991   -0.9963 H   0  0  0  0  0  0  0  0  0  0  0  0
    3.4713   -0.4135    3.1244 H   0  0  0  0  0  0  0  0  0  0  0  0
    4.1391   -1.8792    5.0302 H   0  0  0  0  0  0  0  0  0  0  0  0
    5.8353   -4.9887    4.5845 H   0  0  0  0  0  0  0  0  0  0  0  0
    6.3034   -5.6439    0.0778 H   0  0  0  0  0  0  0  0  0  0  0  0
    7.7564   -3.2274    1.3302 H   0  0  0  0  0  0  0  0  0  0  0  0
    8.3628   -5.2650    2.0818 H   0  0  0  0  0  0  0  0  0  0  0  0
    9.1840   -4.1193   -0.9934 H   0  0  0  0  0  0  0  0  0  0  0  0
    8.2527   -2.4049   -2.3158 H   0  0  0  0  0  0  0  0  0  0  0  0
    6.6498   -1.3937   -0.0960 H   0  0  0  0  0  0  0  0  0  0  0  0
    6.3106   -1.1577   -1.8038 H   0  0  0  0  0  0  0  0  0  0  0  0
    4.5435   -4.0996   -2.3077 H   0  0  0  0  0  0  0  0  0  0  0  0
    3.9351   -1.2044   -1.7999 H   0  0  0  0  0  0  0  0  0  0  0  0
    2.9534   -0.5260    0.4241 H   0  0  0  0  0  0  0  0  0  0  0  0
    4.6540   -0.2490    0.2286 H   0  0  0  0  0  0  0  0  0  0  0  0
    1.9296   -2.0027   -0.7724 H   0  0  0  0  0  0  0  0  0  0  0  0
  1  2  1  0
  1 24  1  0
  1 25  1  0
  1 26  1  0
  2 22  1  0
  2  3  1  0
  2 45  1  1
  3  4  1  0
  3 27  1  0
  3 28  1  0
  5  4  1  6
  4 29  1  0
  4 30  1  0
  5 14  1  0
  5 20  1  0
  5  6  1  0
  6 12  2  0
  6  7  1  0
  7 23  1  0
  7  8  2  0
  8  9  1  0
  8 31  1  0
  9 10  2  0
  9 32  1  0
 10 11  1  0
 10 12  1  0
 11 33  1  0
 12 13  1  0
 13 14  1  0
 14 15  1  0
 14 34  1  6
 15 16  1  0
 15 17  1  0
 15 35  1  1
 16 36  1  0
 17 18  2  0
 17 37  1  0
 18 19  1  0
 18 38  1  0
 19 20  1  0
 19 39  1  0
 19 40  1  0
 20 21  1  6
 20 22  1  0
 21 41  1  0
 22 23  1  0
 22 42  1  6
 23 43  1  0
 23 44  1  0
M  CHG  1   2   1
M  END
>  <i_m_ct_stereo_status>  (22) 
1

>  <s_m_source_file>  (22) 
/var/tmp/pbs.5076255.sched01/tmpm7cr0ro2/0ctwvxj2z.sdf

>  <i_m_source_file_index>  (22) 
8

>  <i_lp_mmshare_version>  (22) 
48012

>  <i_f3d_flags>  (22) 
0

>  <s_epik_input>  (22) 
W0NIMl0xW0NIMl1OKFtDSDNdKVtDQEBIXShbQ0gyXTIpW0NAQF0zKFtPSF0pW0NIMl1bQ0hdPVtDSF1bQ0BIXShbT0hdKVtDQEhdNE9jNWMoW09IXSlbY0hdW2NIXWMyYzVbQ0BAXTEzNA==

>  <s_epik_cmdline>  (22) 
J2VwaWtfcHl0aG9uJywgJy1waHQnLCAnMi4wJywgJy1waCcsICc3LjAnLCAnLXRuJywgJzgnLCAnLW1hJywgJzIwMCcsICctaW1hZScsICc8aW5maWxlLm1hZT4nLCAnLW9tYWUnLCAnPG91dGZpbGUubWFlPic=

>  <r_lp_tautomer_probability>  (22) 
1

>  <r_epik_Ionization_Penalty>  (22) 
0.11127

>  <r_epik_Ionization_Penalty_Charging>  (22) 
0.0988674

>  <r_epik_Ionization_Penalty_Neutral>  (22) 
0.0124027

>  <r_epik_State_Penalty>  (22) 
0.0972072

>  <r_epik_Charging_Adjusted_Penalty>  (22) 
0.196075

>  <i_epik_Tot_Q>  (22) 
1

>  <i_epik_Tot_abs_Q>  (22) 
1

>  <s_lp_Force_Field>  (22) 
OPLS3e

>  <r_lp_Energy>  (22) 
61.1066

>  <b_lp_Chiralities_Consistent>  (22) 
1

>  <s_lp_Variant>  (22) 
5:0-1

>  <s_i_glide_gridfile>  (22) 
pfpi4k_grid

>  <i_i_glide_lignum>  (22) 
8

>  <i_i_glide_rotatable_bonds>  (22) 
3

>  <r_i_docking_score>  (22) 
-4.60771

>  <r_i_glide_ligand_efficiency>  (22) 
-0.200335

>  <r_i_glide_ligand_efficiency_sa>  (22) 
-0.569726

>  <r_i_glide_ligand_efficiency_ln>  (22) 
-1.11419

>  <r_i_glide_gscore>  (22) 
-4.60771

>  <r_i_glide_lipo>  (22) 
-0.583756

>  <r_i_glide_hbond>  (22) 
-0.2

>  <r_i_glide_metal>  (22) 
-0

>  <r_i_glide_rewards>  (22) 
-1.25201

>  <r_i_glide_evdw>  (22) 
-20.5615

>  <r_i_glide_ecoul>  (22) 
-9.92631

>  <r_i_glide_erotb>  (22) 
0

>  <r_i_glide_esite>  (22) 
-0.0549163

>  <r_i_glide_emodel>  (22) 
-39.3749

>  <r_i_glide_energy>  (22) 
-30.4878

>  <r_i_glide_einternal>  (22) 
0.493834

>  <r_i_glide_intrahb_reward>  (22) 
-0

>  <i_i_glide_confnum>  (22) 
2

>  <i_i_glide_posenum>  (22) 
8

>  <r_i_glide_eff_state_penalty>  (22) 
0

>  <ligand_id>  (22) 
5

>  <original_smiles>  (22) 
CN1CCC23c4c5ccc(O)c4OC2C(O)C=CCC3(O)C1C5

>  <smiles>  (22) 
[H]Oc1c([H])c([H])c2c3c1OC1([H])C([H])(O[H])C([H])=C([H])C([H])([H])C4(O[H])C31C([H])([H])C([H])([H])[N+]([H])(C([H])([H])[H])C4([H])C2([H])[H]

$$$$
5:0:1
     RDKit          3D

 45 49  0  0  1  0  0  0  0  0999 V2000
    2.2006   -3.1156   -2.3855 C   0  0  0  0  0  0  0  0  0  0  0  0
    2.6449   -2.6731   -1.0468 N   0  0  1  0  0  0  0  0  0  0  0  0
    2.4916   -3.7296   -0.0165 C   0  0  0  0  0  0  0  0  0  0  0  0
    3.7529   -4.5979    0.1527 C   0  0  0  0  0  0  0  0  0  0  0  0
    5.0439   -3.7440    0.3474 C   0  0  1  0  0  0  0  0  0  0  0  0
    4.8051   -2.8479    1.5318 C   0  0  0  0  0  0  0  0  0  0  0  0
    4.2267   -1.5636    1.5349 C   0  0  0  0  0  0  0  0  0  0  0  0
    3.9884   -0.9852    2.7946 C   0  0  0  0  0  0  0  0  0  0  0  0
    4.3296   -1.7035    3.9677 C   0  0  0  0  0  0  0  0  0  0  0  0
    4.9440   -2.9803    3.8934 C   0  0  0  0  0  0  0  0  0  0  0  0
    5.2790   -3.6469    5.0336 O   0  0  0  0  0  0  0  0  0  0  0  0
    5.2187   -3.5598    2.6373 C   0  0  0  0  0  0  0  0  0  0  0  0
    5.8348   -4.7390    2.3230 O   0  0  0  0  0  0  0  0  0  0  0  0
    6.1780   -4.6780    0.9165 C   0  0  2  0  0  0  0  0  0  0  0  0
    7.6385   -4.1395    0.9064 C   0  0  1  0  0  0  0  0  0  0  0  0
    8.4862   -5.0773    1.5358 O   0  0  0  0  0  0  0  0  0  0  0  0
    8.2207   -3.8566   -0.4521 C   0  0  0  0  0  0  0  0  0  0  0  0
    7.7509   -2.9452   -1.3066 C   0  0  0  0  0  0  0  0  0  0  0  0
    6.5209   -2.1056   -1.0608 C   0  0  0  0  0  0  0  0  0  0  0  0
    5.2047   -2.9128   -0.9588 C   0  0  1  0  0  0  0  0  0  0  0  0
    5.2010   -3.7200   -2.1292 O   0  0  0  0  0  0  0  0  0  0  0  0
    3.9604   -1.9564   -1.0201 C   0  0  2  0  0  0  0  0  0  0  0  0
    3.9712   -0.9571    0.1600 C   0  0  0  0  0  0  0  0  0  0  0  0
    2.7707   -3.9736   -2.7128 H   0  0  0  0  0  0  0  0  0  0  0  0
    2.3276   -2.3414   -3.1426 H   0  0  0  0  0  0  0  0  0  0  0  0
    1.1496   -3.4086   -2.3544 H   0  0  0  0  0  0  0  0  0  0  0  0
    2.2334   -3.2706    0.9377 H   0  0  0  0  0  0  0  0  0  0  0  0
    1.6611   -4.3836   -0.2737 H   0  0  0  0  0  0  0  0  0  0  0  0
    3.5934   -5.2629    1.0085 H   0  0  0  0  0  0  0  0  0  0  0  0
    3.8555   -5.2731   -0.7006 H   0  0  0  0  0  0  0  0  0  0  0  0
    3.5357   -0.0026    2.8656 H   0  0  0  0  0  0  0  0  0  0  0  0
    4.1237   -1.2718    4.9319 H   0  0  0  0  0  0  0  0  0  0  0  0
    5.6296   -4.5074    4.8581 H   0  0  0  0  0  0  0  0  0  0  0  0
    6.1418   -5.6693    0.4572 H   0  0  0  0  0  0  0  0  0  0  0  0
    7.6957   -3.2028    1.4554 H   0  0  0  0  0  0  0  0  0  0  0  0
    8.2301   -5.9527    1.2856 H   0  0  0  0  0  0  0  0  0  0  0  0
    9.1051   -4.4078   -0.7312 H   0  0  0  0  0  0  0  0  0  0  0  0
    8.2672   -2.7989   -2.2448 H   0  0  0  0  0  0  0  0  0  0  0  0
    6.6954   -1.4817   -0.1841 H   0  0  0  0  0  0  0  0  0  0  0  0
    6.4291   -1.4485   -1.9198 H   0  0  0  0  0  0  0  0  0  0  0  0
    4.5067   -4.3627   -2.0798 H   0  0  0  0  0  0  0  0  0  0  0  0
    4.0079   -1.3604   -1.9338 H   0  0  0  0  0  0  0  0  0  0  0  0
    3.0344   -0.3994    0.1884 H   0  0  0  0  0  0  0  0  0  0  0  0
    4.7505   -0.2181   -0.0127 H   0  0  0  0  0  0  0  0  0  0  0  0
    1.9459   -1.9524   -0.8245 H   0  0  0  0  0  0  0  0  0  0  0  0
  1  2  1  0
  1 24  1  0
  1 25  1  0
  1 26  1  0
  2 22  1  0
  2  3  1  0
  2 45  1  1
  3  4  1  0
  3 27  1  0
  3 28  1  0
  5  4  1  6
  4 29  1  0
  4 30  1  0
  5 14  1  0
  5 20  1  0
  5  6  1  0
  6 12  2  0
  6  7  1  0
  7 23  1  0
  7  8  2  0
  8  9  1  0
  8 31  1  0
  9 10  2  0
  9 32  1  0
 10 11  1  0
 10 12  1  0
 11 33  1  0
 12 13  1  0
 13 14  1  0
 14 15  1  0
 14 34  1  6
 15 16  1  0
 15 17  1  0
 15 35  1  1
 16 36  1  0
 17 18  2  0
 17 37  1  0
 18 19  1  0
 18 38  1  0
 19 20  1  0
 19 39  1  0
 19 40  1  0
 20 21  1  6
 20 22  1  0
 21 41  1  0
 22 23  1  0
 22 42  1  6
 23 43  1  0
 23 44  1  0
M  CHG  1   2   1
M  END
>  <i_m_ct_stereo_status>  (23) 
1

>  <s_m_source_file>  (23) 
/var/tmp/pbs.5076255.sched01/tmpm7cr0ro2/0ctwvxj2z.sdf

>  <i_m_source_file_index>  (23) 
8

>  <i_lp_mmshare_version>  (23) 
48012

>  <i_f3d_flags>  (23) 
0

>  <s_epik_input>  (23) 
W0NIMl0xW0NIMl1OKFtDSDNdKVtDQEBIXShbQ0gyXTIpW0NAQF0zKFtPSF0pW0NIMl1bQ0hdPVtDSF1bQ0BIXShbT0hdKVtDQEhdNE9jNWMoW09IXSlbY0hdW2NIXWMyYzVbQ0BAXTEzNA==

>  <s_epik_cmdline>  (23) 
J2VwaWtfcHl0aG9uJywgJy1waHQnLCAnMi4wJywgJy1waCcsICc3LjAnLCAnLXRuJywgJzgnLCAnLW1hJywgJzIwMCcsICctaW1hZScsICc8aW5maWxlLm1hZT4nLCAnLW9tYWUnLCAnPG91dGZpbGUubWFlPic=

>  <r_lp_tautomer_probability>  (23) 
1

>  <r_epik_Ionization_Penalty>  (23) 
0.11127

>  <r_epik_Ionization_Penalty_Charging>  (23) 
0.0988674

>  <r_epik_Ionization_Penalty_Neutral>  (23) 
0.0124027

>  <r_epik_State_Penalty>  (23) 
0.0972072

>  <r_epik_Charging_Adjusted_Penalty>  (23) 
0.196075

>  <i_epik_Tot_Q>  (23) 
1

>  <i_epik_Tot_abs_Q>  (23) 
1

>  <s_lp_Force_Field>  (23) 
OPLS3e

>  <r_lp_Energy>  (23) 
61.1066

>  <b_lp_Chiralities_Consistent>  (23) 
1

>  <s_lp_Variant>  (23) 
5:0-1

>  <s_i_glide_gridfile>  (23) 
pfpi4k_grid

>  <i_i_glide_lignum>  (23) 
8

>  <i_i_glide_rotatable_bonds>  (23) 
3

>  <r_i_docking_score>  (23) 
-4.57408

>  <r_i_glide_ligand_efficiency>  (23) 
-0.198873

>  <r_i_glide_ligand_efficiency_sa>  (23) 
-0.565568

>  <r_i_glide_ligand_efficiency_ln>  (23) 
-1.10605

>  <r_i_glide_gscore>  (23) 
-4.57408

>  <r_i_glide_lipo>  (23) 
-0.645855

>  <r_i_glide_hbond>  (23) 
-0.239126

>  <r_i_glide_metal>  (23) 
-0

>  <r_i_glide_rewards>  (23) 
-1.25201

>  <r_i_glide_evdw>  (23) 
-19.3906

>  <r_i_glide_ecoul>  (23) 
-9.41067

>  <r_i_glide_erotb>  (23) 
0

>  <r_i_glide_esite>  (23) 
-0.0559504

>  <r_i_glide_emodel>  (23) 
-37.6406

>  <r_i_glide_energy>  (23) 
-28.8013

>  <r_i_glide_einternal>  (23) 
0.275689

>  <r_i_glide_intrahb_reward>  (23) 
-0

>  <i_i_glide_confnum>  (23) 
2

>  <i_i_glide_posenum>  (23) 
3

>  <r_i_glide_eff_state_penalty>  (23) 
0

>  <ligand_id>  (23) 
5

>  <original_smiles>  (23) 
CN1CCC23c4c5ccc(O)c4OC2C(O)C=CCC3(O)C1C5

>  <smiles>  (23) 
[H]Oc1c([H])c([H])c2c3c1OC1([H])C([H])(O[H])C([H])=C([H])C([H])([H])C4(O[H])C31C([H])([H])C([H])([H])[N+]([H])(C([H])([H])[H])C4([H])C2([H])[H]

$$$$
5:0:2
     RDKit          3D

 45 49  0  0  1  0  0  0  0  0999 V2000
    2.9370   -1.2680   -3.1058 C   0  0  0  0  0  0  0  0  0  0  0  0
    2.8860   -2.1538   -1.9156 N   0  0  1  0  0  0  0  0  0  0  0  0
    3.1763   -3.5643   -2.2373 C   0  0  0  0  0  0  0  0  0  0  0  0
    4.6744   -3.8728   -2.0819 C   0  0  0  0  0  0  0  0  0  0  0  0
    5.2214   -3.4425   -0.6847 C   0  0  1  0  0  0  0  0  0  0  0  0
    4.3934   -4.1340    0.3667 C   0  0  0  0  0  0  0  0  0  0  0  0
    3.2232   -3.6660    0.9542 C   0  0  0  0  0  0  0  0  0  0  0  0
    2.5528   -4.5396    1.8405 C   0  0  0  0  0  0  0  0  0  0  0  0
    3.0927   -5.8375    2.0443 C   0  0  0  0  0  0  0  0  0  0  0  0
    4.3033   -6.2326    1.4542 C   0  0  0  0  0  0  0  0  0  0  0  0
    4.8495   -7.4563    1.6875 O   0  0  0  0  0  0  0  0  0  0  0  0
    5.0073   -5.3291    0.6215 C   0  0  0  0  0  0  0  0  0  0  0  0
    6.2288   -5.4482    0.0700 O   0  0  0  0  0  0  0  0  0  0  0  0
    6.5954   -4.1313   -0.4289 C   0  0  2  0  0  0  0  0  0  0  0  0
    7.5395   -3.6681    0.6736 C   0  0  1  0  0  0  0  0  0  0  0  0
    8.6855   -4.4916    0.7185 O   0  0  0  0  0  0  0  0  0  0  0  0
    8.0137   -2.2827    0.4424 C   0  0  0  0  0  0  0  0  0  0  0  0
    7.2127   -1.2279    0.4835 C   0  0  0  0  0  0  0  0  0  0  0  0
    5.7167   -1.2318    0.5680 C   0  0  0  0  0  0  0  0  0  0  0  0
    5.0579   -1.9029   -0.6470 C   0  0  1  0  0  0  0  0  0  0  0  0
    5.5932   -1.2577   -1.7936 O   0  0  0  0  0  0  0  0  0  0  0  0
    3.5424   -1.6626   -0.6730 C   0  0  2  0  0  0  0  0  0  0  0  0
    2.8730   -2.2417    0.5981 C   0  0  0  0  0  0  0  0  0  0  0  0
    3.9099   -1.2715   -3.5939 H   0  0  0  0  0  0  0  0  0  0  0  0
    2.6531   -0.2466   -2.8232 H   0  0  0  0  0  0  0  0  0  0  0  0
    2.2306   -1.6215   -3.8668 H   0  0  0  0  0  0  0  0  0  0  0  0
    2.5839   -4.1893   -1.5687 H   0  0  0  0  0  0  0  0  0  0  0  0
    2.8255   -3.8034   -3.2435 H   0  0  0  0  0  0  0  0  0  0  0  0
    4.8298   -4.9354   -2.2317 H   0  0  0  0  0  0  0  0  0  0  0  0
    5.2235   -3.3979   -2.8990 H   0  0  0  0  0  0  0  0  0  0  0  0
    1.6491   -4.2256    2.3365 H   0  0  0  0  0  0  0  0  0  0  0  0
    2.5864   -6.5346    2.6907 H   0  0  0  0  0  0  0  0  0  0  0  0
    5.6771   -7.5838    1.2460 H   0  0  0  0  0  0  0  0  0  0  0  0
    7.1698   -3.9876   -1.3384 H   0  0  0  0  0  0  0  0  0  0  0  0
    7.0375   -3.6772    1.6373 H   0  0  0  0  0  0  0  0  0  0  0  0
    8.9284   -4.5750    1.6296 H   0  0  0  0  0  0  0  0  0  0  0  0
    9.0754   -2.1199    0.3572 H   0  0  0  0  0  0  0  0  0  0  0  0
    7.6940   -0.2793    0.4495 H   0  0  0  0  0  0  0  0  0  0  0  0
    5.4354   -1.6870    1.5146 H   0  0  0  0  0  0  0  0  0  0  0  0
    5.4054   -0.1875    0.6253 H   0  0  0  0  0  0  0  0  0  0  0  0
    5.2878   -0.3572   -1.7949 H   0  0  0  0  0  0  0  0  0  0  0  0
    3.3510   -0.6004   -0.6360 H   0  0  0  0  0  0  0  0  0  0  0  0
    1.8094   -2.2269    0.5199 H   0  0  0  0  0  0  0  0  0  0  0  0
    3.1467   -1.5957    1.4284 H   0  0  0  0  0  0  0  0  0  0  0  0
    1.9143   -2.0831   -1.6479 H   0  0  0  0  0  0  0  0  0  0  0  0
  1  2  1  0
  1 24  1  0
  1 25  1  0
  1 26  1  0
  2 22  1  0
  2  3  1  0
  2 45  1  1
  3  4  1  0
  3 27  1  0
  3 28  1  0
  5  4  1  6
  4 29  1  0
  4 30  1  0
  5 14  1  0
  5 20  1  0
  5  6  1  0
  6 12  2  0
  6  7  1  0
  7 23  1  0
  7  8  2  0
  8  9  1  0
  8 31  1  0
  9 10  2  0
  9 32  1  0
 10 11  1  0
 10 12  1  0
 11 33  1  0
 12 13  1  0
 13 14  1  0
 14 15  1  0
 14 34  1  6
 15 16  1  0
 15 17  1  0
 15 35  1  1
 16 36  1  0
 17 18  2  0
 17 37  1  0
 18 19  1  0
 18 38  1  0
 19 20  1  0
 19 39  1  0
 19 40  1  0
 20 21  1  6
 20 22  1  0
 21 41  1  0
 22 23  1  0
 22 42  1  1
 23 43  1  0
 23 44  1  0
M  CHG  1   2   1
M  END
>  <i_m_ct_stereo_status>  (24) 
1

>  <s_m_source_file>  (24) 
/var/tmp/pbs.5076255.sched01/tmpm7cr0ro2/0ctwvxj2z.sdf

>  <i_m_source_file_index>  (24) 
8

>  <i_lp_mmshare_version>  (24) 
48012

>  <i_f3d_flags>  (24) 
0

>  <s_epik_input>  (24) 
W0NIMl0xW0NIMl1OKFtDSDNdKVtDQEBIXShbQ0gyXTIpW0NAQF0zKFtPSF0pW0NIMl1bQ0hdPVtDSF1bQ0BIXShbT0hdKVtDQEhdNE9jNWMoW09IXSlbY0hdW2NIXWMyYzVbQ0BAXTEzNA==

>  <s_epik_cmdline>  (24) 
J2VwaWtfcHl0aG9uJywgJy1waHQnLCAnMi4wJywgJy1waCcsICc3LjAnLCAnLXRuJywgJzgnLCAnLW1hJywgJzIwMCcsICctaW1hZScsICc8aW5maWxlLm1hZT4nLCAnLW9tYWUnLCAnPG91dGZpbGUubWFlPic=

>  <r_lp_tautomer_probability>  (24) 
1

>  <r_epik_Ionization_Penalty>  (24) 
0.11127

>  <r_epik_Ionization_Penalty_Charging>  (24) 
0.0988674

>  <r_epik_Ionization_Penalty_Neutral>  (24) 
0.0124027

>  <r_epik_State_Penalty>  (24) 
0.0972072

>  <r_epik_Charging_Adjusted_Penalty>  (24) 
0.196075

>  <i_epik_Tot_Q>  (24) 
1

>  <i_epik_Tot_abs_Q>  (24) 
1

>  <s_lp_Force_Field>  (24) 
OPLS3e

>  <r_lp_Energy>  (24) 
61.1066

>  <b_lp_Chiralities_Consistent>  (24) 
1

>  <s_lp_Variant>  (24) 
5:0-1

>  <s_i_glide_gridfile>  (24) 
pfpi4k_grid

>  <i_i_glide_lignum>  (24) 
8

>  <i_i_glide_rotatable_bonds>  (24) 
3

>  <r_i_docking_score>  (24) 
-4.5065

>  <r_i_glide_ligand_efficiency>  (24) 
-0.195935

>  <r_i_glide_ligand_efficiency_sa>  (24) 
-0.557212

>  <r_i_glide_ligand_efficiency_ln>  (24) 
-1.08971

>  <r_i_glide_gscore>  (24) 
-4.5065

>  <r_i_glide_lipo>  (24) 
-0.72575

>  <r_i_glide_hbond>  (24) 
-0.207712

>  <r_i_glide_metal>  (24) 
-0

>  <r_i_glide_rewards>  (24) 
-1.25201

>  <r_i_glide_evdw>  (24) 
-13.7225

>  <r_i_glide_ecoul>  (24) 
-10.4053

>  <r_i_glide_erotb>  (24) 
0

>  <r_i_glide_esite>  (24) 
-0.0741037

>  <r_i_glide_emodel>  (24) 
-31.9804

>  <r_i_glide_energy>  (24) 
-24.1278

>  <r_i_glide_einternal>  (24) 
0.947136

>  <r_i_glide_intrahb_reward>  (24) 
-0

>  <i_i_glide_confnum>  (24) 
2

>  <i_i_glide_posenum>  (24) 
25

>  <r_i_glide_eff_state_penalty>  (24) 
0

>  <ligand_id>  (24) 
5

>  <original_smiles>  (24) 
CN1CCC23c4c5ccc(O)c4OC2C(O)C=CCC3(O)C1C5

>  <smiles>  (24) 
[H]Oc1c([H])c([H])c2c3c1OC1([H])C([H])(O[H])C([H])=C([H])C([H])([H])C4(O[H])C31C([H])([H])C([H])([H])[N+]([H])(C([H])([H])[H])C4([H])C2([H])[H]

$$$$
5:1:0
     RDKit          3D

 44 48  0  0  1  0  0  0  0  0999 V2000
    4.5690    2.6425    8.2910 C   0  0  0  0  0  0  0  0  0  0  0  0
    3.1517    2.4645    7.9749 N   0  0  0  0  0  0  0  0  0  0  0  0
    2.9577    1.9240    6.6363 C   0  0  0  0  0  0  0  0  0  0  0  0
    1.4781    1.6834    6.3318 C   0  0  0  0  0  0  0  0  0  0  0  0
    0.5486    2.9012    6.6505 C   0  0  1  0  0  0  0  0  0  0  0  0
    0.8485    4.0814    5.7617 C   0  0  0  0  0  0  0  0  0  0  0  0
    1.9210    4.9759    5.9281 C   0  0  0  0  0  0  0  0  0  0  0  0
    2.0348    6.0034    4.9645 C   0  0  0  0  0  0  0  0  0  0  0  0
    1.0816    6.0811    3.9181 C   0  0  0  0  0  0  0  0  0  0  0  0
   -0.0240    5.1980    3.8562 C   0  0  0  0  0  0  0  0  0  0  0  0
   -0.9629    5.3351    2.8779 O   0  0  0  0  0  0  0  0  0  0  0  0
   -0.1578    4.1773    4.8207 C   0  0  0  0  0  0  0  0  0  0  0  0
   -1.1851    3.2897    4.9808 O   0  0  0  0  0  0  0  0  0  0  0  0
   -0.8933    2.5145    6.1536 C   0  0  2  0  0  0  0  0  0  0  0  0
   -2.1080    2.4997    7.1040 C   0  0  1  0  0  0  0  0  0  0  0  0
   -2.0890    1.3532    7.9055 O   0  0  0  0  0  0  0  0  0  0  0  0
   -2.3799    3.7121    7.9642 C   0  0  0  0  0  0  0  0  0  0  0  0
   -1.5290    4.5634    8.5617 C   0  0  0  0  0  0  0  0  0  0  0  0
   -0.0116    4.5905    8.5951 C   0  0  0  0  0  0  0  0  0  0  0  0
    0.7876    3.3454    8.1178 C   0  0  1  0  0  0  0  0  0  0  0  0
    0.4632    2.3066    9.0311 O   0  0  0  0  0  0  0  0  0  0  0  0
    2.3247    3.6632    8.1912 C   0  0  2  0  0  0  0  0  0  0  0  0
    2.7187    4.8290    7.2237 C   0  0  0  0  0  0  0  0  0  0  0  0
    5.0901    1.6845    8.2647 H   0  0  0  0  0  0  0  0  0  0  0  0
    4.7029    3.0626    9.2879 H   0  0  0  0  0  0  0  0  0  0  0  0
    5.0778    3.2928    7.5795 H   0  0  0  0  0  0  0  0  0  0  0  0
    3.3713    2.5926    5.8845 H   0  0  0  0  0  0  0  0  0  0  0  0
    3.5041    0.9849    6.5361 H   0  0  0  0  0  0  0  0  0  0  0  0
    1.3744    1.3537    5.2950 H   0  0  0  0  0  0  0  0  0  0  0  0
    1.1586    0.8381    6.9384 H   0  0  0  0  0  0  0  0  0  0  0  0
    2.8181    6.7428    5.0457 H   0  0  0  0  0  0  0  0  0  0  0  0
    1.1795    6.8698    3.1893 H   0  0  0  0  0  0  0  0  0  0  0  0
   -0.5850    5.0765    2.0191 H   0  0  0  0  0  0  0  0  0  0  0  0
   -0.8553    1.5042    5.7427 H   0  0  0  0  0  0  0  0  0  0  0  0
   -2.9842    2.4036    6.4634 H   0  0  0  0  0  0  0  0  0  0  0  0
   -1.3978    1.4928    8.5419 H   0  0  0  0  0  0  0  0  0  0  0  0
   -3.4324    3.8929    8.1130 H   0  0  0  0  0  0  0  0  0  0  0  0
   -1.9799    5.3595    9.1320 H   0  0  0  0  0  0  0  0  0  0  0  0
    0.2755    5.4946    8.0593 H   0  0  0  0  0  0  0  0  0  0  0  0
    0.2502    4.7795    9.6343 H   0  0  0  0  0  0  0  0  0  0  0  0
    0.7012    2.5935    9.9015 H   0  0  0  0  0  0  0  0  0  0  0  0
    2.5408    4.0117    9.1972 H   0  0  0  0  0  0  0  0  0  0  0  0
    3.7781    4.8261    6.9760 H   0  0  0  0  0  0  0  0  0  0  0  0
    2.5619    5.7572    7.7592 H   0  0  0  0  0  0  0  0  0  0  0  0
  1  2  1  0
  1 24  1  0
  1 25  1  0
  1 26  1  0
  2 22  1  0
  2  3  1  0
  3  4  1  0
  3 27  1  0
  3 28  1  0
  5  4  1  6
  4 29  1  0
  4 30  1  0
  5 14  1  0
  5 20  1  0
  5  6  1  0
  6 12  2  0
  6  7  1  0
  7 23  1  0
  7  8  2  0
  8  9  1  0
  8 31  1  0
  9 10  2  0
  9 32  1  0
 10 11  1  0
 10 12  1  0
 11 33  1  0
 12 13  1  0
 13 14  1  0
 14 15  1  0
 14 34  1  6
 15 16  1  0
 15 17  1  0
 15 35  1  6
 16 36  1  0
 17 18  2  0
 17 37  1  0
 18 19  1  0
 18 38  1  0
 19 20  1  0
 19 39  1  0
 19 40  1  0
 20 21  1  1
 20 22  1  0
 21 41  1  0
 22 23  1  0
 22 42  1  1
 23 43  1  0
 23 44  1  0
M  END
>  <i_m_ct_stereo_status>  (25) 
1

>  <s_m_source_file>  (25) 
/var/tmp/pbs.5076255.sched01/tmpm7cr0ro2/0ctwvxj2z.sdf

>  <i_m_source_file_index>  (25) 
9

>  <i_lp_mmshare_version>  (25) 
48012

>  <i_f3d_flags>  (25) 
0

>  <s_epik_input>  (25) 
W0NIMl0xW0NIMl1OKFtDSDNdKVtDQEBIXShbQ0gyXTIpW0NAQF0zKFtPSF0pW0NIMl1bQ0hdPVtDSF1bQ0BIXShbT0hdKVtDQEhdNE9jNWMoW09IXSlbY0hdW2NIXWMyYzVbQ0BAXTEzNA==

>  <s_epik_cmdline>  (25) 
J2VwaWtfcHl0aG9uJywgJy1waHQnLCAnMi4wJywgJy1waCcsICc3LjAnLCAnLXRuJywgJzgnLCAnLW1hJywgJzIwMCcsICctaW1hZScsICc8aW5maWxlLm1hZT4nLCAnLW9tYWUnLCAnPG91dGZpbGUubWFlPic=

>  <r_lp_tautomer_probability>  (25) 
1

>  <r_epik_Ionization_Penalty>  (25) 
1.11034

>  <r_epik_Ionization_Penalty_Charging>  (25) 
0

>  <r_epik_Ionization_Penalty_Neutral>  (25) 
1.11034

>  <r_epik_State_Penalty>  (25) 
1.17576

>  <r_epik_Charging_Adjusted_Penalty>  (25) 
1.17576

>  <i_epik_Tot_Q>  (25) 
0

>  <i_epik_Tot_abs_Q>  (25) 
0

>  <s_lp_Force_Field>  (25) 
OPLS3e

>  <r_lp_Energy>  (25) 
54.1601

>  <b_lp_Chiralities_Consistent>  (25) 
1

>  <s_lp_Variant>  (25) 
5:0-2

>  <s_i_glide_gridfile>  (25) 
pfpi4k_grid

>  <i_i_glide_lignum>  (25) 
9

>  <i_i_glide_rotatable_bonds>  (25) 
3

>  <r_i_docking_score>  (25) 
-3.96589

>  <r_i_glide_ligand_efficiency>  (25) 
-0.17243

>  <r_i_glide_ligand_efficiency_sa>  (25) 
-0.490368

>  <r_i_glide_ligand_efficiency_ln>  (25) 
-0.958988

>  <r_i_glide_gscore>  (25) 
-3.96589

>  <r_i_glide_lipo>  (25) 
-0.117263

>  <r_i_glide_hbond>  (25) 
0

>  <r_i_glide_metal>  (25) 
-0

>  <r_i_glide_rewards>  (25) 
-1.75888

>  <r_i_glide_evdw>  (25) 
-9.9804

>  <r_i_glide_ecoul>  (25) 
-10.6048

>  <r_i_glide_erotb>  (25) 
0

>  <r_i_glide_esite>  (25) 
0

>  <r_i_glide_emodel>  (25) 
-32.1158

>  <r_i_glide_energy>  (25) 
-20.5852

>  <r_i_glide_einternal>  (25) 
3.13042

>  <r_i_glide_intrahb_reward>  (25) 
-0.5

>  <i_i_glide_confnum>  (25) 
1

>  <i_i_glide_posenum>  (25) 
1

>  <r_i_glide_eff_state_penalty>  (25) 
0

>  <ligand_id>  (25) 
5

>  <original_smiles>  (25) 
CN1CCC23c4c5ccc(O)c4OC2C(O)C=CCC3(O)C1C5

>  <smiles>  (25) 
[H]Oc1c([H])c([H])c2c3c1OC1([H])C([H])(O[H])C([H])=C([H])C([H])([H])C4(O[H])C([H])(N(C([H])([H])[H])C([H])([H])C([H])([H])C314)C2([H])[H]

$$$$
5:1:1
     RDKit          3D

 44 48  0  0  1  0  0  0  0  0999 V2000
    2.3660   -0.9777    1.8652 C   0  0  0  0  0  0  0  0  0  0  0  0
    1.4039   -0.3428    2.7677 N   0  0  0  0  0  0  0  0  0  0  0  0
    0.4530    0.4844    2.0410 C   0  0  0  0  0  0  0  0  0  0  0  0
   -0.5927    1.0963    2.9726 C   0  0  0  0  0  0  0  0  0  0  0  0
    0.0115    1.8015    4.2323 C   0  0  1  0  0  0  0  0  0  0  0  0
    0.8257    3.0114    3.8552 C   0  0  0  0  0  0  0  0  0  0  0  0
    2.1411    2.9939    3.3532 C   0  0  0  0  0  0  0  0  0  0  0  0
    2.7101    4.2441    3.0384 C   0  0  0  0  0  0  0  0  0  0  0  0
    1.9644    5.4301    3.2535 C   0  0  0  0  0  0  0  0  0  0  0  0
    0.6741    5.3836    3.8304 C   0  0  0  0  0  0  0  0  0  0  0  0
   -0.0025    6.5413    4.0743 O   0  0  0  0  0  0  0  0  0  0  0  0
    0.0925    4.1436    4.1646 C   0  0  0  0  0  0  0  0  0  0  0  0
   -1.0907    3.8993    4.8023 O   0  0  0  0  0  0  0  0  0  0  0  0
   -1.1888    2.4743    4.9933 C   0  0  2  0  0  0  0  0  0  0  0  0
   -1.5092    2.1227    6.4658 C   0  0  1  0  0  0  0  0  0  0  0  0
   -2.1885    0.8907    6.5669 O   0  0  0  0  0  0  0  0  0  0  0  0
   -0.4038    2.1961    7.4934 C   0  0  0  0  0  0  0  0  0  0  0  0
    0.9016    1.8988    7.3817 C   0  0  0  0  0  0  0  0  0  0  0  0
    1.7061    1.3662    6.2092 C   0  0  0  0  0  0  0  0  0  0  0  0
    0.9683    0.8150    4.9575 C   0  0  1  0  0  0  0  0  0  0  0  0
    0.2970   -0.3672    5.3565 O   0  0  0  0  0  0  0  0  0  0  0  0
    2.0259    0.4064    3.8747 C   0  0  2  0  0  0  0  0  0  0  0  0
    2.8437    1.6358    3.3719 C   0  0  0  0  0  0  0  0  0  0  0  0
    1.8581   -1.6405    1.1624 H   0  0  0  0  0  0  0  0  0  0  0  0
    3.0935   -1.5765    2.4121 H   0  0  0  0  0  0  0  0  0  0  0  0
    2.9088   -0.2505    1.2627 H   0  0  0  0  0  0  0  0  0  0  0  0
    0.9637    1.2757    1.4973 H   0  0  0  0  0  0  0  0  0  0  0  0
   -0.0508   -0.1135    1.2826 H   0  0  0  0  0  0  0  0  0  0  0  0
   -1.2295    1.7695    2.3953 H   0  0  0  0  0  0  0  0  0  0  0  0
   -1.2446    0.2921    3.3054 H   0  0  0  0  0  0  0  0  0  0  0  0
    3.7180    4.3026    2.6590 H   0  0  0  0  0  0  0  0  0  0  0  0
    2.4035    6.3764    3.0002 H   0  0  0  0  0  0  0  0  0  0  0  0
    0.2123    7.2300    3.4426 H   0  0  0  0  0  0  0  0  0  0  0  0
   -2.1071    2.2451    4.4504 H   0  0  0  0  0  0  0  0  0  0  0  0
   -2.2366    2.8703    6.7819 H   0  0  0  0  0  0  0  0  0  0  0  0
   -2.6619    0.7711    5.7573 H   0  0  0  0  0  0  0  0  0  0  0  0
   -0.7422    2.5536    8.4549 H   0  0  0  0  0  0  0  0  0  0  0  0
    1.4968    2.0388    8.2715 H   0  0  0  0  0  0  0  0  0  0  0  0
    2.4011    2.1618    5.9494 H   0  0  0  0  0  0  0  0  0  0  0  0
    2.3207    0.5640    6.6112 H   0  0  0  0  0  0  0  0  0  0  0  0
    0.0147   -0.7992    4.5647 H   0  0  0  0  0  0  0  0  0  0  0  0
    2.7339   -0.2710    4.3490 H   0  0  0  0  0  0  0  0  0  0  0  0
    3.2940    1.4675    2.3953 H   0  0  0  0  0  0  0  0  0  0  0  0
    3.6828    1.7642    4.0453 H   0  0  0  0  0  0  0  0  0  0  0  0
  1  2  1  0
  1 24  1  0
  1 25  1  0
  1 26  1  0
  2 22  1  0
  2  3  1  0
  3  4  1  0
  3 27  1  0
  3 28  1  0
  5  4  1  6
  4 29  1  0
  4 30  1  0
  5 14  1  0
  5 20  1  0
  5  6  1  0
  6 12  2  0
  6  7  1  0
  7 23  1  0
  7  8  2  0
  8  9  1  0
  8 31  1  0
  9 10  2  0
  9 32  1  0
 10 11  1  0
 10 12  1  0
 11 33  1  0
 12 13  1  0
 13 14  1  0
 14 15  1  0
 14 34  1  6
 15 16  1  0
 15 17  1  0
 15 35  1  1
 16 36  1  0
 17 18  2  0
 17 37  1  0
 18 19  1  0
 18 38  1  0
 19 20  1  0
 19 39  1  0
 19 40  1  0
 20 21  1  1
 20 22  1  0
 21 41  1  0
 22 23  1  0
 22 42  1  1
 23 43  1  0
 23 44  1  0
M  END
>  <i_m_ct_stereo_status>  (26) 
1

>  <s_m_source_file>  (26) 
/var/tmp/pbs.5076255.sched01/tmpm7cr0ro2/0ctwvxj2z.sdf

>  <i_m_source_file_index>  (26) 
9

>  <i_lp_mmshare_version>  (26) 
48012

>  <i_f3d_flags>  (26) 
0

>  <s_epik_input>  (26) 
W0NIMl0xW0NIMl1OKFtDSDNdKVtDQEBIXShbQ0gyXTIpW0NAQF0zKFtPSF0pW0NIMl1bQ0hdPVtDSF1bQ0BIXShbT0hdKVtDQEhdNE9jNWMoW09IXSlbY0hdW2NIXWMyYzVbQ0BAXTEzNA==

>  <s_epik_cmdline>  (26) 
J2VwaWtfcHl0aG9uJywgJy1waHQnLCAnMi4wJywgJy1waCcsICc3LjAnLCAnLXRuJywgJzgnLCAnLW1hJywgJzIwMCcsICctaW1hZScsICc8aW5maWxlLm1hZT4nLCAnLW9tYWUnLCAnPG91dGZpbGUubWFlPic=

>  <r_lp_tautomer_probability>  (26) 
1

>  <r_epik_Ionization_Penalty>  (26) 
1.11034

>  <r_epik_Ionization_Penalty_Charging>  (26) 
0

>  <r_epik_Ionization_Penalty_Neutral>  (26) 
1.11034

>  <r_epik_State_Penalty>  (26) 
1.17576

>  <r_epik_Charging_Adjusted_Penalty>  (26) 
1.17576

>  <i_epik_Tot_Q>  (26) 
0

>  <i_epik_Tot_abs_Q>  (26) 
0

>  <s_lp_Force_Field>  (26) 
OPLS3e

>  <r_lp_Energy>  (26) 
54.1601

>  <b_lp_Chiralities_Consistent>  (26) 
1

>  <s_lp_Variant>  (26) 
5:0-2

>  <s_i_glide_gridfile>  (26) 
pfpi4k_grid

>  <i_i_glide_lignum>  (26) 
9

>  <i_i_glide_rotatable_bonds>  (26) 
3

>  <r_i_docking_score>  (26) 
-3.7703

>  <r_i_glide_ligand_efficiency>  (26) 
-0.163926

>  <r_i_glide_ligand_efficiency_sa>  (26) 
-0.466184

>  <r_i_glide_ligand_efficiency_ln>  (26) 
-0.911693

>  <r_i_glide_gscore>  (26) 
-3.7703

>  <r_i_glide_lipo>  (26) 
0

>  <r_i_glide_hbond>  (26) 
0

>  <r_i_glide_metal>  (26) 
-0

>  <r_i_glide_rewards>  (26) 
-1.25888

>  <r_i_glide_evdw>  (26) 
-17.7683

>  <r_i_glide_ecoul>  (26) 
-10.82

>  <r_i_glide_erotb>  (26) 
0

>  <r_i_glide_esite>  (26) 
0

>  <r_i_glide_emodel>  (26) 
-35.561

>  <r_i_glide_energy>  (26) 
-28.5883

>  <r_i_glide_einternal>  (26) 
1.80074

>  <r_i_glide_intrahb_reward>  (26) 
-0

>  <i_i_glide_confnum>  (26) 
2

>  <i_i_glide_posenum>  (26) 
20

>  <r_i_glide_eff_state_penalty>  (26) 
0

>  <ligand_id>  (26) 
5

>  <original_smiles>  (26) 
CN1CCC23c4c5ccc(O)c4OC2C(O)C=CCC3(O)C1C5

>  <smiles>  (26) 
[H]Oc1c([H])c([H])c2c3c1OC1([H])C([H])(O[H])C([H])=C([H])C([H])([H])C4(O[H])C([H])(N(C([H])([H])[H])C([H])([H])C([H])([H])C314)C2([H])[H]

$$$$
5:1:2
     RDKit          3D

 44 48  0  0  1  0  0  0  0  0999 V2000
   -2.8191    2.9137    6.8040 C   0  0  0  0  0  0  0  0  0  0  0  0
   -1.7703    3.5719    6.0316 N   0  0  0  0  0  0  0  0  0  0  0  0
   -1.8846    3.3001    4.6061 C   0  0  0  0  0  0  0  0  0  0  0  0
   -0.8160    4.0451    3.8025 C   0  0  0  0  0  0  0  0  0  0  0  0
    0.6399    3.8835    4.3443 C   0  0  1  0  0  0  0  0  0  0  0  0
    1.1133    2.4557    4.2411 C   0  0  0  0  0  0  0  0  0  0  0  0
    0.7643    1.4085    5.1156 C   0  0  0  0  0  0  0  0  0  0  0  0
    1.3032    0.1342    4.8153 C   0  0  0  0  0  0  0  0  0  0  0  0
    2.1462   -0.0194    3.6886 C   0  0  0  0  0  0  0  0  0  0  0  0
    2.5215    1.0900    2.9002 C   0  0  0  0  0  0  0  0  0  0  0  0
    3.4172    0.9243    1.8872 O   0  0  0  0  0  0  0  0  0  0  0  0
    2.0119    2.3711    3.1995 C   0  0  0  0  0  0  0  0  0  0  0  0
    2.3337    3.5690    2.6240 O   0  0  0  0  0  0  0  0  0  0  0  0
    1.5996    4.5928    3.3179 C   0  0  2  0  0  0  0  0  0  0  0  0
    2.5256    5.7462    3.7529 C   0  0  1  0  0  0  0  0  0  0  0  0
    1.7917    6.9429    3.9229 O   0  0  0  0  0  0  0  0  0  0  0  0
    3.4372    5.5419    4.9428 C   0  0  0  0  0  0  0  0  0  0  0  0
    3.2300    4.8676    6.0875 C   0  0  0  0  0  0  0  0  0  0  0  0
    2.0144    4.1053    6.5880 C   0  0  0  0  0  0  0  0  0  0  0  0
    0.6544    4.2639    5.8498 C   0  0  1  0  0  0  0  0  0  0  0  0
    0.2597    5.6147    6.0470 O   0  0  0  0  0  0  0  0  0  0  0  0
   -0.4028    3.3128    6.5208 C   0  0  2  0  0  0  0  0  0  0  0  0
   -0.0022    1.8088    6.3700 C   0  0  0  0  0  0  0  0  0  0  0  0
   -3.7903    3.2694    6.4840 H   0  0  0  0  0  0  0  0  0  0  0  0
   -2.7178    3.1214    7.8688 H   0  0  0  0  0  0  0  0  0  0  0  0
   -2.8231    1.8339    6.6644 H   0  0  0  0  0  0  0  0  0  0  0  0
   -1.8016    2.2335    4.4090 H   0  0  0  0  0  0  0  0  0  0  0  0
   -2.8731    3.5930    4.2511 H   0  0  0  0  0  0  0  0  0  0  0  0
   -0.8990    3.7349    2.7608 H   0  0  0  0  0  0  0  0  0  0  0  0
   -1.0636    5.1032    3.8161 H   0  0  0  0  0  0  0  0  0  0  0  0
    1.1067   -0.7102    5.4617 H   0  0  0  0  0  0  0  0  0  0  0  0
    2.5658   -0.9857    3.4603 H   0  0  0  0  0  0  0  0  0  0  0  0
    3.8704    1.7407    1.6892 H   0  0  0  0  0  0  0  0  0  0  0  0
    1.0078    5.0439    2.5215 H   0  0  0  0  0  0  0  0  0  0  0  0
    3.2018    5.9087    2.9118 H   0  0  0  0  0  0  0  0  0  0  0  0
    1.3623    7.1827    3.1032 H   0  0  0  0  0  0  0  0  0  0  0  0
    4.3973    6.0217    4.8308 H   0  0  0  0  0  0  0  0  0  0  0  0
    4.0449    4.8699    6.7962 H   0  0  0  0  0  0  0  0  0  0  0  0
    2.3298    3.0644    6.6414 H   0  0  0  0  0  0  0  0  0  0  0  0
    1.8737    4.4146    7.6229 H   0  0  0  0  0  0  0  0  0  0  0  0
    0.8945    6.1723    5.6106 H   0  0  0  0  0  0  0  0  0  0  0  0
   -0.4092    3.5319    7.5888 H   0  0  0  0  0  0  0  0  0  0  0  0
   -0.8560    1.1417    6.4694 H   0  0  0  0  0  0  0  0  0  0  0  0
    0.6487    1.5608    7.1990 H   0  0  0  0  0  0  0  0  0  0  0  0
  1  2  1  0
  1 24  1  0
  1 25  1  0
  1 26  1  0
  2 22  1  0
  2  3  1  0
  3  4  1  0
  3 27  1  0
  3 28  1  0
  5  4  1  6
  4 29  1  0
  4 30  1  0
  5 14  1  0
  5 20  1  0
  5  6  1  0
  6 12  2  0
  6  7  1  0
  7 23  1  0
  7  8  2  0
  8  9  1  0
  8 31  1  0
  9 10  2  0
  9 32  1  0
 10 11  1  0
 10 12  1  0
 11 33  1  0
 12 13  1  0
 13 14  1  0
 14 15  1  0
 14 34  1  6
 15 16  1  0
 15 17  1  0
 15 35  1  6
 16 36  1  0
 17 18  2  0
 17 37  1  0
 18 19  1  0
 18 38  1  0
 19 20  1  0
 19 39  1  0
 19 40  1  0
 20 21  1  6
 20 22  1  0
 21 41  1  0
 22 23  1  0
 22 42  1  1
 23 43  1  0
 23 44  1  0
M  END
>  <i_m_ct_stereo_status>  (27) 
1

>  <s_m_source_file>  (27) 
/var/tmp/pbs.5076255.sched01/tmpm7cr0ro2/0ctwvxj2z.sdf

>  <i_m_source_file_index>  (27) 
9

>  <i_lp_mmshare_version>  (27) 
48012

>  <i_f3d_flags>  (27) 
0

>  <s_epik_input>  (27) 
W0NIMl0xW0NIMl1OKFtDSDNdKVtDQEBIXShbQ0gyXTIpW0NAQF0zKFtPSF0pW0NIMl1bQ0hdPVtDSF1bQ0BIXShbT0hdKVtDQEhdNE9jNWMoW09IXSlbY0hdW2NIXWMyYzVbQ0BAXTEzNA==

>  <s_epik_cmdline>  (27) 
J2VwaWtfcHl0aG9uJywgJy1waHQnLCAnMi4wJywgJy1waCcsICc3LjAnLCAnLXRuJywgJzgnLCAnLW1hJywgJzIwMCcsICctaW1hZScsICc8aW5maWxlLm1hZT4nLCAnLW9tYWUnLCAnPG91dGZpbGUubWFlPic=

>  <r_lp_tautomer_probability>  (27) 
1

>  <r_epik_Ionization_Penalty>  (27) 
1.11034

>  <r_epik_Ionization_Penalty_Charging>  (27) 
0

>  <r_epik_Ionization_Penalty_Neutral>  (27) 
1.11034

>  <r_epik_State_Penalty>  (27) 
1.17576

>  <r_epik_Charging_Adjusted_Penalty>  (27) 
1.17576

>  <i_epik_Tot_Q>  (27) 
0

>  <i_epik_Tot_abs_Q>  (27) 
0

>  <s_lp_Force_Field>  (27) 
OPLS3e

>  <r_lp_Energy>  (27) 
54.1601

>  <b_lp_Chiralities_Consistent>  (27) 
1

>  <s_lp_Variant>  (27) 
5:0-2

>  <s_i_glide_gridfile>  (27) 
pfpi4k_grid

>  <i_i_glide_lignum>  (27) 
9

>  <i_i_glide_rotatable_bonds>  (27) 
3

>  <r_i_docking_score>  (27) 
-3.50993

>  <r_i_glide_ligand_efficiency>  (27) 
-0.152606

>  <r_i_glide_ligand_efficiency_sa>  (27) 
-0.433991

>  <r_i_glide_ligand_efficiency_ln>  (27) 
-0.848734

>  <r_i_glide_gscore>  (27) 
-3.50993

>  <r_i_glide_lipo>  (27) 
-0.179118

>  <r_i_glide_hbond>  (27) 
0

>  <r_i_glide_metal>  (27) 
-0

>  <r_i_glide_rewards>  (27) 
-1.75888

>  <r_i_glide_evdw>  (27) 
-16.0834

>  <r_i_glide_ecoul>  (27) 
-5.11842

>  <r_i_glide_erotb>  (27) 
0

>  <r_i_glide_esite>  (27) 
0

>  <r_i_glide_emodel>  (27) 
-33.142

>  <r_i_glide_energy>  (27) 
-21.2018

>  <r_i_glide_einternal>  (27) 
1.20676

>  <r_i_glide_intrahb_reward>  (27) 
-0.5

>  <i_i_glide_confnum>  (27) 
2

>  <i_i_glide_posenum>  (27) 
39

>  <r_i_glide_eff_state_penalty>  (27) 
0

>  <ligand_id>  (27) 
5

>  <original_smiles>  (27) 
CN1CCC23c4c5ccc(O)c4OC2C(O)C=CCC3(O)C1C5

>  <smiles>  (27) 
[H]Oc1c([H])c([H])c2c3c1OC1([H])C([H])(O[H])C([H])=C([H])C([H])([H])C4(O[H])C([H])(N(C([H])([H])[H])C([H])([H])C([H])([H])C314)C2([H])[H]

$$$$
5:2:0
     RDKit          3D

 44 48  0  0  1  0  0  0  0  0999 V2000
    3.7687   -1.0696   -3.0825 C   0  0  0  0  0  0  0  0  0  0  0  0
    3.4538   -1.4030   -1.6719 N   0  0  1  0  0  0  0  0  0  0  0  0
    2.8416   -2.7380   -1.5291 C   0  0  0  0  0  0  0  0  0  0  0  0
    3.8927   -3.8232   -1.2921 C   0  0  0  0  0  0  0  0  0  0  0  0
    4.8739   -3.4908   -0.1264 C   0  0  1  0  0  0  0  0  0  0  0  0
    4.0338   -3.2244    1.0992 C   0  0  0  0  0  0  0  0  0  0  0  0
    3.4822   -1.9934    1.4999 C   0  0  0  0  0  0  0  0  0  0  0  0
    2.6152   -2.0280    2.6096 C   0  0  0  0  0  0  0  0  0  0  0  0
    2.3480   -3.2651    3.2406 C   0  0  0  0  0  0  0  0  0  0  0  0
    2.9601   -4.4648    2.8038 C   0  0  0  0  0  0  0  0  0  0  0  0
    2.6841   -5.6375    3.4483 O   0  0  0  0  0  0  0  0  0  0  0  0
    3.8619   -4.4423    1.7127 C   0  0  0  0  0  0  0  0  0  0  0  0
    4.5955   -5.4475    1.1463 O   0  0  0  0  0  0  0  0  0  0  0  0
    5.5967   -4.8202    0.3114 C   0  0  2  0  0  0  0  0  0  0  0  0
    6.8466   -4.7010    1.2328 C   0  0  1  0  0  0  0  0  0  0  0  0
    7.3044   -6.0010    1.5384 O   0  0  0  0  0  0  0  0  0  0  0  0
    8.0182   -3.9601    0.6339 C   0  0  0  0  0  0  0  0  0  0  0  0
    8.0129   -2.6729    0.2780 C   0  0  0  0  0  0  0  0  0  0  0  0
    6.7988   -1.7740    0.3615 C   0  0  0  0  0  0  0  0  0  0  0  0
    5.6389   -2.2094   -0.5737 C   0  0  1  0  0  0  0  0  0  0  0  0
    6.2534   -2.3346   -1.8489 O   0  0  0  0  0  0  0  0  0  0  0  0
    4.5448   -1.0979   -0.6855 C   0  0  2  0  0  0  0  0  0  0  0  0
    3.9258   -0.7826    0.6968 C   0  0  0  0  0  0  0  0  0  0  0  0
    4.4297   -1.8156   -3.5275 H   0  0  0  0  0  0  0  0  0  0  0  0
    4.2400   -0.0882   -3.1686 H   0  0  0  0  0  0  0  0  0  0  0  0
    2.8530   -1.0554   -3.6790 H   0  0  0  0  0  0  0  0  0  0  0  0
    2.1520   -2.7250   -0.6859 H   0  0  0  0  0  0  0  0  0  0  0  0
    2.2206   -2.9705   -2.3985 H   0  0  0  0  0  0  0  0  0  0  0  0
    3.3358   -4.7199   -1.0373 H   0  0  0  0  0  0  0  0  0  0  0  0
    4.4193   -4.0471   -2.2256 H   0  0  0  0  0  0  0  0  0  0  0  0
    2.1599   -1.1157    2.9631 H   0  0  0  0  0  0  0  0  0  0  0  0
    1.6707   -3.2935    4.0775 H   0  0  0  0  0  0  0  0  0  0  0  0
    5.8139   -5.4492   -0.5512 H   0  0  0  0  0  0  0  0  0  0  0  0
    6.5805   -4.2021    2.1650 H   0  0  0  0  0  0  0  0  0  0  0  0
    7.9987   -5.9444    2.1786 H   0  0  0  0  0  0  0  0  0  0  0  0
    8.9430   -4.5125    0.5585 H   0  0  0  0  0  0  0  0  0  0  0  0
    8.9249   -2.2253   -0.0902 H   0  0  0  0  0  0  0  0  0  0  0  0
    6.4812   -1.7126    1.4025 H   0  0  0  0  0  0  0  0  0  0  0  0
    7.1299   -0.7712    0.0935 H   0  0  0  0  0  0  0  0  0  0  0  0
    5.6701   -2.8076   -2.4227 H   0  0  0  0  0  0  0  0  0  0  0  0
    5.0307   -0.1925   -1.0324 H   0  0  0  0  0  0  0  0  0  0  0  0
    3.0832   -0.1014    0.5851 H   0  0  0  0  0  0  0  0  0  0  0  0
    4.6622   -0.2475    1.2956 H   0  0  0  0  0  0  0  0  0  0  0  0
    2.6898   -0.7779   -1.4276 H   0  0  0  0  0  0  0  0  0  0  0  0
  1  2  1  0
  1 24  1  0
  1 25  1  0
  1 26  1  0
  2 22  1  0
  2  3  1  0
  2 44  1  1
  3  4  1  0
  3 27  1  0
  3 28  1  0
  5  4  1  6
  4 29  1  0
  4 30  1  0
  5 14  1  0
  5 20  1  0
  5  6  1  0
  6 12  2  0
  6  7  1  0
  7 23  1  0
  7  8  2  0
  8  9  1  0
  8 31  1  0
  9 10  2  0
  9 32  1  0
 10 11  1  0
 10 12  1  0
 12 13  1  0
 13 14  1  0
 14 15  1  0
 14 33  1  6
 15 16  1  0
 15 17  1  0
 15 34  1  1
 16 35  1  0
 17 18  2  0
 17 36  1  0
 18 19  1  0
 18 37  1  0
 19 20  1  0
 19 38  1  0
 19 39  1  0
 20 21  1  6
 20 22  1  0
 21 40  1  0
 22 23  1  0
 22 41  1  6
 23 42  1  0
 23 43  1  0
M  CHG  2   2   1  11  -1
M  END
>  <i_m_ct_stereo_status>  (28) 
1

>  <s_m_source_file>  (28) 
/var/tmp/pbs.5076255.sched01/tmpm7cr0ro2/0ctwvxj2z.sdf

>  <i_m_source_file_index>  (28) 
10

>  <i_lp_mmshare_version>  (28) 
48012

>  <i_f3d_flags>  (28) 
0

>  <s_epik_input>  (28) 
W0NIMl0xW0NIMl1OKFtDSDNdKVtDQEBIXShbQ0gyXTIpW0NAQF0zKFtPSF0pW0NIMl1bQ0hdPVtDSF1bQ0BIXShbT0hdKVtDQEhdNE9jNWMoW09IXSlbY0hdW2NIXWMyYzVbQ0BAXTEzNA==

>  <s_epik_cmdline>  (28) 
J2VwaWtfcHl0aG9uJywgJy1waHQnLCAnMi4wJywgJy1waCcsICc3LjAnLCAnLXRuJywgJzgnLCAnLW1hJywgJzIwMCcsICctaW1hZScsICc8aW5maWxlLm1hZT4nLCAnLW9tYWUnLCAnPG91dGZpbGUubWFlPic=

>  <r_epik_Ionization_Penalty>  (28) 
2.38836

>  <r_epik_Ionization_Penalty_Charging>  (28) 
2.38836

>  <r_epik_Ionization_Penalty_Neutral>  (28) 
1.79664e-06

>  <r_epik_State_Penalty>  (28) 
2.53513

>  <r_epik_Charging_Adjusted_Penalty>  (28) 
4.92349

>  <i_epik_Tot_Q>  (28) 
0

>  <i_epik_Tot_abs_Q>  (28) 
2

>  <s_lp_Force_Field>  (28) 
OPLS3e

>  <r_lp_Energy>  (28) 
58.2049

>  <b_lp_Chiralities_Consistent>  (28) 
1

>  <s_lp_Variant>  (28) 
5:0-3

>  <s_i_glide_gridfile>  (28) 
pfpi4k_grid

>  <i_i_glide_lignum>  (28) 
10

>  <i_i_glide_rotatable_bonds>  (28) 
2

>  <r_i_docking_score>  (28) 
-4.27328

>  <r_i_glide_ligand_efficiency>  (28) 
-0.185795

>  <r_i_glide_ligand_efficiency_sa>  (28) 
-0.528375

>  <r_i_glide_ligand_efficiency_ln>  (28) 
-1.03332

>  <r_i_glide_gscore>  (28) 
-4.27328

>  <r_i_glide_lipo>  (28) 
-0.692353

>  <r_i_glide_hbond>  (28) 
-0.19533

>  <r_i_glide_metal>  (28) 
-0

>  <r_i_glide_rewards>  (28) 
-1.55888

>  <r_i_glide_evdw>  (28) 
-21.1833

>  <r_i_glide_ecoul>  (28) 
-4.4589

>  <r_i_glide_erotb>  (28) 
0

>  <r_i_glide_esite>  (28) 
-0.0987081

>  <r_i_glide_emodel>  (28) 
-38.3676

>  <r_i_glide_energy>  (28) 
-25.6422

>  <r_i_glide_einternal>  (28) 
0.487663

>  <r_i_glide_intrahb_reward>  (28) 
-0

>  <i_i_glide_confnum>  (28) 
1

>  <i_i_glide_posenum>  (28) 
13

>  <r_i_glide_eff_state_penalty>  (28) 
0

>  <ligand_id>  (28) 
5

>  <original_smiles>  (28) 
CN1CCC23c4c5ccc(O)c4OC2C(O)C=CCC3(O)C1C5

>  <smiles>  (28) 
[H]OC1([H])C([H])=C([H])C([H])([H])C2(O[H])C34c5c(c([O-])c([H])c([H])c5C([H])([H])C2([H])[N+]([H])(C([H])([H])[H])C([H])([H])C3([H])[H])OC14[H]

$$$$
5:2:1
     RDKit          3D

 44 48  0  0  1  0  0  0  0  0999 V2000
    3.6381  -12.2955    5.2143 C   0  0  0  0  0  0  0  0  0  0  0  0
    3.4281  -11.1366    4.3275 N   0  0  1  0  0  0  0  0  0  0  0  0
    2.0461  -11.0558    3.8098 C   0  0  0  0  0  0  0  0  0  0  0  0
    1.1335  -10.2112    4.7190 C   0  0  0  0  0  0  0  0  0  0  0  0
    1.7499   -8.8093    5.0462 C   0  0  1  0  0  0  0  0  0  0  0  0
    2.0359   -8.1279    3.7309 C   0  0  0  0  0  0  0  0  0  0  0  0
    3.2275   -8.2211    2.9685 C   0  0  0  0  0  0  0  0  0  0  0  0
    3.1978   -7.5972    1.7038 C   0  0  0  0  0  0  0  0  0  0  0  0
    2.0085   -6.9587    1.2800 C   0  0  0  0  0  0  0  0  0  0  0  0
    0.8517   -6.9099    2.1014 C   0  0  0  0  0  0  0  0  0  0  0  0
   -0.2875   -6.3473    1.6100 O   0  0  0  0  0  0  0  0  0  0  0  0
    0.8860   -7.4661    3.3975 C   0  0  0  0  0  0  0  0  0  0  0  0
   -0.0674   -7.4765    4.3902 O   0  0  0  0  0  0  0  0  0  0  0  0
    0.5973   -7.8830    5.6090 C   0  0  2  0  0  0  0  0  0  0  0  0
    0.9983   -6.5356    6.2788 C   0  0  1  0  0  0  0  0  0  0  0  0
   -0.1773   -5.8376    6.6400 O   0  0  0  0  0  0  0  0  0  0  0  0
    1.8289   -6.6722    7.5304 C   0  0  0  0  0  0  0  0  0  0  0  0
    3.0541   -7.2015    7.5807 C   0  0  0  0  0  0  0  0  0  0  0  0
    3.7680   -7.8219    6.3983 C   0  0  0  0  0  0  0  0  0  0  0  0
    3.0641   -9.0894    5.8330 C   0  0  1  0  0  0  0  0  0  0  0  0
    2.8673   -9.8968    6.9850 O   0  0  0  0  0  0  0  0  0  0  0  0
    3.9982   -9.8518    4.8364 C   0  0  2  0  0  0  0  0  0  0  0  0
    4.3788   -8.9505    3.6398 C   0  0  0  0  0  0  0  0  0  0  0  0
    2.9729  -12.2650    6.0684 H   0  0  0  0  0  0  0  0  0  0  0  0
    4.6533  -12.3404    5.6011 H   0  0  0  0  0  0  0  0  0  0  0  0
    3.4422  -13.2262    4.6853 H   0  0  0  0  0  0  0  0  0  0  0  0
    2.0506  -10.6407    2.8043 H   0  0  0  0  0  0  0  0  0  0  0  0
    1.6275  -12.0517    3.6792 H   0  0  0  0  0  0  0  0  0  0  0  0
    0.1643  -10.1082    4.2198 H   0  0  0  0  0  0  0  0  0  0  0  0
    0.9053  -10.7731    5.6294 H   0  0  0  0  0  0  0  0  0  0  0  0
    4.0690   -7.6410    1.0586 H   0  0  0  0  0  0  0  0  0  0  0  0
    1.9747   -6.5043    0.3084 H   0  0  0  0  0  0  0  0  0  0  0  0
   -0.0935   -8.4386    6.2507 H   0  0  0  0  0  0  0  0  0  0  0  0
    1.5622   -5.9132    5.5817 H   0  0  0  0  0  0  0  0  0  0  0  0
    0.0756   -4.9896    6.9695 H   0  0  0  0  0  0  0  0  0  0  0  0
    1.4126   -6.2544    8.4343 H   0  0  0  0  0  0  0  0  0  0  0  0
    3.5845   -7.2108    8.5210 H   0  0  0  0  0  0  0  0  0  0  0  0
    3.9137   -7.0477    5.6427 H   0  0  0  0  0  0  0  0  0  0  0  0
    4.7640   -8.0868    6.7543 H   0  0  0  0  0  0  0  0  0  0  0  0
    2.3695  -10.6822    6.7832 H   0  0  0  0  0  0  0  0  0  0  0  0
    4.9339  -10.0843    5.3363 H   0  0  0  0  0  0  0  0  0  0  0  0
    4.9136   -9.5171    2.8775 H   0  0  0  0  0  0  0  0  0  0  0  0
    5.0727   -8.1774    3.9696 H   0  0  0  0  0  0  0  0  0  0  0  0
    3.9786  -11.3624    3.5143 H   0  0  0  0  0  0  0  0  0  0  0  0
  1  2  1  0
  1 24  1  0
  1 25  1  0
  1 26  1  0
  2 22  1  0
  2  3  1  0
  2 44  1  6
  3  4  1  0
  3 27  1  0
  3 28  1  0
  5  4  1  6
  4 29  1  0
  4 30  1  0
  5 14  1  0
  5 20  1  0
  5  6  1  0
  6 12  2  0
  6  7  1  0
  7 23  1  0
  7  8  2  0
  8  9  1  0
  8 31  1  0
  9 10  2  0
  9 32  1  0
 10 11  1  0
 10 12  1  0
 12 13  1  0
 13 14  1  0
 14 15  1  0
 14 33  1  1
 15 16  1  0
 15 17  1  0
 15 34  1  6
 16 35  1  0
 17 18  2  0
 17 36  1  0
 18 19  1  0
 18 37  1  0
 19 20  1  0
 19 38  1  0
 19 39  1  0
 20 21  1  1
 20 22  1  0
 21 40  1  0
 22 23  1  0
 22 41  1  1
 23 42  1  0
 23 43  1  0
M  CHG  2   2   1  11  -1
M  END
>  <i_m_ct_stereo_status>  (29) 
1

>  <s_m_source_file>  (29) 
/var/tmp/pbs.5076255.sched01/tmpm7cr0ro2/0ctwvxj2z.sdf

>  <i_m_source_file_index>  (29) 
10

>  <i_lp_mmshare_version>  (29) 
48012

>  <i_f3d_flags>  (29) 
0

>  <s_epik_input>  (29) 
W0NIMl0xW0NIMl1OKFtDSDNdKVtDQEBIXShbQ0gyXTIpW0NAQF0zKFtPSF0pW0NIMl1bQ0hdPVtDSF1bQ0BIXShbT0hdKVtDQEhdNE9jNWMoW09IXSlbY0hdW2NIXWMyYzVbQ0BAXTEzNA==

>  <s_epik_cmdline>  (29) 
J2VwaWtfcHl0aG9uJywgJy1waHQnLCAnMi4wJywgJy1waCcsICc3LjAnLCAnLXRuJywgJzgnLCAnLW1hJywgJzIwMCcsICctaW1hZScsICc8aW5maWxlLm1hZT4nLCAnLW9tYWUnLCAnPG91dGZpbGUubWFlPic=

>  <r_epik_Ionization_Penalty>  (29) 
2.38836

>  <r_epik_Ionization_Penalty_Charging>  (29) 
2.38836

>  <r_epik_Ionization_Penalty_Neutral>  (29) 
1.79664e-06

>  <r_epik_State_Penalty>  (29) 
2.53513

>  <r_epik_Charging_Adjusted_Penalty>  (29) 
4.92349

>  <i_epik_Tot_Q>  (29) 
0

>  <i_epik_Tot_abs_Q>  (29) 
2

>  <s_lp_Force_Field>  (29) 
OPLS3e

>  <r_lp_Energy>  (29) 
58.2049

>  <b_lp_Chiralities_Consistent>  (29) 
1

>  <s_lp_Variant>  (29) 
5:0-3

>  <s_i_glide_gridfile>  (29) 
pfpi4k_grid

>  <i_i_glide_lignum>  (29) 
10

>  <i_i_glide_rotatable_bonds>  (29) 
2

>  <r_i_docking_score>  (29) 
-4.24647

>  <r_i_glide_ligand_efficiency>  (29) 
-0.184629

>  <r_i_glide_ligand_efficiency_sa>  (29) 
-0.525061

>  <r_i_glide_ligand_efficiency_ln>  (29) 
-1.02684

>  <r_i_glide_gscore>  (29) 
-4.24647

>  <r_i_glide_lipo>  (29) 
-0.0519522

>  <r_i_glide_hbond>  (29) 
-0.469571

>  <r_i_glide_metal>  (29) 
-0

>  <r_i_glide_rewards>  (29) 
-1.89459

>  <r_i_glide_evdw>  (29) 
-13.4143

>  <r_i_glide_ecoul>  (29) 
-7.62671

>  <r_i_glide_erotb>  (29) 
0

>  <r_i_glide_esite>  (29) 
-0.0156369

>  <r_i_glide_emodel>  (29) 
-33.7057

>  <r_i_glide_energy>  (29) 
-21.041

>  <r_i_glide_einternal>  (29) 
0.400228

>  <r_i_glide_intrahb_reward>  (29) 
-0

>  <i_i_glide_confnum>  (29) 
1

>  <i_i_glide_posenum>  (29) 
18

>  <r_i_glide_eff_state_penalty>  (29) 
0

>  <ligand_id>  (29) 
5

>  <original_smiles>  (29) 
CN1CCC23c4c5ccc(O)c4OC2C(O)C=CCC3(O)C1C5

>  <smiles>  (29) 
[H]OC1([H])C([H])=C([H])C([H])([H])C2(O[H])C34c5c(c([O-])c([H])c([H])c5C([H])([H])C2([H])[N+]([H])(C([H])([H])[H])C([H])([H])C3([H])[H])OC14[H]

$$$$
5:2:2
     RDKit          3D

 44 48  0  0  1  0  0  0  0  0999 V2000
    3.7193   -1.2533   -2.9191 C   0  0  0  0  0  0  0  0  0  0  0  0
    3.4520   -1.4840   -1.4793 N   0  0  1  0  0  0  0  0  0  0  0  0
    2.7870   -2.7829   -1.2312 C   0  0  0  0  0  0  0  0  0  0  0  0
    3.7924   -3.9149   -0.9750 C   0  0  0  0  0  0  0  0  0  0  0  0
    4.8393   -3.5489    0.1245 C   0  0  1  0  0  0  0  0  0  0  0  0
    4.0690   -3.1729    1.3663 C   0  0  0  0  0  0  0  0  0  0  0  0
    3.5903   -1.8953    1.7139 C   0  0  0  0  0  0  0  0  0  0  0  0
    2.7722   -1.8253    2.8597 C   0  0  0  0  0  0  0  0  0  0  0  0
    2.4797   -3.0104    3.5742 C   0  0  0  0  0  0  0  0  0  0  0  0
    3.0228   -4.2603    3.1887 C   0  0  0  0  0  0  0  0  0  0  0  0
    2.7314   -5.3821    3.9137 O   0  0  0  0  0  0  0  0  0  0  0  0
    3.8745   -4.3433    2.0614 C   0  0  0  0  0  0  0  0  0  0  0  0
    4.5425   -5.4125    1.5306 O   0  0  0  0  0  0  0  0  0  0  0  0
    5.5261   -4.8819    0.6117 C   0  0  2  0  0  0  0  0  0  0  0  0
    6.8081   -4.7652    1.4793 C   0  0  1  0  0  0  0  0  0  0  0  0
    7.1916   -6.0639    1.8686 O   0  0  0  0  0  0  0  0  0  0  0  0
    7.9934   -4.1236    0.7962 C   0  0  0  0  0  0  0  0  0  0  0  0
    8.0293   -2.8597    0.3615 C   0  0  0  0  0  0  0  0  0  0  0  0
    6.8605   -1.8985    0.4345 C   0  0  0  0  0  0  0  0  0  0  0  0
    5.6426   -2.3272   -0.4272 C   0  0  1  0  0  0  0  0  0  0  0  0
    6.1984   -2.5542   -1.7148 O   0  0  0  0  0  0  0  0  0  0  0  0
    4.5991   -1.1648   -0.5618 C   0  0  2  0  0  0  0  0  0  0  0  0
    4.0535   -0.7516    0.8252 C   0  0  0  0  0  0  0  0  0  0  0  0
    4.3253   -2.0566   -3.3421 H   0  0  0  0  0  0  0  0  0  0  0  0
    4.2319   -0.3033   -3.0876 H   0  0  0  0  0  0  0  0  0  0  0  0
    2.7800   -1.2330   -3.4768 H   0  0  0  0  0  0  0  0  0  0  0  0
    2.1313   -2.6844   -0.3669 H   0  0  0  0  0  0  0  0  0  0  0  0
    2.1211   -3.0340   -2.0602 H   0  0  0  0  0  0  0  0  0  0  0  0
    3.2196   -4.7965   -0.6824 H   0  0  0  0  0  0  0  0  0  0  0  0
    4.2746   -4.1962   -1.9135 H   0  0  0  0  0  0  0  0  0  0  0  0
    2.3729   -0.8730    3.1765 H   0  0  0  0  0  0  0  0  0  0  0  0
    1.8376   -2.9567    4.4383 H   0  0  0  0  0  0  0  0  0  0  0  0
    5.6958   -5.5717   -0.2173 H   0  0  0  0  0  0  0  0  0  0  0  0
    6.6084   -4.2000    2.3884 H   0  0  0  0  0  0  0  0  0  0  0  0
    6.5101   -6.4138    2.4249 H   0  0  0  0  0  0  0  0  0  0  0  0
    8.8857   -4.7282    0.7251 H   0  0  0  0  0  0  0  0  0  0  0  0
    8.9431   -2.4730   -0.0676 H   0  0  0  0  0  0  0  0  0  0  0  0
    6.5917   -1.7579    1.4819 H   0  0  0  0  0  0  0  0  0  0  0  0
    7.2292   -0.9317    0.0929 H   0  0  0  0  0  0  0  0  0  0  0  0
    5.5654   -3.0149   -2.2445 H   0  0  0  0  0  0  0  0  0  0  0  0
    5.1000   -0.2839   -0.9714 H   0  0  0  0  0  0  0  0  0  0  0  0
    3.2370   -0.0380    0.7103 H   0  0  0  0  0  0  0  0  0  0  0  0
    4.8358   -0.2183    1.3644 H   0  0  0  0  0  0  0  0  0  0  0  0
    2.7230   -0.8164   -1.2475 H   0  0  0  0  0  0  0  0  0  0  0  0
  1  2  1  0
  1 24  1  0
  1 25  1  0
  1 26  1  0
  2 22  1  0
  2  3  1  0
  2 44  1  1
  3  4  1  0
  3 27  1  0
  3 28  1  0
  5  4  1  6
  4 29  1  0
  4 30  1  0
  5 14  1  0
  5 20  1  0
  5  6  1  0
  6 12  2  0
  6  7  1  0
  7 23  1  0
  7  8  2  0
  8  9  1  0
  8 31  1  0
  9 10  2  0
  9 32  1  0
 10 11  1  0
 10 12  1  0
 12 13  1  0
 13 14  1  0
 14 15  1  0
 14 33  1  6
 15 16  1  0
 15 17  1  0
 15 34  1  1
 16 35  1  0
 17 18  2  0
 17 36  1  0
 18 19  1  0
 18 37  1  0
 19 20  1  0
 19 38  1  0
 19 39  1  0
 20 21  1  6
 20 22  1  0
 21 40  1  0
 22 23  1  0
 22 41  1  6
 23 42  1  0
 23 43  1  0
M  CHG  2   2   1  11  -1
M  END
>  <i_m_ct_stereo_status>  (30) 
1

>  <s_m_source_file>  (30) 
/var/tmp/pbs.5076255.sched01/tmpm7cr0ro2/0ctwvxj2z.sdf

>  <i_m_source_file_index>  (30) 
10

>  <i_lp_mmshare_version>  (30) 
48012

>  <i_f3d_flags>  (30) 
0

>  <s_epik_input>  (30) 
W0NIMl0xW0NIMl1OKFtDSDNdKVtDQEBIXShbQ0gyXTIpW0NAQF0zKFtPSF0pW0NIMl1bQ0hdPVtDSF1bQ0BIXShbT0hdKVtDQEhdNE9jNWMoW09IXSlbY0hdW2NIXWMyYzVbQ0BAXTEzNA==

>  <s_epik_cmdline>  (30) 
J2VwaWtfcHl0aG9uJywgJy1waHQnLCAnMi4wJywgJy1waCcsICc3LjAnLCAnLXRuJywgJzgnLCAnLW1hJywgJzIwMCcsICctaW1hZScsICc8aW5maWxlLm1hZT4nLCAnLW9tYWUnLCAnPG91dGZpbGUubWFlPic=

>  <r_epik_Ionization_Penalty>  (30) 
2.38836

>  <r_epik_Ionization_Penalty_Charging>  (30) 
2.38836

>  <r_epik_Ionization_Penalty_Neutral>  (30) 
1.79664e-06

>  <r_epik_State_Penalty>  (30) 
2.53513

>  <r_epik_Charging_Adjusted_Penalty>  (30) 
4.92349

>  <i_epik_Tot_Q>  (30) 
0

>  <i_epik_Tot_abs_Q>  (30) 
2

>  <s_lp_Force_Field>  (30) 
OPLS3e

>  <r_lp_Energy>  (30) 
58.2049

>  <b_lp_Chiralities_Consistent>  (30) 
1

>  <s_lp_Variant>  (30) 
5:0-3

>  <s_i_glide_gridfile>  (30) 
pfpi4k_grid

>  <i_i_glide_lignum>  (30) 
10

>  <i_i_glide_rotatable_bonds>  (30) 
2

>  <r_i_docking_score>  (30) 
-4.06931

>  <r_i_glide_ligand_efficiency>  (30) 
-0.176927

>  <r_i_glide_ligand_efficiency_sa>  (30) 
-0.503156

>  <r_i_glide_ligand_efficiency_ln>  (30) 
-0.983997

>  <r_i_glide_gscore>  (30) 
-4.06931

>  <r_i_glide_lipo>  (30) 
-0.676131

>  <r_i_glide_hbond>  (30) 
-0.13316

>  <r_i_glide_metal>  (30) 
-0

>  <r_i_glide_rewards>  (30) 
-1.55888

>  <r_i_glide_evdw>  (30) 
-21.2136

>  <r_i_glide_ecoul>  (30) 
-3.60729

>  <r_i_glide_erotb>  (30) 
0

>  <r_i_glide_esite>  (30) 
-0.0993624

>  <r_i_glide_emodel>  (30) 
-36.8914

>  <r_i_glide_energy>  (30) 
-24.8209

>  <r_i_glide_einternal>  (30) 
0.539464

>  <r_i_glide_intrahb_reward>  (30) 
-0

>  <i_i_glide_confnum>  (30) 
1

>  <i_i_glide_posenum>  (30) 
1

>  <r_i_glide_eff_state_penalty>  (30) 
0

>  <ligand_id>  (30) 
5

>  <original_smiles>  (30) 
CN1CCC23c4c5ccc(O)c4OC2C(O)C=CCC3(O)C1C5

>  <smiles>  (30) 
[H]OC1([H])C([H])=C([H])C([H])([H])C2(O[H])C34c5c(c([O-])c([H])c([H])c5C([H])([H])C2([H])[N+]([H])(C([H])([H])[H])C([H])([H])C3([H])[H])OC14[H]

$$$$
6:0:0
     RDKit          3D

 33 34  0  0  1  0  0  0  0  0999 V2000
   -6.0440  -12.6534   -6.5148 C   0  0  0  0  0  0  0  0  0  0  0  0
   -5.0243  -11.5508   -6.8435 C   0  0  0  0  0  0  0  0  0  0  0  0
   -3.7974  -11.6363   -5.9245 C   0  0  0  0  0  0  0  0  0  0  0  0
   -5.6412  -10.2283   -6.7628 N   0  0  0  0  0  0  0  0  0  0  0  0
   -6.5370   -9.7524   -7.6452 C   0  0  0  0  0  0  0  0  0  0  0  0
   -6.9053  -10.3721   -8.6468 O   0  0  0  0  0  0  0  0  0  0  0  0
   -7.0770   -8.4007   -7.3179 C   0  0  0  0  0  0  0  0  0  0  0  0
   -6.6312   -7.5787   -6.3589 N   0  0  0  0  0  0  0  0  0  0  0  0
   -7.3459   -6.3774   -6.3146 C   0  0  0  0  0  0  0  0  0  0  0  0
   -8.3285   -6.2861   -7.2618 C   0  0  0  0  0  0  0  0  0  0  0  0
   -8.4146   -7.7176   -8.2595 S   0  0  0  0  0  0  0  0  0  0  0  0
   -9.2288   -5.1050   -7.4172 C   0  0  0  0  0  0  0  0  0  0  0  0
   -8.6287   -3.8745   -6.7047 C   0  0  0  0  0  0  0  0  0  0  0  0
   -8.0242   -4.2344   -5.3245 C   0  0  0  0  0  0  0  0  0  0  0  0
   -7.0698   -5.3393   -5.4016 N   0  0  0  0  0  0  0  0  0  0  0  0
   -6.0753   -5.4955   -4.3504 C   0  0  0  0  0  0  0  0  0  0  0  0
   -5.5866  -13.6395   -6.5468 H   0  0  0  0  0  0  0  0  0  0  0  0
   -6.8709  -12.6578   -7.2217 H   0  0  0  0  0  0  0  0  0  0  0  0
   -6.4720  -12.5192   -5.5268 H   0  0  0  0  0  0  0  0  0  0  0  0
   -4.6740  -11.6992   -7.8666 H   0  0  0  0  0  0  0  0  0  0  0  0
   -3.3580  -12.6336   -5.9635 H   0  0  0  0  0  0  0  0  0  0  0  0
   -4.0563  -11.4327   -4.8859 H   0  0  0  0  0  0  0  0  0  0  0  0
   -3.0256  -10.9279   -6.2214 H   0  0  0  0  0  0  0  0  0  0  0  0
   -5.4016   -9.6437   -5.9713 H   0  0  0  0  0  0  0  0  0  0  0  0
   -9.3945   -4.8957   -8.4731 H   0  0  0  0  0  0  0  0  0  0  0  0
  -10.2062   -5.3387   -6.9914 H   0  0  0  0  0  0  0  0  0  0  0  0
   -7.8287   -3.4746   -7.3270 H   0  0  0  0  0  0  0  0  0  0  0  0
   -9.3744   -3.0850   -6.6117 H   0  0  0  0  0  0  0  0  0  0  0  0
   -7.5197   -3.3637   -4.9056 H   0  0  0  0  0  0  0  0  0  0  0  0
   -8.8210   -4.4948   -4.6257 H   0  0  0  0  0  0  0  0  0  0  0  0
   -5.3968   -6.3263   -4.5266 H   0  0  0  0  0  0  0  0  0  0  0  0
   -6.5585   -5.6663   -3.3923 H   0  0  0  0  0  0  0  0  0  0  0  0
   -5.4701   -4.5959   -4.2846 H   0  0  0  0  0  0  0  0  0  0  0  0
  1  2  1  0
  1 17  1  0
  1 18  1  0
  1 19  1  0
  2  3  1  0
  2  4  1  0
  2 20  1  0
  3 21  1  0
  3 22  1  0
  3 23  1  0
  4  5  1  0
  4 24  1  0
  5  6  2  0
  5  7  1  0
  7 11  1  0
  7  8  2  0
  8  9  1  0
  9 15  1  0
  9 10  2  0
 10 11  1  0
 10 12  1  0
 12 13  1  0
 12 25  1  0
 12 26  1  0
 13 14  1  0
 13 27  1  0
 13 28  1  0
 14 15  1  0
 14 29  1  0
 14 30  1  0
 15 16  1  0
 16 31  1  0
 16 32  1  0
 16 33  1  0
M  END
>  <i_m_ct_stereo_status>  (31) 
1

>  <s_m_source_file>  (31) 
/var/tmp/pbs.5076255.sched01/tmpm7cr0ro2/0ctwvxj2z.sdf

>  <i_m_source_file_index>  (31) 
11

>  <i_lp_mmshare_version>  (31) 
48012

>  <i_f3d_flags>  (31) 
0

>  <s_epik_input>  (31) 
W0NIM11bQ0hdKFtDSDNdKVtOSF1DKD1PKWMobjEpc2MoYzEyKVtDSDJdW0NIMl1bQ0gyXU4yW0NIM10=

>  <s_epik_cmdline>  (31) 
J2VwaWtfcHl0aG9uJywgJy1waHQnLCAnMi4wJywgJy1waCcsICc3LjAnLCAnLXRuJywgJzgnLCAnLW1hJywgJzIwMCcsICctaW1hZScsICc8aW5maWxlLm1hZT4nLCAnLW9tYWUnLCAnPG91dGZpbGUubWFlPic=

>  <r_lp_tautomer_probability>  (31) 
1

>  <r_epik_Ionization_Penalty>  (31) 
0.0520316

>  <r_epik_Ionization_Penalty_Charging>  (31) 
0

>  <r_epik_Ionization_Penalty_Neutral>  (31) 
0.0520316

>  <r_epik_State_Penalty>  (31) 
0.04448

>  <r_epik_Charging_Adjusted_Penalty>  (31) 
0.04448

>  <i_epik_Tot_Q>  (31) 
0

>  <i_epik_Tot_abs_Q>  (31) 
0

>  <s_lp_Force_Field>  (31) 
OPLS3e

>  <r_lp_Energy>  (31) 
12.3231

>  <b_lp_Chiralities_Consistent>  (31) 
1

>  <s_lp_Variant>  (31) 
6:0-1

>  <s_i_glide_gridfile>  (31) 
pfpi4k_grid

>  <i_i_glide_lignum>  (31) 
11

>  <i_i_glide_rotatable_bonds>  (31) 
3

>  <r_i_docking_score>  (31) 
-5.45034

>  <r_i_glide_ligand_efficiency>  (31) 
-0.340646

>  <r_i_glide_ligand_efficiency_sa>  (31) 
-0.858375

>  <r_i_glide_ligand_efficiency_ln>  (31) 
-1.44472

>  <r_i_glide_gscore>  (31) 
-5.45034

>  <r_i_glide_lipo>  (31) 
-1.92465

>  <r_i_glide_hbond>  (31) 
0

>  <r_i_glide_metal>  (31) 
-0

>  <r_i_glide_rewards>  (31) 
-2.73383

>  <r_i_glide_evdw>  (31) 
-26.4532

>  <r_i_glide_ecoul>  (31) 
-0.483552

>  <r_i_glide_erotb>  (31) 
0.603325

>  <r_i_glide_esite>  (31) 
0

>  <r_i_glide_emodel>  (31) 
-36.5603

>  <r_i_glide_energy>  (31) 
-26.9367

>  <r_i_glide_einternal>  (31) 
0.547828

>  <r_i_glide_intrahb_reward>  (31) 
-0

>  <i_i_glide_confnum>  (31) 
1

>  <i_i_glide_posenum>  (31) 
2

>  <r_i_glide_eff_state_penalty>  (31) 
0

>  <ligand_id>  (31) 
6

>  <original_smiles>  (31) 
CC(C)NC(=O)c1nc2c(s1)CCCN2C

>  <smiles>  (31) 
[H]N(C(=O)c1nc2c(s1)C([H])([H])C([H])([H])C([H])([H])N2C([H])([H])[H])C([H])(C([H])([H])[H])C([H])([H])[H]

$$$$
6:0:1
     RDKit          3D

 33 34  0  0  1  0  0  0  0  0999 V2000
   -5.6688  -12.9929   -5.7852 C   0  0  0  0  0  0  0  0  0  0  0  0
   -4.9928  -12.1186   -6.8458 C   0  0  0  0  0  0  0  0  0  0  0  0
   -3.4685  -12.2754   -6.8334 C   0  0  0  0  0  0  0  0  0  0  0  0
   -5.3427  -10.7223   -6.6137 N   0  0  0  0  0  0  0  0  0  0  0  0
   -6.1145   -9.9599   -7.4002 C   0  0  0  0  0  0  0  0  0  0  0  0
   -6.6127  -10.3442   -8.4576 O   0  0  0  0  0  0  0  0  0  0  0  0
   -6.3888   -8.6005   -6.8665 C   0  0  0  0  0  0  0  0  0  0  0  0
   -7.4133   -7.8150   -7.2154 N   0  0  0  0  0  0  0  0  0  0  0  0
   -7.4004   -6.5980   -6.5325 C   0  0  0  0  0  0  0  0  0  0  0  0
   -6.3516   -6.4751   -5.6603 C   0  0  0  0  0  0  0  0  0  0  0  0
   -5.3080   -7.8682   -5.6700 S   0  0  0  0  0  0  0  0  0  0  0  0
   -6.1107   -5.2789   -4.8161 C   0  0  0  0  0  0  0  0  0  0  0  0
   -7.3859   -4.4234   -4.7232 C   0  0  0  0  0  0  0  0  0  0  0  0
   -8.1123   -4.2890   -6.0830 C   0  0  0  0  0  0  0  0  0  0  0  0
   -8.3693   -5.5862   -6.7084 N   0  0  0  0  0  0  0  0  0  0  0  0
   -9.4287   -5.6983   -7.7031 C   0  0  0  0  0  0  0  0  0  0  0  0
   -5.3843  -14.0331   -5.9244 H   0  0  0  0  0  0  0  0  0  0  0  0
   -6.7545  -12.9255   -5.8518 H   0  0  0  0  0  0  0  0  0  0  0  0
   -5.3839  -12.6980   -4.7759 H   0  0  0  0  0  0  0  0  0  0  0  0
   -5.3485  -12.4476   -7.8249 H   0  0  0  0  0  0  0  0  0  0  0  0
   -3.1955  -13.3233   -6.9478 H   0  0  0  0  0  0  0  0  0  0  0  0
   -3.0276  -11.9130   -5.9042 H   0  0  0  0  0  0  0  0  0  0  0  0
   -3.0180  -11.7203   -7.6558 H   0  0  0  0  0  0  0  0  0  0  0  0
   -5.0249  -10.3073   -5.7491 H   0  0  0  0  0  0  0  0  0  0  0  0
   -5.7860   -5.5888   -3.8270 H   0  0  0  0  0  0  0  0  0  0  0  0
   -5.3002   -4.6909   -5.2483 H   0  0  0  0  0  0  0  0  0  0  0  0
   -8.0741   -4.8903   -4.0179 H   0  0  0  0  0  0  0  0  0  0  0  0
   -7.1261   -3.4546   -4.3164 H   0  0  0  0  0  0  0  0  0  0  0  0
   -9.0537   -3.7552   -5.9348 H   0  0  0  0  0  0  0  0  0  0  0  0
   -7.5154   -3.6890   -6.7713 H   0  0  0  0  0  0  0  0  0  0  0  0
   -9.5604   -6.7189   -8.0584 H   0  0  0  0  0  0  0  0  0  0  0  0
   -9.2031   -5.0738   -8.5660 H   0  0  0  0  0  0  0  0  0  0  0  0
  -10.3793   -5.3768   -7.2803 H   0  0  0  0  0  0  0  0  0  0  0  0
  1  2  1  0
  1 17  1  0
  1 18  1  0
  1 19  1  0
  2  3  1  0
  2  4  1  0
  2 20  1  0
  3 21  1  0
  3 22  1  0
  3 23  1  0
  4  5  1  0
  4 24  1  0
  5  6  2  0
  5  7  1  0
  7 11  1  0
  7  8  2  0
  8  9  1  0
  9 15  1  0
  9 10  2  0
 10 11  1  0
 10 12  1  0
 12 13  1  0
 12 25  1  0
 12 26  1  0
 13 14  1  0
 13 27  1  0
 13 28  1  0
 14 15  1  0
 14 29  1  0
 14 30  1  0
 15 16  1  0
 16 31  1  0
 16 32  1  0
 16 33  1  0
M  END
>  <i_m_ct_stereo_status>  (32) 
1

>  <s_m_source_file>  (32) 
/var/tmp/pbs.5076255.sched01/tmpm7cr0ro2/0ctwvxj2z.sdf

>  <i_m_source_file_index>  (32) 
11

>  <i_lp_mmshare_version>  (32) 
48012

>  <i_f3d_flags>  (32) 
0

>  <s_epik_input>  (32) 
W0NIM11bQ0hdKFtDSDNdKVtOSF1DKD1PKWMobjEpc2MoYzEyKVtDSDJdW0NIMl1bQ0gyXU4yW0NIM10=

>  <s_epik_cmdline>  (32) 
J2VwaWtfcHl0aG9uJywgJy1waHQnLCAnMi4wJywgJy1waCcsICc3LjAnLCAnLXRuJywgJzgnLCAnLW1hJywgJzIwMCcsICctaW1hZScsICc8aW5maWxlLm1hZT4nLCAnLW9tYWUnLCAnPG91dGZpbGUubWFlPic=

>  <r_lp_tautomer_probability>  (32) 
1

>  <r_epik_Ionization_Penalty>  (32) 
0.0520316

>  <r_epik_Ionization_Penalty_Charging>  (32) 
0

>  <r_epik_Ionization_Penalty_Neutral>  (32) 
0.0520316

>  <r_epik_State_Penalty>  (32) 
0.04448

>  <r_epik_Charging_Adjusted_Penalty>  (32) 
0.04448

>  <i_epik_Tot_Q>  (32) 
0

>  <i_epik_Tot_abs_Q>  (32) 
0

>  <s_lp_Force_Field>  (32) 
OPLS3e

>  <r_lp_Energy>  (32) 
12.3231

>  <b_lp_Chiralities_Consistent>  (32) 
1

>  <s_lp_Variant>  (32) 
6:0-1

>  <s_i_glide_gridfile>  (32) 
pfpi4k_grid

>  <i_i_glide_lignum>  (32) 
11

>  <i_i_glide_rotatable_bonds>  (32) 
3

>  <r_i_docking_score>  (32) 
-5.30786

>  <r_i_glide_ligand_efficiency>  (32) 
-0.331741

>  <r_i_glide_ligand_efficiency_sa>  (32) 
-0.835935

>  <r_i_glide_ligand_efficiency_ln>  (32) 
-1.40695

>  <r_i_glide_gscore>  (32) 
-5.30786

>  <r_i_glide_lipo>  (32) 
-2.14744

>  <r_i_glide_hbond>  (32) 
0

>  <r_i_glide_metal>  (32) 
-0

>  <r_i_glide_rewards>  (32) 
-2.28084

>  <r_i_glide_evdw>  (32) 
-28.1822

>  <r_i_glide_ecoul>  (32) 
-0.491967

>  <r_i_glide_erotb>  (32) 
0.603325

>  <r_i_glide_esite>  (32) 
0

>  <r_i_glide_emodel>  (32) 
-36.929

>  <r_i_glide_energy>  (32) 
-28.6742

>  <r_i_glide_einternal>  (32) 
2.84877

>  <r_i_glide_intrahb_reward>  (32) 
-0

>  <i_i_glide_confnum>  (32) 
2

>  <i_i_glide_posenum>  (32) 
19

>  <r_i_glide_eff_state_penalty>  (32) 
0

>  <ligand_id>  (32) 
6

>  <original_smiles>  (32) 
CC(C)NC(=O)c1nc2c(s1)CCCN2C

>  <smiles>  (32) 
[H]N(C(=O)c1nc2c(s1)C([H])([H])C([H])([H])C([H])([H])N2C([H])([H])[H])C([H])(C([H])([H])[H])C([H])([H])[H]

$$$$
6:0:2
     RDKit          3D

 33 34  0  0  1  0  0  0  0  0999 V2000
   -3.7087  -11.9022   -7.9614 C   0  0  0  0  0  0  0  0  0  0  0  0
   -4.3610  -11.6428   -6.5917 C   0  0  0  0  0  0  0  0  0  0  0  0
   -5.2558  -12.8103   -6.1478 C   0  0  0  0  0  0  0  0  0  0  0  0
   -5.0913  -10.3726   -6.5650 N   0  0  0  0  0  0  0  0  0  0  0  0
   -6.1157  -10.0194   -7.3696 C   0  0  0  0  0  0  0  0  0  0  0  0
   -6.5745  -10.7333   -8.2637 O   0  0  0  0  0  0  0  0  0  0  0  0
   -6.6804   -8.6657   -7.1063 C   0  0  0  0  0  0  0  0  0  0  0  0
   -6.2501   -7.7795   -6.1998 N   0  0  0  0  0  0  0  0  0  0  0  0
   -7.0094   -6.6081   -6.2115 C   0  0  0  0  0  0  0  0  0  0  0  0
   -8.0049   -6.6045   -7.1478 C   0  0  0  0  0  0  0  0  0  0  0  0
   -8.0491   -8.0837   -8.0662 S   0  0  0  0  0  0  0  0  0  0  0  0
   -8.9488   -5.4700   -7.3618 C   0  0  0  0  0  0  0  0  0  0  0  0
   -8.3968   -4.1821   -6.7164 C   0  0  0  0  0  0  0  0  0  0  0  0
   -7.7681   -4.4449   -5.3270 C   0  0  0  0  0  0  0  0  0  0  0  0
   -6.7710   -5.5146   -5.3608 N   0  0  0  0  0  0  0  0  0  0  0  0
   -5.7636   -5.5832   -4.3185 C   0  0  0  0  0  0  0  0  0  0  0  0
   -3.1738  -12.8490   -7.9730 H   0  0  0  0  0  0  0  0  0  0  0  0
   -3.0068  -11.1122   -8.2198 H   0  0  0  0  0  0  0  0  0  0  0  0
   -4.4426  -11.9503   -8.7622 H   0  0  0  0  0  0  0  0  0  0  0  0
   -3.5586  -11.5568   -5.8551 H   0  0  0  0  0  0  0  0  0  0  0  0
   -4.7207  -13.7571   -6.1942 H   0  0  0  0  0  0  0  0  0  0  0  0
   -6.1444  -12.9004   -6.7719 H   0  0  0  0  0  0  0  0  0  0  0  0
   -5.5920  -12.6716   -5.1219 H   0  0  0  0  0  0  0  0  0  0  0  0
   -4.8127   -9.7023   -5.8568 H   0  0  0  0  0  0  0  0  0  0  0  0
   -9.1228   -5.3254   -8.4289 H   0  0  0  0  0  0  0  0  0  0  0  0
   -9.9189   -5.7179   -6.9257 H   0  0  0  0  0  0  0  0  0  0  0  0
   -7.6181   -3.7841   -7.3633 H   0  0  0  0  0  0  0  0  0  0  0  0
   -9.1735   -3.4237   -6.6605 H   0  0  0  0  0  0  0  0  0  0  0  0
   -7.3027   -3.5268   -4.9614 H   0  0  0  0  0  0  0  0  0  0  0  0
   -8.5467   -4.7070   -4.6074 H   0  0  0  0  0  0  0  0  0  0  0  0
   -5.0502   -6.3945   -4.4412 H   0  0  0  0  0  0  0  0  0  0  0  0
   -6.2307   -5.7222   -3.3450 H   0  0  0  0  0  0  0  0  0  0  0  0
   -5.1960   -4.6576   -4.3209 H   0  0  0  0  0  0  0  0  0  0  0  0
  1  2  1  0
  1 17  1  0
  1 18  1  0
  1 19  1  0
  2  3  1  0
  2  4  1  0
  2 20  1  0
  3 21  1  0
  3 22  1  0
  3 23  1  0
  4  5  1  0
  4 24  1  0
  5  6  2  0
  5  7  1  0
  7 11  1  0
  7  8  2  0
  8  9  1  0
  9 15  1  0
  9 10  2  0
 10 11  1  0
 10 12  1  0
 12 13  1  0
 12 25  1  0
 12 26  1  0
 13 14  1  0
 13 27  1  0
 13 28  1  0
 14 15  1  0
 14 29  1  0
 14 30  1  0
 15 16  1  0
 16 31  1  0
 16 32  1  0
 16 33  1  0
M  END
>  <i_m_ct_stereo_status>  (33) 
1

>  <s_m_source_file>  (33) 
/var/tmp/pbs.5076255.sched01/tmpm7cr0ro2/0ctwvxj2z.sdf

>  <i_m_source_file_index>  (33) 
11

>  <i_lp_mmshare_version>  (33) 
48012

>  <i_f3d_flags>  (33) 
0

>  <s_epik_input>  (33) 
W0NIM11bQ0hdKFtDSDNdKVtOSF1DKD1PKWMobjEpc2MoYzEyKVtDSDJdW0NIMl1bQ0gyXU4yW0NIM10=

>  <s_epik_cmdline>  (33) 
J2VwaWtfcHl0aG9uJywgJy1waHQnLCAnMi4wJywgJy1waCcsICc3LjAnLCAnLXRuJywgJzgnLCAnLW1hJywgJzIwMCcsICctaW1hZScsICc8aW5maWxlLm1hZT4nLCAnLW9tYWUnLCAnPG91dGZpbGUubWFlPic=

>  <r_lp_tautomer_probability>  (33) 
1

>  <r_epik_Ionization_Penalty>  (33) 
0.0520316

>  <r_epik_Ionization_Penalty_Charging>  (33) 
0

>  <r_epik_Ionization_Penalty_Neutral>  (33) 
0.0520316

>  <r_epik_State_Penalty>  (33) 
0.04448

>  <r_epik_Charging_Adjusted_Penalty>  (33) 
0.04448

>  <i_epik_Tot_Q>  (33) 
0

>  <i_epik_Tot_abs_Q>  (33) 
0

>  <s_lp_Force_Field>  (33) 
OPLS3e

>  <r_lp_Energy>  (33) 
12.3231

>  <b_lp_Chiralities_Consistent>  (33) 
1

>  <s_lp_Variant>  (33) 
6:0-1

>  <s_i_glide_gridfile>  (33) 
pfpi4k_grid

>  <i_i_glide_lignum>  (33) 
11

>  <i_i_glide_rotatable_bonds>  (33) 
3

>  <r_i_docking_score>  (33) 
-5.30452

>  <r_i_glide_ligand_efficiency>  (33) 
-0.331532

>  <r_i_glide_ligand_efficiency_sa>  (33) 
-0.835409

>  <r_i_glide_ligand_efficiency_ln>  (33) 
-1.40607

>  <r_i_glide_gscore>  (33) 
-5.30452

>  <r_i_glide_lipo>  (33) 
-1.77491

>  <r_i_glide_hbond>  (33) 
0

>  <r_i_glide_metal>  (33) 
-0

>  <r_i_glide_rewards>  (33) 
-2.7085

>  <r_i_glide_evdw>  (33) 
-26.9749

>  <r_i_glide_ecoul>  (33) 
-0.504558

>  <r_i_glide_erotb>  (33) 
0.603325

>  <r_i_glide_esite>  (33) 
0

>  <r_i_glide_emodel>  (33) 
-37.0104

>  <r_i_glide_energy>  (33) 
-27.4795

>  <r_i_glide_einternal>  (33) 
0.0922417

>  <r_i_glide_intrahb_reward>  (33) 
-0

>  <i_i_glide_confnum>  (33) 
1

>  <i_i_glide_posenum>  (33) 
17

>  <r_i_glide_eff_state_penalty>  (33) 
0

>  <ligand_id>  (33) 
6

>  <original_smiles>  (33) 
CC(C)NC(=O)c1nc2c(s1)CCCN2C

>  <smiles>  (33) 
[H]N(C(=O)c1nc2c(s1)C([H])([H])C([H])([H])C([H])([H])N2C([H])([H])[H])C([H])(C([H])([H])[H])C([H])([H])[H]

$$$$
6:1:0
     RDKit          3D

 34 35  0  0  1  0  0  0  0  0999 V2000
    5.5252   -1.7011   -1.8534 C   0  0  0  0  0  0  0  0  0  0  0  0
    4.2323   -2.4085   -1.3993 C   0  0  0  0  0  0  0  0  0  0  0  0
    3.3821   -2.8170   -2.6101 C   0  0  0  0  0  0  0  0  0  0  0  0
    3.4278   -1.5939   -0.4861 N   0  0  0  0  0  0  0  0  0  0  0  0
    3.8538   -1.0757    0.6747 C   0  0  0  0  0  0  0  0  0  0  0  0
    5.0103   -1.1040    1.0964 O   0  0  0  0  0  0  0  0  0  0  0  0
    2.7999   -0.4241    1.4683 C   0  0  0  0  0  0  0  0  0  0  0  0
    2.5671    0.8873    1.5296 N   0  0  0  0  0  0  0  0  0  0  0  0
    1.4575    1.1509    2.3174 C   0  0  0  0  0  0  0  0  0  0  0  0
    0.9177    0.0611    2.9423 C   0  0  0  0  0  0  0  0  0  0  0  0
    1.7603   -1.3978    2.5087 S   0  0  0  0  0  0  0  0  0  0  0  0
   -0.2333    0.1346    3.8819 C   0  0  0  0  0  0  0  0  0  0  0  0
   -0.4555    1.5862    4.3536 C   0  0  0  0  0  0  0  0  0  0  0  0
   -0.3340    2.5914    3.1783 C   0  0  0  0  0  0  0  0  0  0  0  0
    0.9982    2.5461    2.5179 N   0  0  1  0  0  0  0  0  0  0  0  0
    2.0064    3.3878    3.2056 C   0  0  0  0  0  0  0  0  0  0  0  0
    6.0741   -2.3184   -2.5661 H   0  0  0  0  0  0  0  0  0  0  0  0
    6.2065   -1.5261   -1.0229 H   0  0  0  0  0  0  0  0  0  0  0  0
    5.3119   -0.7351   -2.3122 H   0  0  0  0  0  0  0  0  0  0  0  0
    4.5079   -3.3167   -0.8604 H   0  0  0  0  0  0  0  0  0  0  0  0
    3.9669   -3.4162   -3.3109 H   0  0  0  0  0  0  0  0  0  0  0  0
    2.9990   -1.9469   -3.1464 H   0  0  0  0  0  0  0  0  0  0  0  0
    2.5255   -3.4204   -2.3089 H   0  0  0  0  0  0  0  0  0  0  0  0
    2.4423   -1.4536   -0.7211 H   0  0  0  0  0  0  0  0  0  0  0  0
   -1.1266   -0.2162    3.3655 H   0  0  0  0  0  0  0  0  0  0  0  0
   -0.0735   -0.5279    4.7352 H   0  0  0  0  0  0  0  0  0  0  0  0
   -1.4224    1.6822    4.8471 H   0  0  0  0  0  0  0  0  0  0  0  0
    0.2995    1.8326    5.1049 H   0  0  0  0  0  0  0  0  0  0  0  0
   -1.0885    2.3629    2.4232 H   0  0  0  0  0  0  0  0  0  0  0  0
   -0.5456    3.6069    3.5158 H   0  0  0  0  0  0  0  0  0  0  0  0
    2.9475    3.4028    2.6504 H   0  0  0  0  0  0  0  0  0  0  0  0
    2.2121    3.0120    4.2095 H   0  0  0  0  0  0  0  0  0  0  0  0
    1.6554    4.4193    3.2881 H   0  0  0  0  0  0  0  0  0  0  0  0
    0.8433    3.0258    1.6299 H   0  0  0  0  0  0  0  0  0  0  0  0
  1  2  1  0
  1 17  1  0
  1 18  1  0
  1 19  1  0
  2  3  1  0
  2  4  1  0
  2 20  1  0
  3 21  1  0
  3 22  1  0
  3 23  1  0
  4  5  1  0
  4 24  1  0
  5  6  2  0
  5  7  1  0
  7 11  1  0
  7  8  2  0
  8  9  1  0
  9 15  1  0
  9 10  2  0
 10 11  1  0
 10 12  1  0
 12 13  1  0
 12 25  1  0
 12 26  1  0
 13 14  1  0
 13 27  1  0
 13 28  1  0
 14 15  1  0
 14 29  1  0
 14 30  1  0
 15 16  1  0
 15 34  1  6
 16 31  1  0
 16 32  1  0
 16 33  1  0
M  CHG  1  15   1
M  END
>  <i_m_ct_stereo_status>  (34) 
1

>  <s_m_source_file>  (34) 
/var/tmp/pbs.5076255.sched01/tmpm7cr0ro2/0ctwvxj2z.sdf

>  <i_m_source_file_index>  (34) 
12

>  <i_lp_mmshare_version>  (34) 
48012

>  <i_f3d_flags>  (34) 
0

>  <s_epik_input>  (34) 
W0NIM11bQ0hdKFtDSDNdKVtOSF1DKD1PKWMobjEpc2MoYzEyKVtDSDJdW0NIMl1bQ0gyXU4yW0NIM10=

>  <s_epik_cmdline>  (34) 
J2VwaWtfcHl0aG9uJywgJy1waHQnLCAnMi4wJywgJy1waCcsICc3LjAnLCAnLXRuJywgJzgnLCAnLW1hJywgJzIwMCcsICctaW1hZScsICc8aW5maWxlLm1hZT4nLCAnLW9tYWUnLCAnPG91dGZpbGUubWFlPic=

>  <r_lp_tautomer_probability>  (34) 
0.9048

>  <r_epik_Ionization_Penalty>  (34) 
1.46863

>  <r_epik_Ionization_Penalty_Charging>  (34) 
1.46859

>  <r_epik_Ionization_Penalty_Neutral>  (34) 
3.92889e-05

>  <r_epik_State_Penalty>  (34) 
1.55622

>  <r_epik_Charging_Adjusted_Penalty>  (34) 
3.02481

>  <i_epik_Tot_Q>  (34) 
1

>  <i_epik_Tot_abs_Q>  (34) 
1

>  <s_lp_Force_Field>  (34) 
OPLS3e

>  <r_lp_Energy>  (34) 
14.554

>  <b_lp_Chiralities_Consistent>  (34) 
1

>  <s_lp_Variant>  (34) 
6:0-2

>  <s_i_glide_gridfile>  (34) 
pfpi4k_grid

>  <i_i_glide_lignum>  (34) 
12

>  <i_i_glide_rotatable_bonds>  (34) 
3

>  <r_i_docking_score>  (34) 
-4.04679

>  <r_i_glide_ligand_efficiency>  (34) 
-0.252924

>  <r_i_glide_ligand_efficiency_sa>  (34) 
-0.637329

>  <r_i_glide_ligand_efficiency_ln>  (34) 
-1.07268

>  <r_i_glide_gscore>  (34) 
-4.04679

>  <r_i_glide_lipo>  (34) 
0

>  <r_i_glide_hbond>  (34) 
-0.359454

>  <r_i_glide_metal>  (34) 
-0

>  <r_i_glide_rewards>  (34) 
-1.77037

>  <r_i_glide_evdw>  (34) 
-18.802

>  <r_i_glide_ecoul>  (34) 
-9.02154

>  <r_i_glide_erotb>  (34) 
0.599016

>  <r_i_glide_esite>  (34) 
-0.222651

>  <r_i_glide_emodel>  (34) 
-35.0493

>  <r_i_glide_energy>  (34) 
-27.8236

>  <r_i_glide_einternal>  (34) 
4.56523

>  <r_i_glide_intrahb_reward>  (34) 
-0

>  <i_i_glide_confnum>  (34) 
4

>  <i_i_glide_posenum>  (34) 
30

>  <r_i_glide_eff_state_penalty>  (34) 
0

>  <ligand_id>  (34) 
6

>  <original_smiles>  (34) 
CC(C)NC(=O)c1nc2c(s1)CCCN2C

>  <smiles>  (34) 
[H]N(C(=O)c1nc2c(s1)C([H])([H])C([H])([H])C([H])([H])[N+]2([H])C([H])([H])[H])C([H])(C([H])([H])[H])C([H])([H])[H]

$$$$
6:1:1
     RDKit          3D

 34 35  0  0  1  0  0  0  0  0999 V2000
    4.4760   -1.1669   -2.4116 C   0  0  0  0  0  0  0  0  0  0  0  0
    4.1961   -2.0679   -1.1986 C   0  0  0  0  0  0  0  0  0  0  0  0
    3.4747   -3.3560   -1.6052 C   0  0  0  0  0  0  0  0  0  0  0  0
    3.4140   -1.3608   -0.1882 N   0  0  0  0  0  0  0  0  0  0  0  0
    3.8094   -1.1606    1.0784 C   0  0  0  0  0  0  0  0  0  0  0  0
    4.8466   -1.5997    1.5716 O   0  0  0  0  0  0  0  0  0  0  0  0
    2.8906   -0.3182    1.8715 C   0  0  0  0  0  0  0  0  0  0  0  0
    2.6928    0.9849    1.6774 N   0  0  0  0  0  0  0  0  0  0  0  0
    1.7767    1.5009    2.5775 C   0  0  0  0  0  0  0  0  0  0  0  0
    1.3099    0.6049    3.4916 C   0  0  0  0  0  0  0  0  0  0  0  0
    2.0270   -0.9690    3.2661 S   0  0  0  0  0  0  0  0  0  0  0  0
    0.3226    0.9497    4.5525 C   0  0  0  0  0  0  0  0  0  0  0  0
    0.2344    2.4791    4.7273 C   0  0  0  0  0  0  0  0  0  0  0  0
    0.2039    3.2150    3.3591 C   0  0  0  0  0  0  0  0  0  0  0  0
    1.4137    2.9435    2.5377 N   0  0  1  0  0  0  0  0  0  0  0  0
    2.5415    3.8483    2.8715 C   0  0  0  0  0  0  0  0  0  0  0  0
    5.0144   -1.7232   -3.1819 H   0  0  0  0  0  0  0  0  0  0  0  0
    5.0881   -0.3072   -2.1377 H   0  0  0  0  0  0  0  0  0  0  0  0
    3.5566   -0.7895   -2.8591 H   0  0  0  0  0  0  0  0  0  0  0  0
    5.1688   -2.3579   -0.7919 H   0  0  0  0  0  0  0  0  0  0  0  0
    4.0347   -3.8743   -2.3840 H   0  0  0  0  0  0  0  0  0  0  0  0
    2.4728   -3.1560   -1.9871 H   0  0  0  0  0  0  0  0  0  0  0  0
    3.3798   -4.0364   -0.7582 H   0  0  0  0  0  0  0  0  0  0  0  0
    2.4803   -1.0454   -0.4514 H   0  0  0  0  0  0  0  0  0  0  0  0
   -0.6501    0.5586    4.2577 H   0  0  0  0  0  0  0  0  0  0  0  0
    0.5917    0.4696    5.4937 H   0  0  0  0  0  0  0  0  0  0  0  0
   -0.6366    2.7419    5.3285 H   0  0  0  0  0  0  0  0  0  0  0  0
    1.1082    2.8227    5.2866 H   0  0  0  0  0  0  0  0  0  0  0  0
   -0.6680    2.8877    2.7898 H   0  0  0  0  0  0  0  0  0  0  0  0
    0.0801    4.2917    3.4982 H   0  0  0  0  0  0  0  0  0  0  0  0
    3.3808    3.6992    2.1961 H   0  0  0  0  0  0  0  0  0  0  0  0
    2.8889    3.6679    3.8893 H   0  0  0  0  0  0  0  0  0  0  0  0
    2.2384    4.8933    2.7828 H   0  0  0  0  0  0  0  0  0  0  0  0
    1.1200    3.2242    1.6012 H   0  0  0  0  0  0  0  0  0  0  0  0
  1  2  1  0
  1 17  1  0
  1 18  1  0
  1 19  1  0
  2  3  1  0
  2  4  1  0
  2 20  1  0
  3 21  1  0
  3 22  1  0
  3 23  1  0
  4  5  1  0
  4 24  1  0
  5  6  2  0
  5  7  1  0
  7 11  1  0
  7  8  2  0
  8  9  1  0
  9 15  1  0
  9 10  2  0
 10 11  1  0
 10 12  1  0
 12 13  1  0
 12 25  1  0
 12 26  1  0
 13 14  1  0
 13 27  1  0
 13 28  1  0
 14 15  1  0
 14 29  1  0
 14 30  1  0
 15 16  1  0
 15 34  1  6
 16 31  1  0
 16 32  1  0
 16 33  1  0
M  CHG  1  15   1
M  END
>  <i_m_ct_stereo_status>  (35) 
1

>  <s_m_source_file>  (35) 
/var/tmp/pbs.5076255.sched01/tmpm7cr0ro2/0ctwvxj2z.sdf

>  <i_m_source_file_index>  (35) 
12

>  <i_lp_mmshare_version>  (35) 
48012

>  <i_f3d_flags>  (35) 
0

>  <s_epik_input>  (35) 
W0NIM11bQ0hdKFtDSDNdKVtOSF1DKD1PKWMobjEpc2MoYzEyKVtDSDJdW0NIMl1bQ0gyXU4yW0NIM10=

>  <s_epik_cmdline>  (35) 
J2VwaWtfcHl0aG9uJywgJy1waHQnLCAnMi4wJywgJy1waCcsICc3LjAnLCAnLXRuJywgJzgnLCAnLW1hJywgJzIwMCcsICctaW1hZScsICc8aW5maWxlLm1hZT4nLCAnLW9tYWUnLCAnPG91dGZpbGUubWFlPic=

>  <r_lp_tautomer_probability>  (35) 
0.9048

>  <r_epik_Ionization_Penalty>  (35) 
1.46863

>  <r_epik_Ionization_Penalty_Charging>  (35) 
1.46859

>  <r_epik_Ionization_Penalty_Neutral>  (35) 
3.92889e-05

>  <r_epik_State_Penalty>  (35) 
1.55622

>  <r_epik_Charging_Adjusted_Penalty>  (35) 
3.02481

>  <i_epik_Tot_Q>  (35) 
1

>  <i_epik_Tot_abs_Q>  (35) 
1

>  <s_lp_Force_Field>  (35) 
OPLS3e

>  <r_lp_Energy>  (35) 
14.554

>  <b_lp_Chiralities_Consistent>  (35) 
1

>  <s_lp_Variant>  (35) 
6:0-2

>  <s_i_glide_gridfile>  (35) 
pfpi4k_grid

>  <i_i_glide_lignum>  (35) 
12

>  <i_i_glide_rotatable_bonds>  (35) 
3

>  <r_i_docking_score>  (35) 
-3.98672

>  <r_i_glide_ligand_efficiency>  (35) 
-0.24917

>  <r_i_glide_ligand_efficiency_sa>  (35) 
-0.627869

>  <r_i_glide_ligand_efficiency_ln>  (35) 
-1.05676

>  <r_i_glide_gscore>  (35) 
-3.98672

>  <r_i_glide_lipo>  (35) 
-0.0585238

>  <r_i_glide_hbond>  (35) 
-0.33544

>  <r_i_glide_metal>  (35) 
-0

>  <r_i_glide_rewards>  (35) 
-1.77037

>  <r_i_glide_evdw>  (35) 
-17.5391

>  <r_i_glide_ecoul>  (35) 
-8.83886

>  <r_i_glide_erotb>  (35) 
0.599016

>  <r_i_glide_esite>  (35) 
-0.21862

>  <r_i_glide_emodel>  (35) 
-33.2722

>  <r_i_glide_energy>  (35) 
-26.378

>  <r_i_glide_einternal>  (35) 
4.78842

>  <r_i_glide_intrahb_reward>  (35) 
-0

>  <i_i_glide_confnum>  (35) 
1

>  <i_i_glide_posenum>  (35) 
5

>  <r_i_glide_eff_state_penalty>  (35) 
0

>  <ligand_id>  (35) 
6

>  <original_smiles>  (35) 
CC(C)NC(=O)c1nc2c(s1)CCCN2C

>  <smiles>  (35) 
[H]N(C(=O)c1nc2c(s1)C([H])([H])C([H])([H])C([H])([H])[N+]2([H])C([H])([H])[H])C([H])(C([H])([H])[H])C([H])([H])[H]

$$$$
6:1:2
     RDKit          3D

 34 35  0  0  1  0  0  0  0  0999 V2000
    5.1675   -1.2664   -1.1716 C   0  0  0  0  0  0  0  0  0  0  0  0
    5.5173   -0.7234    0.2208 C   0  0  0  0  0  0  0  0  0  0  0  0
    6.3016   -1.7363    1.0811 C   0  0  0  0  0  0  0  0  0  0  0  0
    4.3110   -0.2313    0.8932 N   0  0  0  0  0  0  0  0  0  0  0  0
    3.3292   -0.9711    1.4370 C   0  0  0  0  0  0  0  0  0  0  0  0
    3.2696   -2.1997    1.4159 O   0  0  0  0  0  0  0  0  0  0  0  0
    2.2774   -0.1784    2.1310 C   0  0  0  0  0  0  0  0  0  0  0  0
    2.1208    1.1495    2.0795 N   0  0  0  0  0  0  0  0  0  0  0  0
    0.9874    1.5345    2.7845 C   0  0  0  0  0  0  0  0  0  0  0  0
    0.3151    0.5206    3.4140 C   0  0  0  0  0  0  0  0  0  0  0  0
    1.0724   -1.0146    3.1266 S   0  0  0  0  0  0  0  0  0  0  0  0
   -0.8973    0.7152    4.2484 C   0  0  0  0  0  0  0  0  0  0  0  0
   -1.0439    2.1976    4.6454 C   0  0  0  0  0  0  0  0  0  0  0  0
   -0.7433    3.1346    3.4464 C   0  0  0  0  0  0  0  0  0  0  0  0
    0.6301    2.9613    2.8984 N   0  0  1  0  0  0  0  0  0  0  0  0
    1.6445    3.7471    3.6470 C   0  0  0  0  0  0  0  0  0  0  0  0
    6.0482   -1.6762   -1.6701 H   0  0  0  0  0  0  0  0  0  0  0  0
    4.7488   -0.4808   -1.8038 H   0  0  0  0  0  0  0  0  0  0  0  0
    4.4210   -2.0585   -1.1086 H   0  0  0  0  0  0  0  0  0  0  0  0
    6.1709    0.1347    0.0799 H   0  0  0  0  0  0  0  0  0  0  0  0
    7.1873   -2.1033    0.5605 H   0  0  0  0  0  0  0  0  0  0  0  0
    5.7192   -2.6189    1.3381 H   0  0  0  0  0  0  0  0  0  0  0  0
    6.6162   -1.2799    2.0191 H   0  0  0  0  0  0  0  0  0  0  0  0
    4.2122    0.7724    0.9681 H   0  0  0  0  0  0  0  0  0  0  0  0
   -1.7723    0.4060    3.6712 H   0  0  0  0  0  0  0  0  0  0  0  0
   -0.8534    0.0796    5.1379 H   0  0  0  0  0  0  0  0  0  0  0  0
   -2.0405    2.3876    5.0479 H   0  0  0  0  0  0  0  0  0  0  0  0
   -0.3367    2.4153    5.4565 H   0  0  0  0  0  0  0  0  0  0  0  0
   -1.4468    2.9257    2.6377 H   0  0  0  0  0  0  0  0  0  0  0  0
   -0.8967    4.1745    3.7337 H   0  0  0  0  0  0  0  0  0  0  0  0
    2.6279    3.6601    3.1792 H   0  0  0  0  0  0  0  0  0  0  0  0
    1.7338    3.4036    4.6766 H   0  0  0  0  0  0  0  0  0  0  0  0
    1.3799    4.8063    3.6616 H   0  0  0  0  0  0  0  0  0  0  0  0
    0.5969    3.3737    1.9599 H   0  0  0  0  0  0  0  0  0  0  0  0
  1  2  1  0
  1 17  1  0
  1 18  1  0
  1 19  1  0
  2  3  1  0
  2  4  1  0
  2 20  1  0
  3 21  1  0
  3 22  1  0
  3 23  1  0
  4  5  1  0
  4 24  1  0
  5  6  2  0
  5  7  1  0
  7 11  1  0
  7  8  2  0
  8  9  1  0
  9 15  1  0
  9 10  2  0
 10 11  1  0
 10 12  1  0
 12 13  1  0
 12 25  1  0
 12 26  1  0
 13 14  1  0
 13 27  1  0
 13 28  1  0
 14 15  1  0
 14 29  1  0
 14 30  1  0
 15 16  1  0
 15 34  1  6
 16 31  1  0
 16 32  1  0
 16 33  1  0
M  CHG  1  15   1
M  END
>  <i_m_ct_stereo_status>  (36) 
1

>  <s_m_source_file>  (36) 
/var/tmp/pbs.5076255.sched01/tmpm7cr0ro2/0ctwvxj2z.sdf

>  <i_m_source_file_index>  (36) 
12

>  <i_lp_mmshare_version>  (36) 
48012

>  <i_f3d_flags>  (36) 
0

>  <s_epik_input>  (36) 
W0NIM11bQ0hdKFtDSDNdKVtOSF1DKD1PKWMobjEpc2MoYzEyKVtDSDJdW0NIMl1bQ0gyXU4yW0NIM10=

>  <s_epik_cmdline>  (36) 
J2VwaWtfcHl0aG9uJywgJy1waHQnLCAnMi4wJywgJy1waCcsICc3LjAnLCAnLXRuJywgJzgnLCAnLW1hJywgJzIwMCcsICctaW1hZScsICc8aW5maWxlLm1hZT4nLCAnLW9tYWUnLCAnPG91dGZpbGUubWFlPic=

>  <r_lp_tautomer_probability>  (36) 
0.9048

>  <r_epik_Ionization_Penalty>  (36) 
1.46863

>  <r_epik_Ionization_Penalty_Charging>  (36) 
1.46859

>  <r_epik_Ionization_Penalty_Neutral>  (36) 
3.92889e-05

>  <r_epik_State_Penalty>  (36) 
1.55622

>  <r_epik_Charging_Adjusted_Penalty>  (36) 
3.02481

>  <i_epik_Tot_Q>  (36) 
1

>  <i_epik_Tot_abs_Q>  (36) 
1

>  <s_lp_Force_Field>  (36) 
OPLS3e

>  <r_lp_Energy>  (36) 
14.554

>  <b_lp_Chiralities_Consistent>  (36) 
1

>  <s_lp_Variant>  (36) 
6:0-2

>  <s_i_glide_gridfile>  (36) 
pfpi4k_grid

>  <i_i_glide_lignum>  (36) 
12

>  <i_i_glide_rotatable_bonds>  (36) 
3

>  <r_i_docking_score>  (36) 
-3.51799

>  <r_i_glide_ligand_efficiency>  (36) 
-0.219874

>  <r_i_glide_ligand_efficiency_sa>  (36) 
-0.554048

>  <r_i_glide_ligand_efficiency_ln>  (36) 
-0.932513

>  <r_i_glide_gscore>  (36) 
-3.51799

>  <r_i_glide_lipo>  (36) 
-0.203568

>  <r_i_glide_hbond>  (36) 
-0.2

>  <r_i_glide_metal>  (36) 
-0

>  <r_i_glide_rewards>  (36) 
-1.77037

>  <r_i_glide_evdw>  (36) 
-19.1799

>  <r_i_glide_ecoul>  (36) 
-5.74348

>  <r_i_glide_erotb>  (36) 
0.599016

>  <r_i_glide_esite>  (36) 
-0.12255

>  <r_i_glide_emodel>  (36) 
-32.981

>  <r_i_glide_energy>  (36) 
-24.9234

>  <r_i_glide_einternal>  (36) 
0.305275

>  <r_i_glide_intrahb_reward>  (36) 
-0

>  <i_i_glide_confnum>  (36) 
1

>  <i_i_glide_posenum>  (36) 
19

>  <r_i_glide_eff_state_penalty>  (36) 
0

>  <ligand_id>  (36) 
6

>  <original_smiles>  (36) 
CC(C)NC(=O)c1nc2c(s1)CCCN2C

>  <smiles>  (36) 
[H]N(C(=O)c1nc2c(s1)C([H])([H])C([H])([H])C([H])([H])[N+]2([H])C([H])([H])[H])C([H])(C([H])([H])[H])C([H])([H])[H]

$$$$
7:0:0
     RDKit          3D

 79 84  0  0  1  0  0  0  0  0999 V2000
   -2.0506   -9.2088    2.1300 C   0  0  0  0  0  0  0  0  0  0  0  0
   -1.6585   -8.3170    3.3019 C   0  0  0  0  0  0  0  0  0  0  0  0
   -2.4405   -7.4512    3.6738 O   0  0  0  0  0  0  0  0  0  0  0  0
   -0.4524   -8.5009    3.8717 N   0  0  0  0  0  0  0  0  0  0  0  0
    0.4762   -9.5593    3.5154 C   0  0  0  0  0  0  0  0  0  0  0  0
    1.7733   -9.1279    4.2202 C   0  0  2  0  0  0  0  0  0  0  0  0
    2.2184  -10.2563    5.1735 C   0  0  0  0  0  0  0  0  0  0  0  0
    1.2932   -7.9362    4.9823 C   0  0  0  0  0  0  0  0  0  0  0  0
    0.0708   -7.6352    4.7833 N   0  0  0  0  0  0  0  0  0  0  0  0
    2.2569   -7.1273    5.7931 C   0  0  0  0  0  0  0  0  0  0  0  0
    3.4361   -6.7030    4.8912 C   0  0  0  0  0  0  0  0  0  0  0  0
    4.0408   -7.8825    4.0658 C   0  0  1  0  0  0  0  0  0  0  0  0
    2.9410   -8.6731    3.2821 C   0  0  2  0  0  0  0  0  0  0  0  0
    2.4621   -7.8818    2.0239 C   0  0  0  0  0  0  0  0  0  0  0  0
    3.4340   -6.8046    1.5032 C   0  0  0  0  0  0  0  0  0  0  0  0
    4.9258   -7.1560    1.6715 C   0  0  1  0  0  0  0  0  0  0  0  0
    5.2291   -8.3651    0.7491 C   0  0  0  0  0  0  0  0  0  0  0  0
    5.9198   -5.9852    1.3216 C   0  0  1  0  0  0  0  0  0  0  0  0
    5.3549   -4.5374    1.0690 C   0  0  2  0  0  0  0  0  0  0  0  0
    6.3525   -3.7123    0.2246 C   0  0  0  0  0  0  0  0  0  0  0  0
    4.9570   -3.7305    2.3345 C   0  0  0  0  0  0  0  0  0  0  0  0
    4.1173   -2.5469    2.0152 N   0  0  0  0  0  0  0  0  0  0  0  0
    4.0547   -1.5283    3.0862 C   0  0  0  0  0  0  0  0  0  0  0  0
    2.9593   -0.5270    2.8617 C   0  0  0  0  0  0  0  0  0  0  0  0
    2.0063   -0.0536    3.7204 C   0  0  0  0  0  0  0  0  0  0  0  0
    1.2621    0.8271    2.9474 N   0  0  0  0  0  0  0  0  0  0  0  0
    0.1234    1.5863    3.3342 C   0  0  0  0  0  0  0  0  0  0  0  0
   -0.9651    1.7667    2.4627 C   0  0  0  0  0  0  0  0  0  0  0  0
   -2.0561    2.5482    2.8882 C   0  0  0  0  0  0  0  0  0  0  0  0
   -2.1291    3.1221    4.1053 N   0  0  0  0  0  0  0  0  0  0  0  0
   -1.0915    2.9302    4.9439 C   0  0  0  0  0  0  0  0  0  0  0  0
    0.0509    2.1727    4.6154 C   0  0  0  0  0  0  0  0  0  0  0  0
    1.7499    0.8831    1.6841 N   0  0  0  0  0  0  0  0  0  0  0  0
    2.7706    0.0871    1.6248 N   0  0  0  0  0  0  0  0  0  0  0  0
    7.0134   -6.0556    2.3994 C   0  0  0  0  0  0  0  0  0  0  0  0
    6.3010   -6.5497    3.6562 C   0  0  0  0  0  0  0  0  0  0  0  0
    5.2533   -7.5505    3.1382 C   0  0  1  0  0  0  0  0  0  0  0  0
   -2.1394  -10.2394    2.4551 H   0  0  0  0  0  0  0  0  0  0  0  0
   -1.3310   -9.1546    1.3302 H   0  0  0  0  0  0  0  0  0  0  0  0
   -2.9821   -8.8626    1.6898 H   0  0  0  0  0  0  0  0  0  0  0  0
    0.0701  -10.4986    3.9043 H   0  0  0  0  0  0  0  0  0  0  0  0
    0.5895   -9.6775    2.4368 H   0  0  0  0  0  0  0  0  0  0  0  0
    2.5350  -11.1285    4.6000 H   0  0  0  0  0  0  0  0  0  0  0  0
    1.4078  -10.5816    5.8328 H   0  0  0  0  0  0  0  0  0  0  0  0
    3.0508   -9.9633    5.8128 H   0  0  0  0  0  0  0  0  0  0  0  0
    1.7659   -6.2608    6.2381 H   0  0  0  0  0  0  0  0  0  0  0  0
    2.6235   -7.7316    6.6190 H   0  0  0  0  0  0  0  0  0  0  0  0
    3.0970   -5.9025    4.2354 H   0  0  0  0  0  0  0  0  0  0  0  0
    4.1994   -6.2693    5.5372 H   0  0  0  0  0  0  0  0  0  0  0  0
    4.4458   -8.5567    4.8187 H   0  0  0  0  0  0  0  0  0  0  0  0
    3.4092   -9.5900    2.9097 H   0  0  0  0  0  0  0  0  0  0  0  0
    2.3060   -8.6049    1.2270 H   0  0  0  0  0  0  0  0  0  0  0  0
    1.4858   -7.4129    2.1727 H   0  0  0  0  0  0  0  0  0  0  0  0
    3.2161   -6.5843    0.4556 H   0  0  0  0  0  0  0  0  0  0  0  0
    3.2193   -5.8943    2.0497 H   0  0  0  0  0  0  0  0  0  0  0  0
    6.2823   -8.6526    0.7874 H   0  0  0  0  0  0  0  0  0  0  0  0
    4.9787   -8.1323   -0.2849 H   0  0  0  0  0  0  0  0  0  0  0  0
    4.6609   -9.2574    1.0091 H   0  0  0  0  0  0  0  0  0  0  0  0
    6.4082   -6.2472    0.3822 H   0  0  0  0  0  0  0  0  0  0  0  0
    4.4716   -4.6440    0.4389 H   0  0  0  0  0  0  0  0  0  0  0  0
    7.2952   -3.5394    0.7476 H   0  0  0  0  0  0  0  0  0  0  0  0
    5.9403   -2.7401   -0.0467 H   0  0  0  0  0  0  0  0  0  0  0  0
    6.5843   -4.2240   -0.7101 H   0  0  0  0  0  0  0  0  0  0  0  0
    4.4048   -4.3499    3.0352 H   0  0  0  0  0  0  0  0  0  0  0  0
    5.8575   -3.4247    2.8682 H   0  0  0  0  0  0  0  0  0  0  0  0
    4.4853   -2.0857    1.1946 H   0  0  0  0  0  0  0  0  0  0  0  0
    3.9115   -2.0094    4.0547 H   0  0  0  0  0  0  0  0  0  0  0  0
    5.0143   -1.0108    3.1452 H   0  0  0  0  0  0  0  0  0  0  0  0
    1.7916   -0.2627    4.7622 H   0  0  0  0  0  0  0  0  0  0  0  0
   -0.9687    1.3498    1.4638 H   0  0  0  0  0  0  0  0  0  0  0  0
   -2.9066    2.7193    2.2422 H   0  0  0  0  0  0  0  0  0  0  0  0
   -1.1789    3.3996    5.9125 H   0  0  0  0  0  0  0  0  0  0  0  0
    0.8592    2.0735    5.3212 H   0  0  0  0  0  0  0  0  0  0  0  0
    7.7601   -6.7942    2.1068 H   0  0  0  0  0  0  0  0  0  0  0  0
    7.5487   -5.1174    2.5425 H   0  0  0  0  0  0  0  0  0  0  0  0
    6.9904   -7.0034    4.3714 H   0  0  0  0  0  0  0  0  0  0  0  0
    5.8366   -5.6994    4.1470 H   0  0  0  0  0  0  0  0  0  0  0  0
    5.8012   -8.4916    3.0777 H   0  0  0  0  0  0  0  0  0  0  0  0
    3.1774   -2.8542    1.8122 H   0  0  0  0  0  0  0  0  0  0  0  0
  1  2  1  0
  1 38  1  0
  1 39  1  0
  1 40  1  0
  2  3  2  0
  2  4  1  0
  4  9  1  0
  4  5  1  0
  5  6  1  0
  5 41  1  0
  5 42  1  0
  6 13  1  0
  6  7  1  1
  6  8  1  0
  7 43  1  0
  7 44  1  0
  7 45  1  0
  8  9  2  0
  8 10  1  0
 10 11  1  0
 10 46  1  0
 10 47  1  0
 11 12  1  0
 11 48  1  0
 11 49  1  0
 12 37  1  0
 12 13  1  0
 12 50  1  1
 13 14  1  0
 13 51  1  6
 14 15  1  0
 14 52  1  0
 14 53  1  0
 15 16  1  0
 15 54  1  0
 15 55  1  0
 16 37  1  0
 16 17  1  6
 16 18  1  0
 17 56  1  0
 17 57  1  0
 17 58  1  0
 18 19  1  0
 18 35  1  0
 18 59  1  6
 19 20  1  0
 19 21  1  0
 19 60  1  6
 20 61  1  0
 20 62  1  0
 20 63  1  0
 21 22  1  0
 21 64  1  0
 21 65  1  0
 22 23  1  0
 22 66  1  0
 22 79  1  0
 23 24  1  0
 23 67  1  0
 23 68  1  0
 24 34  1  0
 24 25  2  0
 25 26  1  0
 25 69  1  0
 26 27  1  0
 26 33  1  0
 27 32  1  0
 27 28  2  0
 28 29  1  0
 28 70  1  0
 29 30  2  0
 29 71  1  0
 30 31  1  0
 31 32  2  0
 31 72  1  0
 32 73  1  0
 33 34  2  0
 35 36  1  0
 35 74  1  0
 35 75  1  0
 36 37  1  0
 36 76  1  0
 36 77  1  0
 37 78  1  6
M  CHG  1  22   1
M  END
>  <i_m_ct_stereo_status>  (37) 
1

>  <s_m_source_file>  (37) 
/var/tmp/pbs.5076255.sched01/tmpm7cr0ro2/0ctwvxj2z.sdf

>  <i_m_source_file_index>  (37) 
13

>  <i_lp_mmshare_version>  (37) 
48012

>  <i_f3d_flags>  (37) 
0

>  <s_epik_input>  (37) 
W0NIM11DKD1PKU4oW0NIMl0xKU49QyhbQ0BAXTEyW0NIM10pW0NIMl1bQ0gyXVtDQEhdM1tDQEBIXTJbQ0gyXVtDSDJdW0NAXTQoW0NIM10pW0NASF0zW0NIMl1bQ0gyXVtDQEBIXTRbQ0BIXShbQ0gzXSlbQ0gyXVtOSF1bQ0gyXWM1W2NIXW4obm41KS1jNltjSF1bY0hdbltjSF1bY0hdNg==

>  <s_epik_cmdline>  (37) 
J2VwaWtfcHl0aG9uJywgJy1waHQnLCAnMi4wJywgJy1waCcsICc3LjAnLCAnLXRuJywgJzgnLCAnLW1hJywgJzIwMCcsICctaW1hZScsICc8aW5maWxlLm1hZT4nLCAnLW9tYWUnLCAnPG91dGZpbGUubWFlPic=

>  <r_lp_tautomer_probability>  (37) 
1

>  <r_epik_Ionization_Penalty>  (37) 
0.00898765

>  <r_epik_Ionization_Penalty_Charging>  (37) 
0.00893797

>  <r_epik_Ionization_Penalty_Neutral>  (37) 
4.96761e-05

>  <r_epik_State_Penalty>  (37) 
0.00676201

>  <r_epik_Charging_Adjusted_Penalty>  (37) 
0.0157

>  <i_epik_Tot_Q>  (37) 
1

>  <i_epik_Tot_abs_Q>  (37) 
1

>  <s_epik_Chemistry_Notes>  (37) 
This compound has an imine and may undergo hydrolysis.

>  <s_lp_Force_Field>  (37) 
OPLS3e

>  <r_lp_Energy>  (37) 
67.5226

>  <b_lp_Chiralities_Consistent>  (37) 
1

>  <s_lp_Variant>  (37) 
7:0-1

>  <s_i_glide_gridfile>  (37) 
pfpi4k_grid

>  <i_i_glide_lignum>  (37) 
13

>  <i_i_glide_rotatable_bonds>  (37) 
7

>  <r_i_docking_score>  (37) 
-2.79309

>  <r_i_glide_ligand_efficiency>  (37) 
-0.0754889

>  <r_i_glide_ligand_efficiency_sa>  (37) 
-0.251546

>  <r_i_glide_ligand_efficiency_ln>  (37) 
-0.605756

>  <r_i_glide_gscore>  (37) 
-2.79309

>  <r_i_glide_lipo>  (37) 
-0.619568

>  <r_i_glide_hbond>  (37) 
0

>  <r_i_glide_metal>  (37) 
-0

>  <r_i_glide_rewards>  (37) 
0

>  <r_i_glide_evdw>  (37) 
-33.21

>  <r_i_glide_ecoul>  (37) 
-5.15206

>  <r_i_glide_erotb>  (37) 
0.481681

>  <r_i_glide_esite>  (37) 
-0.221893

>  <r_i_glide_emodel>  (37) 
-42.7505

>  <r_i_glide_energy>  (37) 
-38.3621

>  <r_i_glide_einternal>  (37) 
5.22474

>  <r_i_glide_intrahb_reward>  (37) 
-0

>  <i_i_glide_confnum>  (37) 
5

>  <i_i_glide_posenum>  (37) 
20

>  <r_i_glide_eff_state_penalty>  (37) 
0

>  <ligand_id>  (37) 
7

>  <original_smiles>  (37) 
CC(=O)N1CC2(C)C(=N1)CCC1C2CCC2(C)C(C(C)CNCc3cn(-c4ccncc4)nn3)CCC12

>  <smiles>  (37) 
[H]c1nc([H])c([H])c(-n2nnc(C([H])([H])[N+]([H])([H])C([H])([H])C([H])(C([H])([H])[H])C3([H])C([H])([H])C([H])([H])C4([H])C5([H])C([H])([H])C([H])([H])C6=NN(C(=O)C([H])([H])[H])C([H])([H])C6(C([H])([H])[H])C5([H])C([H])([H])C([H])([H])C43C([H])([H])[H])c2[H])c1[H]

$$$$
7:0:1
     RDKit          3D

 79 84  0  0  1  0  0  0  0  0999 V2000
    9.3538   -3.0873    0.5915 C   0  0  0  0  0  0  0  0  0  0  0  0
    7.8546   -3.3585    0.4760 C   0  0  0  0  0  0  0  0  0  0  0  0
    7.1329   -2.4597    0.0526 O   0  0  0  0  0  0  0  0  0  0  0  0
    7.4006   -4.5913    0.8094 N   0  0  0  0  0  0  0  0  0  0  0  0
    8.1547   -5.6172    1.5310 C   0  0  0  0  0  0  0  0  0  0  0  0
    7.0797   -6.6709    1.8766 C   0  0  2  0  0  0  0  0  0  0  0  0
    7.5197   -8.0315    1.3133 C   0  0  0  0  0  0  0  0  0  0  0  0
    5.9051   -6.1136    1.1432 C   0  0  0  0  0  0  0  0  0  0  0  0
    6.1199   -4.9817    0.5789 N   0  0  0  0  0  0  0  0  0  0  0  0
    4.5822   -6.8122    1.2168 C   0  0  0  0  0  0  0  0  0  0  0  0
    4.2002   -6.9871    2.7030 C   0  0  0  0  0  0  0  0  0  0  0  0
    5.3466   -7.5903    3.5782 C   0  0  1  0  0  0  0  0  0  0  0  0
    6.7008   -6.8266    3.3949 C   0  0  2  0  0  0  0  0  0  0  0  0
    6.7148   -5.4786    4.1684 C   0  0  0  0  0  0  0  0  0  0  0  0
    5.6879   -5.3296    5.3038 C   0  0  0  0  0  0  0  0  0  0  0  0
    5.3984   -6.6428    6.0681 C   0  0  1  0  0  0  0  0  0  0  0  0
    6.6908   -7.0121    6.8527 C   0  0  0  0  0  0  0  0  0  0  0  0
    4.1948   -6.5868    7.0825 C   0  0  1  0  0  0  0  0  0  0  0  0
    3.2317   -5.3498    7.0865 C   0  0  2  0  0  0  0  0  0  0  0  0
    2.3024   -5.3992    8.3280 C   0  0  0  0  0  0  0  0  0  0  0  0
    2.3609   -5.1315    5.8217 C   0  0  0  0  0  0  0  0  0  0  0  0
    1.7691   -3.7647    5.8038 N   0  0  0  0  0  0  0  0  0  0  0  0
    0.9188   -3.4823    4.6259 C   0  0  0  0  0  0  0  0  0  0  0  0
    0.0898   -2.2526    4.8267 C   0  0  0  0  0  0  0  0  0  0  0  0
    0.1715   -1.0211    4.2452 C   0  0  0  0  0  0  0  0  0  0  0  0
   -0.8798   -0.3054    4.8025 N   0  0  0  0  0  0  0  0  0  0  0  0
   -1.2423    1.0439    4.5737 C   0  0  0  0  0  0  0  0  0  0  0  0
   -1.1309    1.5936    3.2879 C   0  0  0  0  0  0  0  0  0  0  0  0
   -1.5100    2.9399    3.0970 C   0  0  0  0  0  0  0  0  0  0  0  0
   -1.9603    3.7348    4.0916 N   0  0  0  0  0  0  0  0  0  0  0  0
   -2.0451    3.2018    5.3236 C   0  0  0  0  0  0  0  0  0  0  0  0
   -1.7039    1.8673    5.6242 C   0  0  0  0  0  0  0  0  0  0  0  0
   -1.5729   -1.0815    5.6711 N   0  0  0  0  0  0  0  0  0  0  0  0
   -0.9895   -2.2449    5.7014 N   0  0  0  0  0  0  0  0  0  0  0  0
    3.4852   -7.9440    6.9288 C   0  0  0  0  0  0  0  0  0  0  0  0
    3.6394   -8.3048    5.4611 C   0  0  0  0  0  0  0  0  0  0  0  0
    5.0459   -7.8087    5.0931 C   0  0  1  0  0  0  0  0  0  0  0  0
    9.7975   -3.5967   -0.2537 H   0  0  0  0  0  0  0  0  0  0  0  0
    9.7933   -3.4329    1.5289 H   0  0  0  0  0  0  0  0  0  0  0  0
    9.5771   -2.0255    0.4860 H   0  0  0  0  0  0  0  0  0  0  0  0
    8.9402   -6.0192    0.8824 H   0  0  0  0  0  0  0  0  0  0  0  0
    8.6484   -5.2130    2.4148 H   0  0  0  0  0  0  0  0  0  0  0  0
    8.3714   -8.3399    1.9127 H   0  0  0  0  0  0  0  0  0  0  0  0
    7.8762   -7.9737    0.2859 H   0  0  0  0  0  0  0  0  0  0  0  0
    6.7460   -8.8022    1.3656 H   0  0  0  0  0  0  0  0  0  0  0  0
    3.8193   -6.2581    0.6706 H   0  0  0  0  0  0  0  0  0  0  0  0
    4.6532   -7.7871    0.7382 H   0  0  0  0  0  0  0  0  0  0  0  0
    3.8903   -6.0159    3.0836 H   0  0  0  0  0  0  0  0  0  0  0  0
    3.3201   -7.6296    2.7402 H   0  0  0  0  0  0  0  0  0  0  0  0
    5.4847   -8.5929    3.1734 H   0  0  0  0  0  0  0  0  0  0  0  0
    7.4809   -7.4446    3.8569 H   0  0  0  0  0  0  0  0  0  0  0  0
    7.7199   -5.3271    4.5676 H   0  0  0  0  0  0  0  0  0  0  0  0
    6.5096   -4.6766    3.4603 H   0  0  0  0  0  0  0  0  0  0  0  0
    6.0084   -4.5513    6.0042 H   0  0  0  0  0  0  0  0  0  0  0  0
    4.8072   -4.9529    4.8128 H   0  0  0  0  0  0  0  0  0  0  0  0
    6.5753   -7.9185    7.4523 H   0  0  0  0  0  0  0  0  0  0  0  0
    6.9828   -6.2092    7.5296 H   0  0  0  0  0  0  0  0  0  0  0  0
    7.5375   -7.1840    6.1876 H   0  0  0  0  0  0  0  0  0  0  0  0
    4.6222   -6.5892    8.0890 H   0  0  0  0  0  0  0  0  0  0  0  0
    3.8756   -4.4814    7.2298 H   0  0  0  0  0  0  0  0  0  0  0  0
    1.5939   -6.2282    8.2831 H   0  0  0  0  0  0  0  0  0  0  0  0
    1.6999   -4.4959    8.4251 H   0  0  0  0  0  0  0  0  0  0  0  0
    2.8640   -5.5111    9.2607 H   0  0  0  0  0  0  0  0  0  0  0  0
    2.9021   -5.2515    4.8970 H   0  0  0  0  0  0  0  0  0  0  0  0
    1.5649   -5.8769    5.7957 H   0  0  0  0  0  0  0  0  0  0  0  0
    1.2040   -3.6335    6.6335 H   0  0  0  0  0  0  0  0  0  0  0  0
    1.5450   -3.3835    3.7424 H   0  0  0  0  0  0  0  0  0  0  0  0
    0.2631   -4.3300    4.4473 H   0  0  0  0  0  0  0  0  0  0  0  0
    0.8589   -0.6045    3.5079 H   0  0  0  0  0  0  0  0  0  0  0  0
   -0.7950    1.0127    2.4435 H   0  0  0  0  0  0  0  0  0  0  0  0
   -1.4634    3.3798    2.1134 H   0  0  0  0  0  0  0  0  0  0  0  0
   -2.3892    3.8753    6.0965 H   0  0  0  0  0  0  0  0  0  0  0  0
   -1.7896    1.5193    6.6396 H   0  0  0  0  0  0  0  0  0  0  0  0
    3.9978   -8.6904    7.5377 H   0  0  0  0  0  0  0  0  0  0  0  0
    2.4437   -7.9567    7.2438 H   0  0  0  0  0  0  0  0  0  0  0  0
    3.5119   -9.3765    5.2938 H   0  0  0  0  0  0  0  0  0  0  0  0
    2.8628   -7.7866    4.9035 H   0  0  0  0  0  0  0  0  0  0  0  0
    5.6939   -8.6419    5.3678 H   0  0  0  0  0  0  0  0  0  0  0  0
    2.5084   -3.0744    5.8226 H   0  0  0  0  0  0  0  0  0  0  0  0
  1  2  1  0
  1 38  1  0
  1 39  1  0
  1 40  1  0
  2  3  2  0
  2  4  1  0
  4  9  1  0
  4  5  1  0
  5  6  1  0
  5 41  1  0
  5 42  1  0
  6 13  1  0
  6  7  1  6
  6  8  1  0
  7 43  1  0
  7 44  1  0
  7 45  1  0
  8  9  2  0
  8 10  1  0
 10 11  1  0
 10 46  1  0
 10 47  1  0
 11 12  1  0
 11 48  1  0
 11 49  1  0
 12 37  1  0
 12 13  1  0
 12 50  1  6
 13 14  1  0
 13 51  1  1
 14 15  1  0
 14 52  1  0
 14 53  1  0
 15 16  1  0
 15 54  1  0
 15 55  1  0
 16 37  1  0
 16 17  1  1
 16 18  1  0
 17 56  1  0
 17 57  1  0
 17 58  1  0
 18 19  1  0
 18 35  1  0
 18 59  1  1
 19 20  1  0
 19 21  1  0
 19 60  1  1
 20 61  1  0
 20 62  1  0
 20 63  1  0
 21 22  1  0
 21 64  1  0
 21 65  1  0
 22 23  1  0
 22 66  1  0
 22 79  1  0
 23 24  1  0
 23 67  1  0
 23 68  1  0
 24 34  1  0
 24 25  2  0
 25 26  1  0
 25 69  1  0
 26 27  1  0
 26 33  1  0
 27 32  1  0
 27 28  2  0
 28 29  1  0
 28 70  1  0
 29 30  2  0
 29 71  1  0
 30 31  1  0
 31 32  2  0
 31 72  1  0
 32 73  1  0
 33 34  2  0
 35 36  1  0
 35 74  1  0
 35 75  1  0
 36 37  1  0
 36 76  1  0
 36 77  1  0
 37 78  1  1
M  CHG  1  22   1
M  END
>  <i_m_ct_stereo_status>  (38) 
1

>  <s_m_source_file>  (38) 
/var/tmp/pbs.5076255.sched01/tmpm7cr0ro2/0ctwvxj2z.sdf

>  <i_m_source_file_index>  (38) 
13

>  <i_lp_mmshare_version>  (38) 
48012

>  <i_f3d_flags>  (38) 
0

>  <s_epik_input>  (38) 
W0NIM11DKD1PKU4oW0NIMl0xKU49QyhbQ0BAXTEyW0NIM10pW0NIMl1bQ0gyXVtDQEhdM1tDQEBIXTJbQ0gyXVtDSDJdW0NAXTQoW0NIM10pW0NASF0zW0NIMl1bQ0gyXVtDQEBIXTRbQ0BIXShbQ0gzXSlbQ0gyXVtOSF1bQ0gyXWM1W2NIXW4obm41KS1jNltjSF1bY0hdbltjSF1bY0hdNg==

>  <s_epik_cmdline>  (38) 
J2VwaWtfcHl0aG9uJywgJy1waHQnLCAnMi4wJywgJy1waCcsICc3LjAnLCAnLXRuJywgJzgnLCAnLW1hJywgJzIwMCcsICctaW1hZScsICc8aW5maWxlLm1hZT4nLCAnLW9tYWUnLCAnPG91dGZpbGUubWFlPic=

>  <r_lp_tautomer_probability>  (38) 
1

>  <r_epik_Ionization_Penalty>  (38) 
0.00898765

>  <r_epik_Ionization_Penalty_Charging>  (38) 
0.00893797

>  <r_epik_Ionization_Penalty_Neutral>  (38) 
4.96761e-05

>  <r_epik_State_Penalty>  (38) 
0.00676201

>  <r_epik_Charging_Adjusted_Penalty>  (38) 
0.0157

>  <i_epik_Tot_Q>  (38) 
1

>  <i_epik_Tot_abs_Q>  (38) 
1

>  <s_epik_Chemistry_Notes>  (38) 
This compound has an imine and may undergo hydrolysis.

>  <s_lp_Force_Field>  (38) 
OPLS3e

>  <r_lp_Energy>  (38) 
67.5226

>  <b_lp_Chiralities_Consistent>  (38) 
1

>  <s_lp_Variant>  (38) 
7:0-1

>  <s_i_glide_gridfile>  (38) 
pfpi4k_grid

>  <i_i_glide_lignum>  (38) 
13

>  <i_i_glide_rotatable_bonds>  (38) 
7

>  <r_i_docking_score>  (38) 
-2.6148

>  <r_i_glide_ligand_efficiency>  (38) 
-0.0706704

>  <r_i_glide_ligand_efficiency_sa>  (38) 
-0.235489

>  <r_i_glide_ligand_efficiency_ln>  (38) 
-0.56709

>  <r_i_glide_gscore>  (38) 
-2.6148

>  <r_i_glide_lipo>  (38) 
-0.222203

>  <r_i_glide_hbond>  (38) 
0

>  <r_i_glide_metal>  (38) 
-0

>  <r_i_glide_rewards>  (38) 
-0.571898

>  <r_i_glide_evdw>  (38) 
-29.417

>  <r_i_glide_ecoul>  (38) 
-4.65112

>  <r_i_glide_erotb>  (38) 
0.481681

>  <r_i_glide_esite>  (38) 
-0.133867

>  <r_i_glide_emodel>  (38) 
-37.6265

>  <r_i_glide_energy>  (38) 
-34.0681

>  <r_i_glide_einternal>  (38) 
4.72723

>  <r_i_glide_intrahb_reward>  (38) 
-0

>  <i_i_glide_confnum>  (38) 
5

>  <i_i_glide_posenum>  (38) 
18

>  <r_i_glide_eff_state_penalty>  (38) 
0

>  <ligand_id>  (38) 
7

>  <original_smiles>  (38) 
CC(=O)N1CC2(C)C(=N1)CCC1C2CCC2(C)C(C(C)CNCc3cn(-c4ccncc4)nn3)CCC12

>  <smiles>  (38) 
[H]c1nc([H])c([H])c(-n2nnc(C([H])([H])[N+]([H])([H])C([H])([H])C([H])(C([H])([H])[H])C3([H])C([H])([H])C([H])([H])C4([H])C5([H])C([H])([H])C([H])([H])C6=NN(C(=O)C([H])([H])[H])C([H])([H])C6(C([H])([H])[H])C5([H])C([H])([H])C([H])([H])C43C([H])([H])[H])c2[H])c1[H]

$$$$
7:0:2
     RDKit          3D

 79 84  0  0  1  0  0  0  0  0999 V2000
    0.7693   -0.8893    3.7934 C   0  0  0  0  0  0  0  0  0  0  0  0
    1.4517   -1.3044    5.1043 C   0  0  0  0  0  0  0  0  0  0  0  0
    2.4388   -0.6807    5.4801 O   0  0  0  0  0  0  0  0  0  0  0  0
    0.9317   -2.3517    5.7976 N   0  0  0  0  0  0  0  0  0  0  0  0
   -0.2368   -3.1258    5.4002 C   0  0  0  0  0  0  0  0  0  0  0  0
   -0.2063   -4.3368    6.3531 C   0  0  2  0  0  0  0  0  0  0  0  0
   -1.5277   -4.4061    7.1526 C   0  0  0  0  0  0  0  0  0  0  0  0
    0.9387   -3.9776    7.2322 C   0  0  0  0  0  0  0  0  0  0  0  0
    1.5303   -2.8594    6.8994 N   0  0  0  0  0  0  0  0  0  0  0  0
    1.4114   -4.9093    8.2953 C   0  0  0  0  0  0  0  0  0  0  0  0
    1.6957   -6.2908    7.6583 C   0  0  0  0  0  0  0  0  0  0  0  0
    0.5348   -6.7974    6.7418 C   0  0  1  0  0  0  0  0  0  0  0  0
    0.0966   -5.7225    5.6878 C   0  0  2  0  0  0  0  0  0  0  0  0
    1.0899   -5.6138    4.5022 C   0  0  0  0  0  0  0  0  0  0  0  0
    1.9949   -6.8330    4.3091 C   0  0  0  0  0  0  0  0  0  0  0  0
    1.3579   -8.2069    4.6444 C   0  0  1  0  0  0  0  0  0  0  0  0
    0.2704   -8.4824    3.5736 C   0  0  0  0  0  0  0  0  0  0  0  0
    2.3470   -9.4349    4.6438 C   0  0  1  0  0  0  0  0  0  0  0  0
    3.9045   -9.2221    4.6040 C   0  0  2  0  0  0  0  0  0  0  0  0
    4.5109   -8.5453    5.8662 C   0  0  0  0  0  0  0  0  0  0  0  0
    4.4536   -8.6089    3.2983 C   0  0  0  0  0  0  0  0  0  0  0  0
    3.9150   -9.2753    2.0698 N   0  0  0  0  0  0  0  0  0  0  0  0
    4.3926   -8.7194    0.7826 C   0  0  0  0  0  0  0  0  0  0  0  0
    4.2657   -7.2204    0.7110 C   0  0  0  0  0  0  0  0  0  0  0  0
    5.1951   -6.2685    0.5021 C   0  0  0  0  0  0  0  0  0  0  0  0
    4.5195   -5.0572    0.5524 N   0  0  0  0  0  0  0  0  0  0  0  0
    5.0295   -3.7507    0.4089 C   0  0  0  0  0  0  0  0  0  0  0  0
    6.4037   -3.4964    0.6014 C   0  0  0  0  0  0  0  0  0  0  0  0
    6.8785   -2.1744    0.4320 C   0  0  0  0  0  0  0  0  0  0  0  0
    6.0887   -1.1438    0.0805 N   0  0  0  0  0  0  0  0  0  0  0  0
    4.7729   -1.3841   -0.0809 C   0  0  0  0  0  0  0  0  0  0  0  0
    4.1929   -2.6635    0.0679 C   0  0  0  0  0  0  0  0  0  0  0  0
    3.2000   -5.2871    0.7914 N   0  0  0  0  0  0  0  0  0  0  0  0
    3.0382   -6.5735    0.9090 N   0  0  0  0  0  0  0  0  0  0  0  0
    1.9046  -10.2822    5.8501 C   0  0  0  0  0  0  0  0  0  0  0  0
    1.3817   -9.2975    6.8951 C   0  0  0  0  0  0  0  0  0  0  0  0
    0.7058   -8.1953    6.0633 C   0  0  1  0  0  0  0  0  0  0  0  0
   -0.2053   -0.4443    3.9877 H   0  0  0  0  0  0  0  0  0  0  0  0
    0.6437   -1.7361    3.1216 H   0  0  0  0  0  0  0  0  0  0  0  0
    1.3737   -0.1552    3.2630 H   0  0  0  0  0  0  0  0  0  0  0  0
   -1.1235   -2.5061    5.5467 H   0  0  0  0  0  0  0  0  0  0  0  0
   -0.2041   -3.4091    4.3498 H   0  0  0  0  0  0  0  0  0  0  0  0
   -2.3581   -4.6618    6.4930 H   0  0  0  0  0  0  0  0  0  0  0  0
   -1.7555   -3.4515    7.6215 H   0  0  0  0  0  0  0  0  0  0  0  0
   -1.5025   -5.1549    7.9450 H   0  0  0  0  0  0  0  0  0  0  0  0
    2.2918   -4.5256    8.8064 H   0  0  0  0  0  0  0  0  0  0  0  0
    0.6355   -5.0109    9.0516 H   0  0  0  0  0  0  0  0  0  0  0  0
    2.6337   -6.2318    7.1074 H   0  0  0  0  0  0  0  0  0  0  0  0
    1.8687   -6.9953    8.4744 H   0  0  0  0  0  0  0  0  0  0  0  0
   -0.2886   -6.9336    7.4424 H   0  0  0  0  0  0  0  0  0  0  0  0
   -0.8429   -6.0831    5.2501 H   0  0  0  0  0  0  0  0  0  0  0  0
    0.5372   -5.4419    3.5830 H   0  0  0  0  0  0  0  0  0  0  0  0
    1.7597   -4.7569    4.6126 H   0  0  0  0  0  0  0  0  0  0  0  0
    2.3038   -6.8281    3.2641 H   0  0  0  0  0  0  0  0  0  0  0  0
    2.8513   -6.6302    4.9074 H   0  0  0  0  0  0  0  0  0  0  0  0
   -0.2198   -9.4480    3.7200 H   0  0  0  0  0  0  0  0  0  0  0  0
    0.7050   -8.4846    2.5737 H   0  0  0  0  0  0  0  0  0  0  0  0
   -0.5060   -7.7193    3.5863 H   0  0  0  0  0  0  0  0  0  0  0  0
    2.1159  -10.0752    3.7885 H   0  0  0  0  0  0  0  0  0  0  0  0
    4.3048  -10.2315    4.6126 H   0  0  0  0  0  0  0  0  0  0  0  0
    4.1945   -7.5320    6.0545 H   0  0  0  0  0  0  0  0  0  0  0  0
    5.6059   -8.5350    5.8175 H   0  0  0  0  0  0  0  0  0  0  0  0
    4.2752   -9.1270    6.7654 H   0  0  0  0  0  0  0  0  0  0  0  0
    4.2459   -7.5404    3.2795 H   0  0  0  0  0  0  0  0  0  0  0  0
    5.5419   -8.7127    3.2685 H   0  0  0  0  0  0  0  0  0  0  0  0
    4.1290  -10.2681    2.0629 H   0  0  0  0  0  0  0  0  0  0  0  0
    5.4358   -9.0115    0.6501 H   0  0  0  0  0  0  0  0  0  0  0  0
    3.8423   -9.2008   -0.0202 H   0  0  0  0  0  0  0  0  0  0  0  0
    6.2782   -6.3216    0.3179 H   0  0  0  0  0  0  0  0  0  0  0  0
    7.1003   -4.2695    0.8775 H   0  0  0  0  0  0  0  0  0  0  0  0
    7.9236   -1.9475    0.5726 H   0  0  0  0  0  0  0  0  0  0  0  0
    4.1639   -0.5333   -0.3460 H   0  0  0  0  0  0  0  0  0  0  0  0
    3.1336   -2.7822   -0.0979 H   0  0  0  0  0  0  0  0  0  0  0  0
    1.0848  -10.9444    5.5591 H   0  0  0  0  0  0  0  0  0  0  0  0
    2.6887  -10.9405    6.2295 H   0  0  0  0  0  0  0  0  0  0  0  0
    0.7013   -9.7863    7.6002 H   0  0  0  0  0  0  0  0  0  0  0  0
    2.2125   -8.9167    7.4834 H   0  0  0  0  0  0  0  0  0  0  0  0
   -0.3097   -8.5702    5.9319 H   0  0  0  0  0  0  0  0  0  0  0  0
    2.9063   -9.1888    2.0655 H   0  0  0  0  0  0  0  0  0  0  0  0
  1  2  1  0
  1 38  1  0
  1 39  1  0
  1 40  1  0
  2  3  2  0
  2  4  1  0
  4  9  1  0
  4  5  1  0
  5  6  1  0
  5 41  1  0
  5 42  1  0
  6 13  1  0
  6  7  1  1
  6  8  1  0
  7 43  1  0
  7 44  1  0
  7 45  1  0
  8  9  2  0
  8 10  1  0
 10 11  1  0
 10 46  1  0
 10 47  1  0
 11 12  1  0
 11 48  1  0
 11 49  1  0
 12 37  1  0
 12 13  1  0
 12 50  1  1
 13 14  1  0
 13 51  1  6
 14 15  1  0
 14 52  1  0
 14 53  1  0
 15 16  1  0
 15 54  1  0
 15 55  1  0
 16 37  1  0
 16 17  1  6
 16 18  1  0
 17 56  1  0
 17 57  1  0
 17 58  1  0
 18 19  1  0
 18 35  1  0
 18 59  1  6
 19 20  1  0
 19 21  1  0
 19 60  1  6
 20 61  1  0
 20 62  1  0
 20 63  1  0
 21 22  1  0
 21 64  1  0
 21 65  1  0
 22 23  1  0
 22 66  1  0
 22 79  1  0
 23 24  1  0
 23 67  1  0
 23 68  1  0
 24 34  1  0
 24 25  2  0
 25 26  1  0
 25 69  1  0
 26 27  1  0
 26 33  1  0
 27 32  1  0
 27 28  2  0
 28 29  1  0
 28 70  1  0
 29 30  2  0
 29 71  1  0
 30 31  1  0
 31 32  2  0
 31 72  1  0
 32 73  1  0
 33 34  2  0
 35 36  1  0
 35 74  1  0
 35 75  1  0
 36 37  1  0
 36 76  1  0
 36 77  1  0
 37 78  1  6
M  CHG  1  22   1
M  END
>  <i_m_ct_stereo_status>  (39) 
1

>  <s_m_source_file>  (39) 
/var/tmp/pbs.5076255.sched01/tmpm7cr0ro2/0ctwvxj2z.sdf

>  <i_m_source_file_index>  (39) 
13

>  <i_lp_mmshare_version>  (39) 
48012

>  <i_f3d_flags>  (39) 
0

>  <s_epik_input>  (39) 
W0NIM11DKD1PKU4oW0NIMl0xKU49QyhbQ0BAXTEyW0NIM10pW0NIMl1bQ0gyXVtDQEhdM1tDQEBIXTJbQ0gyXVtDSDJdW0NAXTQoW0NIM10pW0NASF0zW0NIMl1bQ0gyXVtDQEBIXTRbQ0BIXShbQ0gzXSlbQ0gyXVtOSF1bQ0gyXWM1W2NIXW4obm41KS1jNltjSF1bY0hdbltjSF1bY0hdNg==

>  <s_epik_cmdline>  (39) 
J2VwaWtfcHl0aG9uJywgJy1waHQnLCAnMi4wJywgJy1waCcsICc3LjAnLCAnLXRuJywgJzgnLCAnLW1hJywgJzIwMCcsICctaW1hZScsICc8aW5maWxlLm1hZT4nLCAnLW9tYWUnLCAnPG91dGZpbGUubWFlPic=

>  <r_lp_tautomer_probability>  (39) 
1

>  <r_epik_Ionization_Penalty>  (39) 
0.00898765

>  <r_epik_Ionization_Penalty_Charging>  (39) 
0.00893797

>  <r_epik_Ionization_Penalty_Neutral>  (39) 
4.96761e-05

>  <r_epik_State_Penalty>  (39) 
0.00676201

>  <r_epik_Charging_Adjusted_Penalty>  (39) 
0.0157

>  <i_epik_Tot_Q>  (39) 
1

>  <i_epik_Tot_abs_Q>  (39) 
1

>  <s_epik_Chemistry_Notes>  (39) 
This compound has an imine and may undergo hydrolysis.

>  <s_lp_Force_Field>  (39) 
OPLS3e

>  <r_lp_Energy>  (39) 
67.5226

>  <b_lp_Chiralities_Consistent>  (39) 
1

>  <s_lp_Variant>  (39) 
7:0-1

>  <s_i_glide_gridfile>  (39) 
pfpi4k_grid

>  <i_i_glide_lignum>  (39) 
13

>  <i_i_glide_rotatable_bonds>  (39) 
7

>  <r_i_docking_score>  (39) 
-2.05058

>  <r_i_glide_ligand_efficiency>  (39) 
-0.0554211

>  <r_i_glide_ligand_efficiency_sa>  (39) 
-0.184675

>  <r_i_glide_ligand_efficiency_ln>  (39) 
-0.444723

>  <r_i_glide_gscore>  (39) 
-2.05058

>  <r_i_glide_lipo>  (39) 
-0.541316

>  <r_i_glide_hbond>  (39) 
0

>  <r_i_glide_metal>  (39) 
-0

>  <r_i_glide_rewards>  (39) 
-0.073288

>  <r_i_glide_evdw>  (39) 
-29.0255

>  <r_i_glide_ecoul>  (39) 
-2.71253

>  <r_i_glide_erotb>  (39) 
0.481681

>  <r_i_glide_esite>  (39) 
-0.059504

>  <r_i_glide_emodel>  (39) 
-33.4424

>  <r_i_glide_energy>  (39) 
-31.738

>  <r_i_glide_einternal>  (39) 
5.71849

>  <r_i_glide_intrahb_reward>  (39) 
-0

>  <i_i_glide_confnum>  (39) 
8

>  <i_i_glide_posenum>  (39) 
11

>  <r_i_glide_eff_state_penalty>  (39) 
0

>  <ligand_id>  (39) 
7

>  <original_smiles>  (39) 
CC(=O)N1CC2(C)C(=N1)CCC1C2CCC2(C)C(C(C)CNCc3cn(-c4ccncc4)nn3)CCC12

>  <smiles>  (39) 
[H]c1nc([H])c([H])c(-n2nnc(C([H])([H])[N+]([H])([H])C([H])([H])C([H])(C([H])([H])[H])C3([H])C([H])([H])C([H])([H])C4([H])C5([H])C([H])([H])C([H])([H])C6=NN(C(=O)C([H])([H])[H])C([H])([H])C6(C([H])([H])[H])C5([H])C([H])([H])C([H])([H])C43C([H])([H])[H])c2[H])c1[H]

$$$$
7:1:0
     RDKit          3D

 78 83  0  0  1  0  0  0  0  0999 V2000
    4.8755    7.0422    3.1138 C   0  0  0  0  0  0  0  0  0  0  0  0
    4.3317    6.6984    4.5025 C   0  0  0  0  0  0  0  0  0  0  0  0
    5.0283    6.9875    5.4909 O   0  0  0  0  0  0  0  0  0  0  0  0
    3.1415    6.0927    4.5964 N   0  0  0  0  0  0  0  0  0  0  0  0
    2.3002    5.6886    3.4572 C   0  0  0  0  0  0  0  0  0  0  0  0
    1.1148    4.9584    4.1196 C   0  0  2  0  0  0  0  0  0  0  0  0
   -0.1895    5.7141    3.8151 C   0  0  0  0  0  0  0  0  0  0  0  0
    1.4973    5.0947    5.5677 C   0  0  0  0  0  0  0  0  0  0  0  0
    2.5684    5.7191    5.7786 N   0  0  0  0  0  0  0  0  0  0  0  0
    0.6502    4.4223    6.6226 C   0  0  0  0  0  0  0  0  0  0  0  0
    0.4801    2.9264    6.2787 C   0  0  0  0  0  0  0  0  0  0  0  0
    0.0397    2.6856    4.7977 C   0  0  1  0  0  0  0  0  0  0  0  0
    0.9580    3.4441    3.7759 C   0  0  2  0  0  0  0  0  0  0  0  0
    2.3276    2.7487    3.5850 C   0  0  0  0  0  0  0  0  0  0  0  0
    2.3707    1.2743    3.9528 C   0  0  0  0  0  0  0  0  0  0  0  0
    1.0526    0.4659    3.7334 C   0  0  1  0  0  0  0  0  0  0  0  0
    0.8701    0.3408    2.1993 C   0  0  0  0  0  0  0  0  0  0  0  0
    1.0018   -0.9975    4.3376 C   0  0  1  0  0  0  0  0  0  0  0  0
    2.0759   -1.4802    5.3892 C   0  0  2  0  0  0  0  0  0  0  0  0
    2.0640   -0.7392    6.7668 C   0  0  0  0  0  0  0  0  0  0  0  0
    3.5211   -1.6816    4.8265 C   0  0  0  0  0  0  0  0  0  0  0  0
    3.6681   -2.9075    4.0437 N   0  0  0  0  0  0  0  0  0  0  0  0
    4.9331   -2.8501    3.3309 C   0  0  0  0  0  0  0  0  0  0  0  0
    4.9427   -2.2847    1.9451 C   0  0  0  0  0  0  0  0  0  0  0  0
    4.5174   -2.8882    0.7939 C   0  0  0  0  0  0  0  0  0  0  0  0
    4.6859   -1.9083   -0.1700 N   0  0  0  0  0  0  0  0  0  0  0  0
    4.3780   -1.9955   -1.5544 C   0  0  0  0  0  0  0  0  0  0  0  0
    4.2406   -3.2541   -2.1711 C   0  0  0  0  0  0  0  0  0  0  0  0
    3.9556   -3.2962   -3.5413 C   0  0  0  0  0  0  0  0  0  0  0  0
    3.8090   -2.1957   -4.3232 N   0  0  0  0  0  0  0  0  0  0  0  0
    3.9278   -0.9958   -3.7071 C   0  0  0  0  0  0  0  0  0  0  0  0
    4.2250   -0.8391   -2.3473 C   0  0  0  0  0  0  0  0  0  0  0  0
    5.1833   -0.7748    0.3832 N   0  0  0  0  0  0  0  0  0  0  0  0
    5.3743   -0.9999    1.6457 N   0  0  0  0  0  0  0  0  0  0  0  0
   -0.4455   -1.1391    4.8858 C   0  0  0  0  0  0  0  0  0  0  0  0
   -0.8652    0.2583    5.3515 C   0  0  0  0  0  0  0  0  0  0  0  0
   -0.1859    1.2058    4.3432 C   0  0  1  0  0  0  0  0  0  0  0  0
    4.9388    6.1453    2.4971 H   0  0  0  0  0  0  0  0  0  0  0  0
    5.8767    7.4700    3.1683 H   0  0  0  0  0  0  0  0  0  0  0  0
    4.2313    7.7645    2.6108 H   0  0  0  0  0  0  0  0  0  0  0  0
    1.9667    6.5767    2.9234 H   0  0  0  0  0  0  0  0  0  0  0  0
    2.8604    5.0796    2.7443 H   0  0  0  0  0  0  0  0  0  0  0  0
   -0.4260    5.6162    2.7560 H   0  0  0  0  0  0  0  0  0  0  0  0
   -0.0945    6.7769    4.0368 H   0  0  0  0  0  0  0  0  0  0  0  0
   -1.0241    5.3125    4.3847 H   0  0  0  0  0  0  0  0  0  0  0  0
    1.0936    4.5547    7.6135 H   0  0  0  0  0  0  0  0  0  0  0  0
   -0.3283    4.9008    6.6622 H   0  0  0  0  0  0  0  0  0  0  0  0
    1.4157    2.4147    6.4989 H   0  0  0  0  0  0  0  0  0  0  0  0
   -0.2609    2.5204    6.9686 H   0  0  0  0  0  0  0  0  0  0  0  0
   -0.9475    3.1417    4.7356 H   0  0  0  0  0  0  0  0  0  0  0  0
    0.4662    3.3713    2.8029 H   0  0  0  0  0  0  0  0  0  0  0  0
    2.6294    2.8240    2.5412 H   0  0  0  0  0  0  0  0  0  0  0  0
    3.1267    3.2258    4.1639 H   0  0  0  0  0  0  0  0  0  0  0  0
    3.1828    0.8829    3.3295 H   0  0  0  0  0  0  0  0  0  0  0  0
    2.6434    1.2999    4.9992 H   0  0  0  0  0  0  0  0  0  0  0  0
   -0.0204   -0.2283    1.9185 H   0  0  0  0  0  0  0  0  0  0  0  0
    1.7314   -0.1631    1.7550 H   0  0  0  0  0  0  0  0  0  0  0  0
    0.7909    1.3213    1.7229 H   0  0  0  0  0  0  0  0  0  0  0  0
    1.0584   -1.7264    3.5189 H   0  0  0  0  0  0  0  0  0  0  0  0
    1.7500   -2.4860    5.6469 H   0  0  0  0  0  0  0  0  0  0  0  0
    2.3546    0.3143    6.7454 H   0  0  0  0  0  0  0  0  0  0  0  0
    2.7588   -1.2372    7.4534 H   0  0  0  0  0  0  0  0  0  0  0  0
    1.0750   -0.8027    7.2391 H   0  0  0  0  0  0  0  0  0  0  0  0
    3.8446   -0.8745    4.1799 H   0  0  0  0  0  0  0  0  0  0  0  0
    4.2214   -1.7180    5.6682 H   0  0  0  0  0  0  0  0  0  0  0  0
    2.9648   -2.8616    3.3180 H   0  0  0  0  0  0  0  0  0  0  0  0
    5.6800   -2.3342    3.9360 H   0  0  0  0  0  0  0  0  0  0  0  0
    5.2968   -3.8750    3.2876 H   0  0  0  0  0  0  0  0  0  0  0  0
    4.0907   -3.8549    0.6222 H   0  0  0  0  0  0  0  0  0  0  0  0
    4.3495   -4.1834   -1.6314 H   0  0  0  0  0  0  0  0  0  0  0  0
    3.8507   -4.2390   -4.0526 H   0  0  0  0  0  0  0  0  0  0  0  0
    3.8056   -0.1377   -4.3491 H   0  0  0  0  0  0  0  0  0  0  0  0
    4.3191    0.1485   -1.9315 H   0  0  0  0  0  0  0  0  0  0  0  0
   -1.1206   -1.4481    4.0827 H   0  0  0  0  0  0  0  0  0  0  0  0
   -0.5417   -1.9008    5.6637 H   0  0  0  0  0  0  0  0  0  0  0  0
   -1.9524    0.3787    5.3877 H   0  0  0  0  0  0  0  0  0  0  0  0
   -0.5093    0.4366    6.3617 H   0  0  0  0  0  0  0  0  0  0  0  0
   -0.9242    1.2799    3.5394 H   0  0  0  0  0  0  0  0  0  0  0  0
  1  2  1  0
  1 38  1  0
  1 39  1  0
  1 40  1  0
  2  3  2  0
  2  4  1  0
  4  9  1  0
  4  5  1  0
  5  6  1  0
  5 41  1  0
  5 42  1  0
  6 13  1  0
  6  7  1  1
  6  8  1  0
  7 43  1  0
  7 44  1  0
  7 45  1  0
  8  9  2  0
  8 10  1  0
 10 11  1  0
 10 46  1  0
 10 47  1  0
 11 12  1  0
 11 48  1  0
 11 49  1  0
 12 37  1  0
 12 13  1  0
 12 50  1  1
 13 14  1  0
 13 51  1  6
 14 15  1  0
 14 52  1  0
 14 53  1  0
 15 16  1  0
 15 54  1  0
 15 55  1  0
 16 37  1  0
 16 17  1  6
 16 18  1  0
 17 56  1  0
 17 57  1  0
 17 58  1  0
 18 19  1  0
 18 35  1  0
 18 59  1  6
 19 20  1  0
 19 21  1  0
 19 60  1  1
 20 61  1  0
 20 62  1  0
 20 63  1  0
 21 22  1  0
 21 64  1  0
 21 65  1  0
 22 23  1  0
 22 66  1  0
 23 24  1  0
 23 67  1  0
 23 68  1  0
 24 34  1  0
 24 25  2  0
 25 26  1  0
 25 69  1  0
 26 27  1  0
 26 33  1  0
 27 32  1  0
 27 28  2  0
 28 29  1  0
 28 70  1  0
 29 30  2  0
 29 71  1  0
 30 31  1  0
 31 32  2  0
 31 72  1  0
 32 73  1  0
 33 34  2  0
 35 36  1  0
 35 74  1  0
 35 75  1  0
 36 37  1  0
 36 76  1  0
 36 77  1  0
 37 78  1  6
M  END
>  <i_m_ct_stereo_status>  (40) 
1

>  <s_m_source_file>  (40) 
/var/tmp/pbs.5076255.sched01/tmpm7cr0ro2/0ctwvxj2z.sdf

>  <i_m_source_file_index>  (40) 
14

>  <i_lp_mmshare_version>  (40) 
48012

>  <i_f3d_flags>  (40) 
0

>  <s_epik_input>  (40) 
W0NIM11DKD1PKU4oW0NIMl0xKU49QyhbQ0BAXTEyW0NIM10pW0NIMl1bQ0gyXVtDQEhdM1tDQEBIXTJbQ0gyXVtDSDJdW0NAXTQoW0NIM10pW0NASF0zW0NIMl1bQ0gyXVtDQEBIXTRbQ0BIXShbQ0gzXSlbQ0gyXVtOSF1bQ0gyXWM1W2NIXW4obm41KS1jNltjSF1bY0hdbltjSF1bY0hdNg==

>  <s_epik_cmdline>  (40) 
J2VwaWtfcHl0aG9uJywgJy1waHQnLCAnMi4wJywgJy1waCcsICc3LjAnLCAnLXRuJywgJzgnLCAnLW1hJywgJzIwMCcsICctaW1hZScsICc8aW5maWxlLm1hZT4nLCAnLW9tYWUnLCAnPG91dGZpbGUubWFlPic=

>  <r_lp_tautomer_probability>  (40) 
1

>  <r_epik_Ionization_Penalty>  (40) 
2.48941

>  <r_epik_Ionization_Penalty_Charging>  (40) 
0

>  <r_epik_Ionization_Penalty_Neutral>  (40) 
2.48941

>  <r_epik_State_Penalty>  (40) 
2.65357

>  <r_epik_Charging_Adjusted_Penalty>  (40) 
2.65357

>  <i_epik_Tot_Q>  (40) 
0

>  <i_epik_Tot_abs_Q>  (40) 
0

>  <s_epik_Chemistry_Notes>  (40) 
This compound has an imine and may undergo hydrolysis.

>  <s_lp_Force_Field>  (40) 
OPLS3e

>  <r_lp_Energy>  (40) 
72.9072

>  <b_lp_Chiralities_Consistent>  (40) 
1

>  <s_lp_Variant>  (40) 
7:0-2

>  <s_i_glide_gridfile>  (40) 
pfpi4k_grid

>  <i_i_glide_lignum>  (40) 
14

>  <i_i_glide_rotatable_bonds>  (40) 
7

>  <r_i_docking_score>  (40) 
-3.07338

>  <r_i_glide_ligand_efficiency>  (40) 
-0.0830642

>  <r_i_glide_ligand_efficiency_sa>  (40) 
-0.276788

>  <r_i_glide_ligand_efficiency_ln>  (40) 
-0.666543

>  <r_i_glide_gscore>  (40) 
-3.07338

>  <r_i_glide_lipo>  (40) 
-0.59079

>  <r_i_glide_hbond>  (40) 
-0.32

>  <r_i_glide_metal>  (40) 
-0

>  <r_i_glide_rewards>  (40) 
-0.0458365

>  <r_i_glide_evdw>  (40) 
-36.6279

>  <r_i_glide_ecoul>  (40) 
-4.98851

>  <r_i_glide_erotb>  (40) 
0.483451

>  <r_i_glide_esite>  (40) 
-0.0205301

>  <r_i_glide_emodel>  (40) 
-46.2969

>  <r_i_glide_energy>  (40) 
-41.6164

>  <r_i_glide_einternal>  (40) 
5.7526

>  <r_i_glide_intrahb_reward>  (40) 
-0

>  <i_i_glide_confnum>  (40) 
7

>  <i_i_glide_posenum>  (40) 
16

>  <r_i_glide_eff_state_penalty>  (40) 
0

>  <ligand_id>  (40) 
7

>  <original_smiles>  (40) 
CC(=O)N1CC2(C)C(=N1)CCC1C2CCC2(C)C(C(C)CNCc3cn(-c4ccncc4)nn3)CCC12

>  <smiles>  (40) 
[H]c1nc([H])c([H])c(-n2nnc(C([H])([H])N([H])C([H])([H])C([H])(C([H])([H])[H])C3([H])C([H])([H])C([H])([H])C4([H])C5([H])C([H])([H])C([H])([H])C6=NN(C(=O)C([H])([H])[H])C([H])([H])C6(C([H])([H])[H])C5([H])C([H])([H])C([H])([H])C34C([H])([H])[H])c2[H])c1[H]

$$$$
7:1:1
     RDKit          3D

 78 83  0  0  1  0  0  0  0  0999 V2000
    1.1030   -2.1279    9.9632 C   0  0  0  0  0  0  0  0  0  0  0  0
    0.2363   -2.3692    8.7240 C   0  0  0  0  0  0  0  0  0  0  0  0
   -0.5880   -3.2840    8.7416 O   0  0  0  0  0  0  0  0  0  0  0  0
    0.3803   -1.5383    7.6663 N   0  0  0  0  0  0  0  0  0  0  0  0
    1.2688   -0.3791    7.6173 C   0  0  0  0  0  0  0  0  0  0  0  0
    1.1417    0.1087    6.1586 C   0  0  2  0  0  0  0  0  0  0  0  0
    0.5546    1.5417    6.1576 C   0  0  0  0  0  0  0  0  0  0  0  0
    0.1482   -0.8657    5.6235 C   0  0  0  0  0  0  0  0  0  0  0  0
   -0.2586   -1.7284    6.4790 N   0  0  0  0  0  0  0  0  0  0  0  0
   -0.2201   -0.8410    4.1728 C   0  0  0  0  0  0  0  0  0  0  0  0
    1.0617   -0.8815    3.3085 C   0  0  0  0  0  0  0  0  0  0  0  0
    2.1396    0.1533    3.7608 C   0  0  1  0  0  0  0  0  0  0  0  0
    2.4442    0.0333    5.2898 C   0  0  2  0  0  0  0  0  0  0  0  0
    3.3342   -1.2098    5.5974 C   0  0  0  0  0  0  0  0  0  0  0  0
    4.1424   -1.7620    4.4053 C   0  0  0  0  0  0  0  0  0  0  0  0
    4.6458   -0.6841    3.4181 C   0  0  1  0  0  0  0  0  0  0  0  0
    5.6843    0.2115    4.1543 C   0  0  0  0  0  0  0  0  0  0  0  0
    5.3108   -1.2455    2.1059 C   0  0  1  0  0  0  0  0  0  0  0  0
    5.1977   -2.7744    1.7802 C   0  0  2  0  0  0  0  0  0  0  0  0
    6.3459   -3.2138    0.8435 C   0  0  0  0  0  0  0  0  0  0  0  0
    3.8302   -3.2086    1.1956 C   0  0  0  0  0  0  0  0  0  0  0  0
    3.7904   -4.6505    1.0268 N   0  0  0  0  0  0  0  0  0  0  0  0
    2.5443   -5.1077    0.4418 C   0  0  0  0  0  0  0  0  0  0  0  0
    1.9366   -6.3015    1.0975 C   0  0  0  0  0  0  0  0  0  0  0  0
    2.5803   -7.3527    1.6675 C   0  0  0  0  0  0  0  0  0  0  0  0
    1.5657   -8.1466    2.1519 N   0  0  0  0  0  0  0  0  0  0  0  0
    1.6890   -9.3824    2.8345 C   0  0  0  0  0  0  0  0  0  0  0  0
    2.8888  -10.1219    2.7527 C   0  0  0  0  0  0  0  0  0  0  0  0
    2.9737  -11.3470    3.4407 C   0  0  0  0  0  0  0  0  0  0  0  0
    1.9747  -11.8350    4.1943 N   0  0  0  0  0  0  0  0  0  0  0  0
    0.8355  -11.1275    4.2740 C   0  0  0  0  0  0  0  0  0  0  0  0
    0.6348   -9.8987    3.6191 C   0  0  0  0  0  0  0  0  0  0  0  0
    0.3569   -7.5742    1.9069 N   0  0  0  0  0  0  0  0  0  0  0  0
    0.5694   -6.4681    1.2620 N   0  0  0  0  0  0  0  0  0  0  0  0
    4.7735   -0.3493    0.9731 C   0  0  0  0  0  0  0  0  0  0  0  0
    3.3638    0.0492    1.4103 C   0  0  0  0  0  0  0  0  0  0  0  0
    3.4666    0.2130    2.9350 C   0  0  1  0  0  0  0  0  0  0  0  0
    2.1619   -2.1760    9.7114 H   0  0  0  0  0  0  0  0  0  0  0  0
    0.9105   -2.8871   10.7205 H   0  0  0  0  0  0  0  0  0  0  0  0
    0.8869   -1.1559   10.4072 H   0  0  0  0  0  0  0  0  0  0  0  0
    0.9072    0.3622    8.3338 H   0  0  0  0  0  0  0  0  0  0  0  0
    2.2859   -0.6384    7.9089 H   0  0  0  0  0  0  0  0  0  0  0  0
    1.2782    2.2493    6.5715 H   0  0  0  0  0  0  0  0  0  0  0  0
   -0.3537    1.6111    6.7649 H   0  0  0  0  0  0  0  0  0  0  0  0
    0.2945    1.8903    5.1556 H   0  0  0  0  0  0  0  0  0  0  0  0
   -0.8794   -1.6724    3.9360 H   0  0  0  0  0  0  0  0  0  0  0  0
   -0.7740    0.0699    3.9522 H   0  0  0  0  0  0  0  0  0  0  0  0
    1.4616   -1.8944    3.3254 H   0  0  0  0  0  0  0  0  0  0  0  0
    0.7711   -0.6900    2.2747 H   0  0  0  0  0  0  0  0  0  0  0  0
    1.6684    1.1220    3.5952 H   0  0  0  0  0  0  0  0  0  0  0  0
    3.0429    0.9074    5.5581 H   0  0  0  0  0  0  0  0  0  0  0  0
    4.0397   -0.9326    6.3809 H   0  0  0  0  0  0  0  0  0  0  0  0
    2.7486   -2.0330    6.0157 H   0  0  0  0  0  0  0  0  0  0  0  0
    4.9809   -2.3533    4.7777 H   0  0  0  0  0  0  0  0  0  0  0  0
    3.4984   -2.4642    3.8848 H   0  0  0  0  0  0  0  0  0  0  0  0
    6.1288    0.9374    3.4869 H   0  0  0  0  0  0  0  0  0  0  0  0
    6.5102   -0.3508    4.5712 H   0  0  0  0  0  0  0  0  0  0  0  0
    5.2469    0.7457    4.9974 H   0  0  0  0  0  0  0  0  0  0  0  0
    6.3832   -1.0509    2.1767 H   0  0  0  0  0  0  0  0  0  0  0  0
    5.3706   -3.3285    2.7017 H   0  0  0  0  0  0  0  0  0  0  0  0
    6.2506   -2.7642   -0.1446 H   0  0  0  0  0  0  0  0  0  0  0  0
    6.3569   -4.2959    0.7067 H   0  0  0  0  0  0  0  0  0  0  0  0
    7.3247   -2.9500    1.2484 H   0  0  0  0  0  0  0  0  0  0  0  0
    3.0229   -2.9255    1.8657 H   0  0  0  0  0  0  0  0  0  0  0  0
    3.6397   -2.7236    0.2391 H   0  0  0  0  0  0  0  0  0  0  0  0
    3.9339   -5.1198    1.9093 H   0  0  0  0  0  0  0  0  0  0  0  0
    1.8094   -4.2990    0.4280 H   0  0  0  0  0  0  0  0  0  0  0  0
    2.7447   -5.3198   -0.6105 H   0  0  0  0  0  0  0  0  0  0  0  0
    3.6292   -7.5716    1.7520 H   0  0  0  0  0  0  0  0  0  0  0  0
    3.7354   -9.8040    2.1638 H   0  0  0  0  0  0  0  0  0  0  0  0
    3.8647  -11.9549    3.3896 H   0  0  0  0  0  0  0  0  0  0  0  0
    0.0609  -11.5662    4.8837 H   0  0  0  0  0  0  0  0  0  0  0  0
   -0.3085   -9.3850    3.7321 H   0  0  0  0  0  0  0  0  0  0  0  0
    5.3902    0.5454    0.8838 H   0  0  0  0  0  0  0  0  0  0  0  0
    4.7876   -0.8213   -0.0097 H   0  0  0  0  0  0  0  0  0  0  0  0
    3.0256    0.9604    0.9179 H   0  0  0  0  0  0  0  0  0  0  0  0
    2.6655   -0.7381    1.1335 H   0  0  0  0  0  0  0  0  0  0  0  0
    3.8043    1.2423    3.0665 H   0  0  0  0  0  0  0  0  0  0  0  0
  1  2  1  0
  1 38  1  0
  1 39  1  0
  1 40  1  0
  2  3  2  0
  2  4  1  0
  4  9  1  0
  4  5  1  0
  5  6  1  0
  5 41  1  0
  5 42  1  0
  6 13  1  0
  6  7  1  1
  6  8  1  0
  7 43  1  0
  7 44  1  0
  7 45  1  0
  8  9  2  0
  8 10  1  0
 10 11  1  0
 10 46  1  0
 10 47  1  0
 11 12  1  0
 11 48  1  0
 11 49  1  0
 12 37  1  0
 12 13  1  0
 12 50  1  1
 13 14  1  0
 13 51  1  1
 14 15  1  0
 14 52  1  0
 14 53  1  0
 15 16  1  0
 15 54  1  0
 15 55  1  0
 16 37  1  0
 16 17  1  1
 16 18  1  0
 17 56  1  0
 17 57  1  0
 17 58  1  0
 18 19  1  0
 18 35  1  0
 18 59  1  1
 19 20  1  0
 19 21  1  0
 19 60  1  1
 20 61  1  0
 20 62  1  0
 20 63  1  0
 21 22  1  0
 21 64  1  0
 21 65  1  0
 22 23  1  0
 22 66  1  0
 23 24  1  0
 23 67  1  0
 23 68  1  0
 24 34  1  0
 24 25  2  0
 25 26  1  0
 25 69  1  0
 26 27  1  0
 26 33  1  0
 27 32  1  0
 27 28  2  0
 28 29  1  0
 28 70  1  0
 29 30  2  0
 29 71  1  0
 30 31  1  0
 31 32  2  0
 31 72  1  0
 32 73  1  0
 33 34  2  0
 35 36  1  0
 35 74  1  0
 35 75  1  0
 36 37  1  0
 36 76  1  0
 36 77  1  0
 37 78  1  6
M  END
>  <i_m_ct_stereo_status>  (41) 
1

>  <s_m_source_file>  (41) 
/var/tmp/pbs.5076255.sched01/tmpm7cr0ro2/0ctwvxj2z.sdf

>  <i_m_source_file_index>  (41) 
14

>  <i_lp_mmshare_version>  (41) 
48012

>  <i_f3d_flags>  (41) 
0

>  <s_epik_input>  (41) 
W0NIM11DKD1PKU4oW0NIMl0xKU49QyhbQ0BAXTEyW0NIM10pW0NIMl1bQ0gyXVtDQEhdM1tDQEBIXTJbQ0gyXVtDSDJdW0NAXTQoW0NIM10pW0NASF0zW0NIMl1bQ0gyXVtDQEBIXTRbQ0BIXShbQ0gzXSlbQ0gyXVtOSF1bQ0gyXWM1W2NIXW4obm41KS1jNltjSF1bY0hdbltjSF1bY0hdNg==

>  <s_epik_cmdline>  (41) 
J2VwaWtfcHl0aG9uJywgJy1waHQnLCAnMi4wJywgJy1waCcsICc3LjAnLCAnLXRuJywgJzgnLCAnLW1hJywgJzIwMCcsICctaW1hZScsICc8aW5maWxlLm1hZT4nLCAnLW9tYWUnLCAnPG91dGZpbGUubWFlPic=

>  <r_lp_tautomer_probability>  (41) 
1

>  <r_epik_Ionization_Penalty>  (41) 
2.48941

>  <r_epik_Ionization_Penalty_Charging>  (41) 
0

>  <r_epik_Ionization_Penalty_Neutral>  (41) 
2.48941

>  <r_epik_State_Penalty>  (41) 
2.65357

>  <r_epik_Charging_Adjusted_Penalty>  (41) 
2.65357

>  <i_epik_Tot_Q>  (41) 
0

>  <i_epik_Tot_abs_Q>  (41) 
0

>  <s_epik_Chemistry_Notes>  (41) 
This compound has an imine and may undergo hydrolysis.

>  <s_lp_Force_Field>  (41) 
OPLS3e

>  <r_lp_Energy>  (41) 
72.9072

>  <b_lp_Chiralities_Consistent>  (41) 
1

>  <s_lp_Variant>  (41) 
7:0-2

>  <s_i_glide_gridfile>  (41) 
pfpi4k_grid

>  <i_i_glide_lignum>  (41) 
14

>  <i_i_glide_rotatable_bonds>  (41) 
7

>  <r_i_docking_score>  (41) 
-2.98352

>  <r_i_glide_ligand_efficiency>  (41) 
-0.0806358

>  <r_i_glide_ligand_efficiency_sa>  (41) 
-0.268696

>  <r_i_glide_ligand_efficiency_ln>  (41) 
-0.647056

>  <r_i_glide_gscore>  (41) 
-2.98352

>  <r_i_glide_lipo>  (41) 
-0.655202

>  <r_i_glide_hbond>  (41) 
-0.158914

>  <r_i_glide_metal>  (41) 
-0

>  <r_i_glide_rewards>  (41) 
0

>  <r_i_glide_evdw>  (41) 
-29.7157

>  <r_i_glide_ecoul>  (41) 
-5.68882

>  <r_i_glide_erotb>  (41) 
0.483451

>  <r_i_glide_esite>  (41) 
-0.313751

>  <r_i_glide_emodel>  (41) 
-40.011

>  <r_i_glide_energy>  (41) 
-35.4045

>  <r_i_glide_einternal>  (41) 
5.51615

>  <r_i_glide_intrahb_reward>  (41) 
-0

>  <i_i_glide_confnum>  (41) 
8

>  <i_i_glide_posenum>  (41) 
8

>  <r_i_glide_eff_state_penalty>  (41) 
0

>  <ligand_id>  (41) 
7

>  <original_smiles>  (41) 
CC(=O)N1CC2(C)C(=N1)CCC1C2CCC2(C)C(C(C)CNCc3cn(-c4ccncc4)nn3)CCC12

>  <smiles>  (41) 
[H]c1nc([H])c([H])c(-n2nnc(C([H])([H])N([H])C([H])([H])C([H])(C([H])([H])[H])C3([H])C([H])([H])C([H])([H])C4([H])C5([H])C([H])([H])C([H])([H])C6=NN(C(=O)C([H])([H])[H])C([H])([H])C6(C([H])([H])[H])C5([H])C([H])([H])C([H])([H])C34C([H])([H])[H])c2[H])c1[H]

$$$$
7:1:2
     RDKit          3D

 78 83  0  0  1  0  0  0  0  0999 V2000
    4.9703    7.0459    5.5250 C   0  0  0  0  0  0  0  0  0  0  0  0
    4.1349    6.7018    4.2929 C   0  0  0  0  0  0  0  0  0  0  0  0
    4.5723    7.0092    3.1827 O   0  0  0  0  0  0  0  0  0  0  0  0
    2.9483    6.0607    4.4482 N   0  0  0  0  0  0  0  0  0  0  0  0
    2.0879    5.6675    3.3389 C   0  0  0  0  0  0  0  0  0  0  0  0
    0.9460    4.8996    4.0273 C   0  0  2  0  0  0  0  0  0  0  0  0
   -0.3880    5.6324    3.7757 C   0  0  0  0  0  0  0  0  0  0  0  0
    1.3533    5.0082    5.4560 C   0  0  0  0  0  0  0  0  0  0  0  0
    2.4615    5.6774    5.6471 N   0  0  0  0  0  0  0  0  0  0  0  0
    0.5813    4.3179    6.5312 C   0  0  0  0  0  0  0  0  0  0  0  0
    0.4254    2.8234    6.1625 C   0  0  0  0  0  0  0  0  0  0  0  0
   -0.0641    2.5980    4.6977 C   0  0  1  0  0  0  0  0  0  0  0  0
    0.8073    3.3853    3.6609 C   0  0  2  0  0  0  0  0  0  0  0  0
    2.1771    2.7116    3.3859 C   0  0  0  0  0  0  0  0  0  0  0  0
    2.2570    1.2301    3.7765 C   0  0  0  0  0  0  0  0  0  0  0  0
    0.9416    0.4152    3.5555 C   0  0  1  0  0  0  0  0  0  0  0  0
    0.7021    0.3239    2.0246 C   0  0  0  0  0  0  0  0  0  0  0  0
    0.9309   -1.0615    4.1315 C   0  0  1  0  0  0  0  0  0  0  0  0
    2.0554   -1.5384    5.1285 C   0  0  2  0  0  0  0  0  0  0  0  0
    2.1219   -0.7719    6.4851 C   0  0  0  0  0  0  0  0  0  0  0  0
    3.4532   -1.6989    4.4754 C   0  0  0  0  0  0  0  0  0  0  0  0
    3.7432   -3.0615    4.0386 N   0  0  0  0  0  0  0  0  0  0  0  0
    4.9984   -3.0491    3.2975 C   0  0  0  0  0  0  0  0  0  0  0  0
    4.9960   -2.4663    1.9125 C   0  0  0  0  0  0  0  0  0  0  0  0
    4.5684   -3.0100    0.7625 C   0  0  0  0  0  0  0  0  0  0  0  0
    4.7084   -1.9979   -0.1743 N   0  0  0  0  0  0  0  0  0  0  0  0
    4.3959   -2.0308   -1.5440 C   0  0  0  0  0  0  0  0  0  0  0  0
    4.2815   -3.2724   -2.2046 C   0  0  0  0  0  0  0  0  0  0  0  0
    3.9814   -3.2693   -3.5723 C   0  0  0  0  0  0  0  0  0  0  0  0
    3.8055   -2.1381   -4.2745 N   0  0  0  0  0  0  0  0  0  0  0  0
    3.9045   -0.9540   -3.6509 C   0  0  0  0  0  0  0  0  0  0  0  0
    4.2149   -0.8457   -2.2880 C   0  0  0  0  0  0  0  0  0  0  0  0
    5.1963   -0.8803    0.4152 N   0  0  0  0  0  0  0  0  0  0  0  0
    5.4114   -1.1543    1.6695 N   0  0  0  0  0  0  0  0  0  0  0  0
   -0.4797   -1.2337    4.7434 C   0  0  0  0  0  0  0  0  0  0  0  0
   -0.9022    0.1483    5.2452 C   0  0  0  0  0  0  0  0  0  0  0  0
   -0.2858    1.1230    4.2252 C   0  0  1  0  0  0  0  0  0  0  0  0
    4.4080    7.6765    6.2136 H   0  0  0  0  0  0  0  0  0  0  0  0
    5.8748    7.5858    5.2398 H   0  0  0  0  0  0  0  0  0  0  0  0
    5.2758    6.1377    6.0438 H   0  0  0  0  0  0  0  0  0  0  0  0
    1.7157    6.5751    2.8719 H   0  0  0  0  0  0  0  0  0  0  0  0
    2.6345    5.1021    2.5809 H   0  0  0  0  0  0  0  0  0  0  0  0
   -0.6699    5.5523    2.7268 H   0  0  0  0  0  0  0  0  0  0  0  0
   -0.2956    6.6949    4.0071 H   0  0  0  0  0  0  0  0  0  0  0  0
   -1.1985    5.2148    4.3699 H   0  0  0  0  0  0  0  0  0  0  0  0
    1.0585    4.4371    7.5030 H   0  0  0  0  0  0  0  0  0  0  0  0
   -0.4045    4.7766    6.6129 H   0  0  0  0  0  0  0  0  0  0  0  0
    1.3784    2.3255    6.3366 H   0  0  0  0  0  0  0  0  0  0  0  0
   -0.2790    2.3878    6.8737 H   0  0  0  0  0  0  0  0  0  0  0  0
   -1.0606    3.0392    4.6797 H   0  0  0  0  0  0  0  0  0  0  0  0
    0.2658    3.3279    2.7110 H   0  0  0  0  0  0  0  0  0  0  0  0
    2.4305    2.8165    2.3322 H   0  0  0  0  0  0  0  0  0  0  0  0
    2.9855    3.1949    3.9404 H   0  0  0  0  0  0  0  0  0  0  0  0
    3.0834    0.8137    3.1726 H   0  0  0  0  0  0  0  0  0  0  0  0
    2.5272    1.2514    4.7959 H   0  0  0  0  0  0  0  0  0  0  0  0
   -0.1843   -0.2548    1.7717 H   0  0  0  0  0  0  0  0  0  0  0  0
    1.5457   -0.1568    1.5327 H   0  0  0  0  0  0  0  0  0  0  0  0
    0.5794    1.3075    1.5721 H   0  0  0  0  0  0  0  0  0  0  0  0
    0.9747   -1.7700    3.2958 H   0  0  0  0  0  0  0  0  0  0  0  0
    1.7548   -2.5476    5.4025 H   0  0  0  0  0  0  0  0  0  0  0  0
    2.4160    0.2558    6.4281 H   0  0  0  0  0  0  0  0  0  0  0  0
    2.8401   -1.2797    7.1501 H   0  0  0  0  0  0  0  0  0  0  0  0
    1.1540   -0.8344    7.0082 H   0  0  0  0  0  0  0  0  0  0  0  0
    3.5400   -1.0766    3.5875 H   0  0  0  0  0  0  0  0  0  0  0  0
    4.2298   -1.3822    5.1804 H   0  0  0  0  0  0  0  0  0  0  0  0
    3.0221   -3.3116    3.3750 H   0  0  0  0  0  0  0  0  0  0  0  0
    5.7770   -2.5826    3.8995 H   0  0  0  0  0  0  0  0  0  0  0  0
    5.3045   -4.0942    3.2190 H   0  0  0  0  0  0  0  0  0  0  0  0
    4.1416   -3.9898    0.5340 H   0  0  0  0  0  0  0  0  0  0  0  0
    4.4156   -4.2207   -1.7092 H   0  0  0  0  0  0  0  0  0  0  0  0
    3.8956   -4.1884   -4.1294 H   0  0  0  0  0  0  0  0  0  0  0  0
    3.7657   -0.0795   -4.2659 H   0  0  0  0  0  0  0  0  0  0  0  0
    4.2956    0.1382   -1.8493 H   0  0  0  0  0  0  0  0  0  0  0  0
   -1.1895   -1.5406    3.9762 H   0  0  0  0  0  0  0  0  0  0  0  0
   -0.5309   -2.0094    5.5115 H   0  0  0  0  0  0  0  0  0  0  0  0
   -1.9904    0.2454    5.3257 H   0  0  0  0  0  0  0  0  0  0  0  0
   -0.5102    0.3120    6.2432 H   0  0  0  0  0  0  0  0  0  0  0  0
   -1.0569    1.1990    3.4571 H   0  0  0  0  0  0  0  0  0  0  0  0
  1  2  1  0
  1 38  1  0
  1 39  1  0
  1 40  1  0
  2  3  2  0
  2  4  1  0
  4  9  1  0
  4  5  1  0
  5  6  1  0
  5 41  1  0
  5 42  1  0
  6 13  1  0
  6  7  1  1
  6  8  1  0
  7 43  1  0
  7 44  1  0
  7 45  1  0
  8  9  2  0
  8 10  1  0
 10 11  1  0
 10 46  1  0
 10 47  1  0
 11 12  1  0
 11 48  1  0
 11 49  1  0
 12 37  1  0
 12 13  1  0
 12 50  1  1
 13 14  1  0
 13 51  1  6
 14 15  1  0
 14 52  1  0
 14 53  1  0
 15 16  1  0
 15 54  1  0
 15 55  1  0
 16 37  1  0
 16 17  1  6
 16 18  1  0
 17 56  1  0
 17 57  1  0
 17 58  1  0
 18 19  1  0
 18 35  1  0
 18 59  1  6
 19 20  1  0
 19 21  1  0
 19 60  1  1
 20 61  1  0
 20 62  1  0
 20 63  1  0
 21 22  1  0
 21 64  1  0
 21 65  1  0
 22 23  1  0
 22 66  1  0
 23 24  1  0
 23 67  1  0
 23 68  1  0
 24 34  1  0
 24 25  2  0
 25 26  1  0
 25 69  1  0
 26 27  1  0
 26 33  1  0
 27 32  1  0
 27 28  2  0
 28 29  1  0
 28 70  1  0
 29 30  2  0
 29 71  1  0
 30 31  1  0
 31 32  2  0
 31 72  1  0
 32 73  1  0
 33 34  2  0
 35 36  1  0
 35 74  1  0
 35 75  1  0
 36 37  1  0
 36 76  1  0
 36 77  1  0
 37 78  1  6
M  END
>  <i_m_ct_stereo_status>  (42) 
1

>  <s_m_source_file>  (42) 
/var/tmp/pbs.5076255.sched01/tmpm7cr0ro2/0ctwvxj2z.sdf

>  <i_m_source_file_index>  (42) 
14

>  <i_lp_mmshare_version>  (42) 
48012

>  <i_f3d_flags>  (42) 
0

>  <s_epik_input>  (42) 
W0NIM11DKD1PKU4oW0NIMl0xKU49QyhbQ0BAXTEyW0NIM10pW0NIMl1bQ0gyXVtDQEhdM1tDQEBIXTJbQ0gyXVtDSDJdW0NAXTQoW0NIM10pW0NASF0zW0NIMl1bQ0gyXVtDQEBIXTRbQ0BIXShbQ0gzXSlbQ0gyXVtOSF1bQ0gyXWM1W2NIXW4obm41KS1jNltjSF1bY0hdbltjSF1bY0hdNg==

>  <s_epik_cmdline>  (42) 
J2VwaWtfcHl0aG9uJywgJy1waHQnLCAnMi4wJywgJy1waCcsICc3LjAnLCAnLXRuJywgJzgnLCAnLW1hJywgJzIwMCcsICctaW1hZScsICc8aW5maWxlLm1hZT4nLCAnLW9tYWUnLCAnPG91dGZpbGUubWFlPic=

>  <r_lp_tautomer_probability>  (42) 
1

>  <r_epik_Ionization_Penalty>  (42) 
2.48941

>  <r_epik_Ionization_Penalty_Charging>  (42) 
0

>  <r_epik_Ionization_Penalty_Neutral>  (42) 
2.48941

>  <r_epik_State_Penalty>  (42) 
2.65357

>  <r_epik_Charging_Adjusted_Penalty>  (42) 
2.65357

>  <i_epik_Tot_Q>  (42) 
0

>  <i_epik_Tot_abs_Q>  (42) 
0

>  <s_epik_Chemistry_Notes>  (42) 
This compound has an imine and may undergo hydrolysis.

>  <s_lp_Force_Field>  (42) 
OPLS3e

>  <r_lp_Energy>  (42) 
72.9072

>  <b_lp_Chiralities_Consistent>  (42) 
1

>  <s_lp_Variant>  (42) 
7:0-2

>  <s_i_glide_gridfile>  (42) 
pfpi4k_grid

>  <i_i_glide_lignum>  (42) 
14

>  <i_i_glide_rotatable_bonds>  (42) 
7

>  <r_i_docking_score>  (42) 
-2.91441

>  <r_i_glide_ligand_efficiency>  (42) 
-0.0787678

>  <r_i_glide_ligand_efficiency_sa>  (42) 
-0.262472

>  <r_i_glide_ligand_efficiency_ln>  (42) 
-0.632067

>  <r_i_glide_gscore>  (42) 
-2.91441

>  <r_i_glide_lipo>  (42) 
-0.554215

>  <r_i_glide_hbond>  (42) 
-0.32

>  <r_i_glide_metal>  (42) 
-0

>  <r_i_glide_rewards>  (42) 
-0.0620154

>  <r_i_glide_evdw>  (42) 
-36.9143

>  <r_i_glide_ecoul>  (42) 
-3.95344

>  <r_i_glide_erotb>  (42) 
0.483451

>  <r_i_glide_esite>  (42) 
-0.0228994

>  <r_i_glide_emodel>  (42) 
-45.6539

>  <r_i_glide_energy>  (42) 
-40.8677

>  <r_i_glide_einternal>  (42) 
4.72051

>  <r_i_glide_intrahb_reward>  (42) 
-0

>  <i_i_glide_confnum>  (42) 
7

>  <i_i_glide_posenum>  (42) 
2

>  <r_i_glide_eff_state_penalty>  (42) 
0

>  <ligand_id>  (42) 
7

>  <original_smiles>  (42) 
CC(=O)N1CC2(C)C(=N1)CCC1C2CCC2(C)C(C(C)CNCc3cn(-c4ccncc4)nn3)CCC12

>  <smiles>  (42) 
[H]c1nc([H])c([H])c(-n2nnc(C([H])([H])N([H])C([H])([H])C([H])(C([H])([H])[H])C3([H])C([H])([H])C([H])([H])C4([H])C5([H])C([H])([H])C([H])([H])C6=NN(C(=O)C([H])([H])[H])C([H])([H])C6(C([H])([H])[H])C5([H])C([H])([H])C([H])([H])C34C([H])([H])[H])c2[H])c1[H]

$$$$
8:0:0
     RDKit          3D

 60 64  0  0  1  0  0  0  0  0999 V2000
   -3.6179    3.0082    2.4303 C   0  0  0  0  0  0  0  0  0  0  0  0
   -2.4306    2.5818    3.3179 C   0  0  2  0  0  0  0  0  0  0  0  0
   -1.9978    3.7167    4.2287 C   0  0  0  0  0  0  0  0  0  0  0  0
   -0.8306    3.6789    4.8846 C   0  0  0  0  0  0  0  0  0  0  0  0
    0.0368    2.1966    4.7306 C   0  0  2  0  0  0  0  0  0  0  0  0
    1.5480    1.9308    5.5930 C   0  0  0  0  0  0  0  0  0  0  0  0
    1.8897    2.8369    7.0412 C   0  0  1  0  0  0  0  0  0  0  0  0
    2.5471    1.9017    8.1021 C   0  0  0  0  0  0  0  0  0  0  0  0
    1.9443    0.6209    8.2374 O   0  0  0  0  0  0  0  0  0  0  0  0
    2.6437    4.4563    7.2167 C   0  0  2  0  0  0  0  0  0  0  0  0
    1.6258    5.6614    7.6796 C   0  0  0  0  0  0  0  0  0  0  0  0
    0.0761    5.6947    7.0762 C   0  0  2  0  0  0  0  0  0  0  0  0
   -0.7778    5.1003    8.1921 C   0  0  0  0  0  0  0  0  0  0  0  0
   -0.0535    3.8327    8.6052 C   0  0  0  0  0  0  0  0  0  0  0  0
    0.4115    3.1259    7.2880 C   0  0  2  0  0  0  0  0  0  0  0  0
   -0.5723    1.8715    7.3954 C   0  0  0  0  0  0  0  0  0  0  0  0
    0.5879    4.1383    5.9715 C   0  0  0  0  0  0  0  0  0  0  0  0
   -0.2094    5.1059    5.5604 C   0  0  2  0  0  0  0  0  0  0  0  0
    0.7338    6.0442    4.6218 C   0  0  1  0  0  0  0  0  0  0  0  0
    0.1063    7.3085    4.4834 O   0  0  0  0  0  0  0  0  0  0  0  0
    2.3039    6.2870    5.0660 C   0  0  0  0  0  0  0  0  0  0  0  0
    3.2830    5.2497    5.9234 C   0  0  1  0  0  0  0  0  0  0  0  0
    4.5903    5.9794    6.2952 C   0  0  0  0  0  0  0  0  0  0  0  0
    0.0635    1.8207    3.2529 C   0  0  0  0  0  0  0  0  0  0  0  0
    1.0533    1.2991    2.7334 O   0  0  0  0  0  0  0  0  0  0  0  0
   -1.2328    2.0586    2.4652 C   0  0  0  0  0  0  0  0  0  0  0  0
   -4.4710    3.3143    3.0356 H   0  0  0  0  0  0  0  0  0  0  0  0
   -3.9366    2.2031    1.7667 H   0  0  0  0  0  0  0  0  0  0  0  0
   -3.3768    3.8514    1.7891 H   0  0  0  0  0  0  0  0  0  0  0  0
   -2.7563    1.7722    3.9703 H   0  0  0  0  0  0  0  0  0  0  0  0
   -2.5904    4.6106    4.2073 H   0  0  0  0  0  0  0  0  0  0  0  0
   -0.6685    1.4357    5.0455 H   0  0  0  0  0  0  0  0  0  0  0  0
    1.6145    0.8576    5.7783 H   0  0  0  0  0  0  0  0  0  0  0  0
    2.3887    2.0953    4.9115 H   0  0  0  0  0  0  0  0  0  0  0  0
    3.5891    1.7441    7.8274 H   0  0  0  0  0  0  0  0  0  0  0  0
    2.5554    2.3874    9.0800 H   0  0  0  0  0  0  0  0  0  0  0  0
    2.4071    0.1159    8.8853 H   0  0  0  0  0  0  0  0  0  0  0  0
    3.4302    4.3750    7.9740 H   0  0  0  0  0  0  0  0  0  0  0  0
    1.6170    5.7266    8.7661 H   0  0  0  0  0  0  0  0  0  0  0  0
    2.0731    6.6398    7.5153 H   0  0  0  0  0  0  0  0  0  0  0  0
   -0.2131    6.7459    7.0444 H   0  0  0  0  0  0  0  0  0  0  0  0
   -0.8539    5.7793    9.0432 H   0  0  0  0  0  0  0  0  0  0  0  0
   -1.7885    4.8950    7.8437 H   0  0  0  0  0  0  0  0  0  0  0  0
    0.7663    3.9684    9.3104 H   0  0  0  0  0  0  0  0  0  0  0  0
   -0.7682    3.2997    9.2350 H   0  0  0  0  0  0  0  0  0  0  0  0
   -1.5901    2.1279    7.0966 H   0  0  0  0  0  0  0  0  0  0  0  0
   -0.6368    1.4718    8.4092 H   0  0  0  0  0  0  0  0  0  0  0  0
   -0.2851    0.9554    6.8915 H   0  0  0  0  0  0  0  0  0  0  0  0
    1.4957    4.1760    5.4594 H   0  0  0  0  0  0  0  0  0  0  0  0
    1.1704    3.9978    5.0185 H   0  0  0  0  0  0  0  0  0  0  0  0
    0.7371    5.6051    3.6205 H   0  0  0  0  0  0  0  0  0  0  0  0
    0.2178    7.6491    3.5796 H   0  0  0  0  0  0  0  0  0  0  0  0
    2.8357    6.4780    4.1331 H   0  0  0  0  0  0  0  0  0  0  0  0
    2.3546    7.2657    5.5489 H   0  0  0  0  0  0  0  0  0  0  0  0
    3.6066    4.4732    5.2267 H   0  0  0  0  0  0  0  0  0  0  0  0
    4.4174    6.7946    6.9992 H   0  0  0  0  0  0  0  0  0  0  0  0
    5.0593    6.4103    5.4101 H   0  0  0  0  0  0  0  0  0  0  0  0
    5.3146    5.2977    6.7439 H   0  0  0  0  0  0  0  0  0  0  0  0
   -1.5164    1.1480    1.9361 H   0  0  0  0  0  0  0  0  0  0  0  0
   -0.9852    2.7894    1.6974 H   0  0  0  0  0  0  0  0  0  0  0  0
  1  2  1  0
  1 27  1  0
  1 28  1  0
  1 29  1  0
  2 26  1  0
  2  3  1  0
  2 30  1  1
  3  4  2  0
  3 31  1  0
 18  4  1  6
  4  5  1  0
  5  6  1  0
  5 24  1  0
  5 32  1  1
  6  7  1  0
  6 33  1  0
  6 34  1  0
  7 15  1  0
  7  8  1  1
  7 10  1  0
  8  9  1  0
  8 35  1  0
  8 36  1  0
  9 37  1  0
 10 22  1  0
 10 11  1  0
 10 38  1  1
 11 12  1  0
 11 39  1  0
 11 40  1  0
 12 18  1  0
 12 13  1  0
 12 41  1  6
 13 14  1  0
 13 42  1  0
 13 43  1  0
 14 15  1  0
 14 44  1  0
 14 45  1  0
 15 16  1  6
 15 17  1  0
 16 46  1  0
 16 47  1  0
 16 48  1  0
 17 18  1  0
 17 49  1  0
 17 50  1  0
 18 19  1  0
 19 20  1  0
 19 21  1  0
 19 51  1  6
 20 52  1  0
 21 22  1  0
 21 53  1  0
 21 54  1  0
 22 23  1  0
 22 55  1  6
 23 56  1  0
 23 57  1  0
 23 58  1  0
 24 25  2  0
 24 26  1  0
 26 59  1  0
 26 60  1  0
M  END
>  <i_m_ct_stereo_status>  (43) 
1

>  <s_m_source_file>  (43) 
/var/tmp/pbs.5076255.sched01/tmpm7cr0ro2/0ctwvxj2z.sdf

>  <i_m_source_file_index>  (43) 
15

>  <i_lp_mmshare_version>  (43) 
48012

>  <i_f3d_flags>  (43) 
0

>  <s_epik_input>  (43) 
W0NIM11bQ0BIXShbQ0hdPTEpW0NIMl1DKD1PKVtDQEhdKEMxQzIzNClbQ0gyXVtDQEBdNShbQ0gyXVtPSF0pW0NAQEhdKFtDQEhdKFtDSDNdKVtDSDJdW0NAQEhdNFtPSF0pW0NIMl1bQ0BASF0yW0NIMl1bQ0gyXVtDQEBdNShbQ0gzXSlbQ0gyXTM=

>  <s_epik_cmdline>  (43) 
J2VwaWtfcHl0aG9uJywgJy1waHQnLCAnMi4wJywgJy1waCcsICc3LjAnLCAnLXRuJywgJzgnLCAnLW1hJywgJzIwMCcsICctaW1hZScsICc8aW5maWxlLm1hZT4nLCAnLW9tYWUnLCAnPG91dGZpbGUubWFlPic=

>  <r_lp_tautomer_probability>  (43) 
1

>  <r_epik_Ionization_Penalty>  (43) 
1.44703e-06

>  <r_epik_Ionization_Penalty_Charging>  (43) 
0

>  <r_epik_Ionization_Penalty_Neutral>  (43) 
1.44703e-06

>  <r_epik_State_Penalty>  (43) 
-0

>  <r_epik_Charging_Adjusted_Penalty>  (43) 
0

>  <i_epik_Tot_Q>  (43) 
0

>  <i_epik_Tot_abs_Q>  (43) 
0

>  <s_lp_Force_Field>  (43) 
OPLS3e

>  <r_lp_Energy>  (43) 
530.152

>  <b_lp_Chiralities_Consistent>  (43) 
1

>  <s_lp_Variant>  (43) 
8:0-1

>  <s_i_glide_gridfile>  (43) 
pfpi4k_grid

>  <i_i_glide_lignum>  (43) 
15

>  <i_i_glide_rotatable_bonds>  (43) 
3

>  <r_i_docking_score>  (43) 
-2.78946

>  <r_i_glide_ligand_efficiency>  (43) 
-0.107287

>  <r_i_glide_ligand_efficiency_sa>  (43) 
-0.317838

>  <r_i_glide_ligand_efficiency_ln>  (43) 
-0.655097

>  <r_i_glide_gscore>  (43) 
-2.78946

>  <r_i_glide_lipo>  (43) 
-0.000568669

>  <r_i_glide_hbond>  (43) 
-0.247872

>  <r_i_glide_metal>  (43) 
-0

>  <r_i_glide_rewards>  (43) 
-0.964675

>  <r_i_glide_evdw>  (43) 
-11.3349

>  <r_i_glide_ecoul>  (43) 
-7.12426

>  <r_i_glide_erotb>  (43) 
0.104329

>  <r_i_glide_esite>  (43) 
-0.0452908

>  <r_i_glide_emodel>  (43) 
-19.1495

>  <r_i_glide_energy>  (43) 
-18.4592

>  <r_i_glide_einternal>  (43) 
4.90483

>  <r_i_glide_intrahb_reward>  (43) 
-0

>  <i_i_glide_confnum>  (43) 
6

>  <i_i_glide_posenum>  (43) 
15

>  <r_i_glide_eff_state_penalty>  (43) 
0

>  <ligand_id>  (43) 
8

>  <original_smiles>  (43) 
CC1C=C2C(CC3(CO)C4CC5CCC3(C)CC25C(O)CC4C)C(=O)C1

>  <smiles>  (43) 
[H]OC([H])([H])C12C([H])([H])C3([H])C(=O)C([H])([H])C([H])(C([H])([H])[H])C([H])=C3C34C([H])([H])C1(C([H])([H])[H])C([H])([H])C([H])([H])C3([H])C([H])([H])C2([H])C([H])(C([H])([H])[H])C([H])([H])C4([H])O[H]

$$$$
8:0:1
     RDKit          3D

 60 64  0  0  1  0  0  0  0  0999 V2000
   -3.6603    2.9934    2.3440 C   0  0  0  0  0  0  0  0  0  0  0  0
   -2.5229    2.5471    3.2874 C   0  0  2  0  0  0  0  0  0  0  0  0
   -2.0722    3.6790    4.1947 C   0  0  0  0  0  0  0  0  0  0  0  0
   -0.9463    3.5914    4.9149 C   0  0  0  0  0  0  0  0  0  0  0  0
   -0.1509    2.0662    4.8277 C   0  0  2  0  0  0  0  0  0  0  0  0
    1.3088    1.7467    5.7697 C   0  0  0  0  0  0  0  0  0  0  0  0
    1.6289    2.6784    7.2083 C   0  0  1  0  0  0  0  0  0  0  0  0
    2.2164    1.7575    8.3245 C   0  0  0  0  0  0  0  0  0  0  0  0
    1.5216    0.5453    8.5275 O   0  0  0  0  0  0  0  0  0  0  0  0
    2.4478    4.2618    7.3875 C   0  0  2  0  0  0  0  0  0  0  0  0
    1.4635    5.5188    7.7792 C   0  0  0  0  0  0  0  0  0  0  0  0
   -0.0527    5.6093    7.1061 C   0  0  2  0  0  0  0  0  0  0  0  0
   -0.9825    5.0772    8.1925 C   0  0  0  0  0  0  0  0  0  0  0  0
   -0.3370    3.7889    8.6630 C   0  0  0  0  0  0  0  0  0  0  0  0
    0.1551    3.0308    7.3836 C   0  0  2  0  0  0  0  0  0  0  0  0
   -0.8905    1.8246    7.4699 C   0  0  0  0  0  0  0  0  0  0  0  0
    0.4355    4.0071    6.0571 C   0  0  0  0  0  0  0  0  0  0  0  0
   -0.2919    4.9977    5.5918 C   0  0  2  0  0  0  0  0  0  0  0  0
    0.7312    5.8730    4.6785 C   0  0  1  0  0  0  0  0  0  0  0  0
    0.1580    7.1575    4.4930 O   0  0  0  0  0  0  0  0  0  0  0  0
    2.2880    6.0573    5.1896 C   0  0  0  0  0  0  0  0  0  0  0  0
    3.1794    4.9962    6.1099 C   0  0  1  0  0  0  0  0  0  0  0  0
    4.5004    5.6737    6.5289 C   0  0  0  0  0  0  0  0  0  0  0  0
   -0.0703    1.6625    3.3568 C   0  0  0  0  0  0  0  0  0  0  0  0
    0.9101    1.0819    2.8956 O   0  0  0  0  0  0  0  0  0  0  0  0
   -1.3154    1.9512    2.4968 C   0  0  0  0  0  0  0  0  0  0  0  0
   -4.5273    3.3359    2.9072 H   0  0  0  0  0  0  0  0  0  0  0  0
   -3.9778    2.1844    1.6837 H   0  0  0  0  0  0  0  0  0  0  0  0
   -3.3603    3.8098    1.6969 H   0  0  0  0  0  0  0  0  0  0  0  0
   -2.9124    1.7757    3.9481 H   0  0  0  0  0  0  0  0  0  0  0  0
   -2.5860    4.6146    4.1235 H   0  0  0  0  0  0  0  0  0  0  0  0
   -0.9041    1.3461    5.1217 H   0  0  0  0  0  0  0  0  0  0  0  0
    1.3199    0.6806    5.9900 H   0  0  0  0  0  0  0  0  0  0  0  0
    2.1842    1.8616    5.1217 H   0  0  0  0  0  0  0  0  0  0  0  0
    3.2478    1.5008    8.0809 H   0  0  0  0  0  0  0  0  0  0  0  0
    2.2188    2.2795    9.2829 H   0  0  0  0  0  0  0  0  0  0  0  0
    0.6045    0.7579    8.6135 H   0  0  0  0  0  0  0  0  0  0  0  0
    3.1923    4.1595    8.1813 H   0  0  0  0  0  0  0  0  0  0  0  0
    1.4100    5.6083    8.8641 H   0  0  0  0  0  0  0  0  0  0  0  0
    1.9638    6.4723    7.6176 H   0  0  0  0  0  0  0  0  0  0  0  0
   -0.2909    6.6704    7.0409 H   0  0  0  0  0  0  0  0  0  0  0  0
   -1.0653    5.7786    9.0256 H   0  0  0  0  0  0  0  0  0  0  0  0
   -1.9847    4.9103    7.8039 H   0  0  0  0  0  0  0  0  0  0  0  0
    0.4558    3.9030    9.4028 H   0  0  0  0  0  0  0  0  0  0  0  0
   -1.1051    3.3044    9.2705 H   0  0  0  0  0  0  0  0  0  0  0  0
   -1.8774    2.1247    7.1132 H   0  0  0  0  0  0  0  0  0  0  0  0
   -1.0390    1.4552    8.4880 H   0  0  0  0  0  0  0  0  0  0  0  0
   -0.6252    0.8847    6.9940 H   0  0  0  0  0  0  0  0  0  0  0  0
    1.3678    3.9928    5.5848 H   0  0  0  0  0  0  0  0  0  0  0  0
    1.0556    3.8166    5.1344 H   0  0  0  0  0  0  0  0  0  0  0  0
    0.7583    5.4191    3.6851 H   0  0  0  0  0  0  0  0  0  0  0  0
    0.3273    7.4912    3.6008 H   0  0  0  0  0  0  0  0  0  0  0  0
    2.8715    6.2057    4.2787 H   0  0  0  0  0  0  0  0  0  0  0  0
    2.3627    7.0434    5.6552 H   0  0  0  0  0  0  0  0  0  0  0  0
    3.4981    4.1916    5.4449 H   0  0  0  0  0  0  0  0  0  0  0  0
    4.3338    6.5111    7.2083 H   0  0  0  0  0  0  0  0  0  0  0  0
    5.0282    6.0646    5.6580 H   0  0  0  0  0  0  0  0  0  0  0  0
    5.1715    4.9699    7.0231 H   0  0  0  0  0  0  0  0  0  0  0  0
   -1.6214    1.0401    1.9810 H   0  0  0  0  0  0  0  0  0  0  0  0
   -0.9870    2.6444    1.7225 H   0  0  0  0  0  0  0  0  0  0  0  0
  1  2  1  0
  1 27  1  0
  1 28  1  0
  1 29  1  0
  2 26  1  0
  2  3  1  0
  2 30  1  1
  3  4  2  0
  3 31  1  0
 18  4  1  6
  4  5  1  0
  5  6  1  0
  5 24  1  0
  5 32  1  1
  6  7  1  0
  6 33  1  0
  6 34  1  0
  7 15  1  0
  7  8  1  1
  7 10  1  0
  8  9  1  0
  8 35  1  0
  8 36  1  0
  9 37  1  0
 10 22  1  0
 10 11  1  0
 10 38  1  1
 11 12  1  0
 11 39  1  0
 11 40  1  0
 12 18  1  0
 12 13  1  0
 12 41  1  6
 13 14  1  0
 13 42  1  0
 13 43  1  0
 14 15  1  0
 14 44  1  0
 14 45  1  0
 15 16  1  6
 15 17  1  0
 16 46  1  0
 16 47  1  0
 16 48  1  0
 17 18  1  0
 17 49  1  0
 17 50  1  0
 18 19  1  0
 19 20  1  0
 19 21  1  0
 19 51  1  6
 20 52  1  0
 21 22  1  0
 21 53  1  0
 21 54  1  0
 22 23  1  0
 22 55  1  6
 23 56  1  0
 23 57  1  0
 23 58  1  0
 24 25  2  0
 24 26  1  0
 26 59  1  0
 26 60  1  0
M  END
>  <i_m_ct_stereo_status>  (44) 
1

>  <s_m_source_file>  (44) 
/var/tmp/pbs.5076255.sched01/tmpm7cr0ro2/0ctwvxj2z.sdf

>  <i_m_source_file_index>  (44) 
15

>  <i_lp_mmshare_version>  (44) 
48012

>  <i_f3d_flags>  (44) 
0

>  <s_epik_input>  (44) 
W0NIM11bQ0BIXShbQ0hdPTEpW0NIMl1DKD1PKVtDQEhdKEMxQzIzNClbQ0gyXVtDQEBdNShbQ0gyXVtPSF0pW0NAQEhdKFtDQEhdKFtDSDNdKVtDSDJdW0NAQEhdNFtPSF0pW0NIMl1bQ0BASF0yW0NIMl1bQ0gyXVtDQEBdNShbQ0gzXSlbQ0gyXTM=

>  <s_epik_cmdline>  (44) 
J2VwaWtfcHl0aG9uJywgJy1waHQnLCAnMi4wJywgJy1waCcsICc3LjAnLCAnLXRuJywgJzgnLCAnLW1hJywgJzIwMCcsICctaW1hZScsICc8aW5maWxlLm1hZT4nLCAnLW9tYWUnLCAnPG91dGZpbGUubWFlPic=

>  <r_lp_tautomer_probability>  (44) 
1

>  <r_epik_Ionization_Penalty>  (44) 
1.44703e-06

>  <r_epik_Ionization_Penalty_Charging>  (44) 
0

>  <r_epik_Ionization_Penalty_Neutral>  (44) 
1.44703e-06

>  <r_epik_State_Penalty>  (44) 
-0

>  <r_epik_Charging_Adjusted_Penalty>  (44) 
0

>  <i_epik_Tot_Q>  (44) 
0

>  <i_epik_Tot_abs_Q>  (44) 
0

>  <s_lp_Force_Field>  (44) 
OPLS3e

>  <r_lp_Energy>  (44) 
530.152

>  <b_lp_Chiralities_Consistent>  (44) 
1

>  <s_lp_Variant>  (44) 
8:0-1

>  <s_i_glide_gridfile>  (44) 
pfpi4k_grid

>  <i_i_glide_lignum>  (44) 
15

>  <i_i_glide_rotatable_bonds>  (44) 
3

>  <r_i_docking_score>  (44) 
-2.50782

>  <r_i_glide_ligand_efficiency>  (44) 
-0.0964546

>  <r_i_glide_ligand_efficiency_sa>  (44) 
-0.285746

>  <r_i_glide_ligand_efficiency_ln>  (44) 
-0.588953

>  <r_i_glide_gscore>  (44) 
-2.50782

>  <r_i_glide_lipo>  (44) 
0

>  <r_i_glide_hbond>  (44) 
-0.222104

>  <r_i_glide_metal>  (44) 
-0

>  <r_i_glide_rewards>  (44) 
-0.964675

>  <r_i_glide_evdw>  (44) 
-12.9385

>  <r_i_glide_ecoul>  (44) 
-4.95591

>  <r_i_glide_erotb>  (44) 
0.104329

>  <r_i_glide_esite>  (44) 
-0.0350546

>  <r_i_glide_emodel>  (44) 
-18.4438

>  <r_i_glide_energy>  (44) 
-17.8944

>  <r_i_glide_einternal>  (44) 
4.55713

>  <r_i_glide_intrahb_reward>  (44) 
-0

>  <i_i_glide_confnum>  (44) 
6

>  <i_i_glide_posenum>  (44) 
1

>  <r_i_glide_eff_state_penalty>  (44) 
0

>  <ligand_id>  (44) 
8

>  <original_smiles>  (44) 
CC1C=C2C(CC3(CO)C4CC5CCC3(C)CC25C(O)CC4C)C(=O)C1

>  <smiles>  (44) 
[H]OC([H])([H])C12C([H])([H])C3([H])C(=O)C([H])([H])C([H])(C([H])([H])[H])C([H])=C3C34C([H])([H])C1(C([H])([H])[H])C([H])([H])C([H])([H])C3([H])C([H])([H])C2([H])C([H])(C([H])([H])[H])C([H])([H])C4([H])O[H]

$$$$
8:0:2
     RDKit          3D

 60 64  0  0  1  0  0  0  0  0999 V2000
   -3.1927    3.2664    2.9569 C   0  0  0  0  0  0  0  0  0  0  0  0
   -2.3727    3.1146    4.2459 C   0  0  2  0  0  0  0  0  0  0  0  0
   -1.2682    4.1551    4.3110 C   0  0  0  0  0  0  0  0  0  0  0  0
   -0.2838    4.0601    5.2173 C   0  0  0  0  0  0  0  0  0  0  0  0
   -0.4550    2.7598    6.3445 C   0  0  2  0  0  0  0  0  0  0  0  0
    0.7296    2.5185    7.6374 C   0  0  0  0  0  0  0  0  0  0  0  0
    1.7158    3.8512    8.1737 C   0  0  1  0  0  0  0  0  0  0  0  0
    1.8173    3.8111    9.7130 C   0  0  0  0  0  0  0  0  0  0  0  0
    2.6835    2.7695   10.1075 O   0  0  0  0  0  0  0  0  0  0  0  0
    3.2624    4.4712    7.5384 C   0  0  2  0  0  0  0  0  0  0  0  0
    3.1739    5.9090    6.7563 C   0  0  0  0  0  0  0  0  0  0  0  0
    1.8661    6.2275    5.7830 C   0  0  2  0  0  0  0  0  0  0  0  0
    0.9603    7.1062    6.6337 C   0  0  0  0  0  0  0  0  0  0  0  0
    0.8703    6.3926    7.9695 C   0  0  0  0  0  0  0  0  0  0  0  0
    0.7022    4.8653    7.6709 C   0  0  2  0  0  0  0  0  0  0  0  0
   -0.7842    4.7298    8.2354 C   0  0  0  0  0  0  0  0  0  0  0  0
    1.2627    4.3833    6.1706 C   0  0  0  0  0  0  0  0  0  0  0  0
    1.1190    4.9795    5.0062 C   0  0  2  0  0  0  0  0  0  0  0  0
    2.3156    4.3614    4.0951 C   0  0  1  0  0  0  0  0  0  0  0  0
    2.5142    5.1895    2.9703 O   0  0  0  0  0  0  0  0  0  0  0  0
    3.7784    4.0668    4.7895 C   0  0  0  0  0  0  0  0  0  0  0  0
    4.0795    3.6636    6.3718 C   0  0  1  0  0  0  0  0  0  0  0  0
    5.5974    3.6905    6.6324 C   0  0  0  0  0  0  0  0  0  0  0  0
   -0.7960    1.5031    5.5455 C   0  0  0  0  0  0  0  0  0  0  0  0
   -0.3995    0.3902    5.8817 O   0  0  0  0  0  0  0  0  0  0  0  0
   -1.7774    1.6762    4.3701 C   0  0  0  0  0  0  0  0  0  0  0  0
   -3.6364    4.2584    2.8777 H   0  0  0  0  0  0  0  0  0  0  0  0
   -4.0160    2.5497    2.9232 H   0  0  0  0  0  0  0  0  0  0  0  0
   -2.5747    3.1029    2.0799 H   0  0  0  0  0  0  0  0  0  0  0  0
   -3.0385    3.2972    5.0928 H   0  0  0  0  0  0  0  0  0  0  0  0
   -1.1955    4.8713    3.5037 H   0  0  0  0  0  0  0  0  0  0  0  0
   -1.4248    2.9202    6.7962 H   0  0  0  0  0  0  0  0  0  0  0  0
    0.2046    2.0975    8.4963 H   0  0  0  0  0  0  0  0  0  0  0  0
    1.4125    1.7126    7.3607 H   0  0  0  0  0  0  0  0  0  0  0  0
    2.1983    4.7540   10.1080 H   0  0  0  0  0  0  0  0  0  0  0  0
    0.8427    3.6444   10.1748 H   0  0  0  0  0  0  0  0  0  0  0  0
    2.6828    2.7231   11.0510 H   0  0  0  0  0  0  0  0  0  0  0  0
    3.9350    4.5911    8.3912 H   0  0  0  0  0  0  0  0  0  0  0  0
    3.3272    6.7134    7.4697 H   0  0  0  0  0  0  0  0  0  0  0  0
    4.0774    6.0925    6.1846 H   0  0  0  0  0  0  0  0  0  0  0  0
    2.2284    6.8853    4.9932 H   0  0  0  0  0  0  0  0  0  0  0  0
    1.3896    8.0990    6.7679 H   0  0  0  0  0  0  0  0  0  0  0  0
   -0.0162    7.2272    6.1641 H   0  0  0  0  0  0  0  0  0  0  0  0
    1.6912    6.5838    8.6592 H   0  0  0  0  0  0  0  0  0  0  0  0
    0.0509    6.8912    8.4882 H   0  0  0  0  0  0  0  0  0  0  0  0
   -1.4949    5.1221    7.5098 H   0  0  0  0  0  0  0  0  0  0  0  0
   -0.9507    5.2809    9.1618 H   0  0  0  0  0  0  0  0  0  0  0  0
   -1.1392    3.7584    8.5597 H   0  0  0  0  0  0  0  0  0  0  0  0
    1.9592    3.6026    6.1008 H   0  0  0  0  0  0  0  0  0  0  0  0
    1.5337    3.3545    5.7912 H   0  0  0  0  0  0  0  0  0  0  0  0
    1.9576    3.4211    3.6750 H   0  0  0  0  0  0  0  0  0  0  0  0
    1.7542    5.1157    2.4087 H   0  0  0  0  0  0  0  0  0  0  0  0
    4.2025    3.2526    4.2059 H   0  0  0  0  0  0  0  0  0  0  0  0
    4.4275    4.8999    4.5243 H   0  0  0  0  0  0  0  0  0  0  0  0
    3.8132    2.6109    6.4905 H   0  0  0  0  0  0  0  0  0  0  0  0
    6.0111    4.6962    6.5457 H   0  0  0  0  0  0  0  0  0  0  0  0
    6.1243    3.0560    5.9215 H   0  0  0  0  0  0  0  0  0  0  0  0
    5.8373    3.3125    7.6273 H   0  0  0  0  0  0  0  0  0  0  0  0
   -2.5644    0.9341    4.4882 H   0  0  0  0  0  0  0  0  0  0  0  0
   -1.2554    1.4172    3.4424 H   0  0  0  0  0  0  0  0  0  0  0  0
  1  2  1  0
  1 27  1  0
  1 28  1  0
  1 29  1  0
  2 26  1  0
  2  3  1  0
  2 30  1  1
  3  4  2  0
  3 31  1  0
 18  4  1  6
  4  5  1  0
  5  6  1  0
  5 24  1  0
  5 32  1  1
  6  7  1  0
  6 33  1  0
  6 34  1  0
  7 15  1  0
  7  8  1  1
  7 10  1  0
  8  9  1  0
  8 35  1  0
  8 36  1  0
  9 37  1  0
 10 22  1  0
 10 11  1  0
 10 38  1  1
 11 12  1  0
 11 39  1  0
 11 40  1  0
 12 18  1  0
 12 13  1  0
 12 41  1  6
 13 14  1  0
 13 42  1  0
 13 43  1  0
 14 15  1  0
 14 44  1  0
 14 45  1  0
 15 16  1  6
 15 17  1  0
 16 46  1  0
 16 47  1  0
 16 48  1  0
 17 18  1  0
 17 49  1  0
 17 50  1  0
 18 19  1  0
 19 20  1  0
 19 21  1  0
 19 51  1  6
 20 52  1  0
 21 22  1  0
 21 53  1  0
 21 54  1  0
 22 23  1  0
 22 55  1  6
 23 56  1  0
 23 57  1  0
 23 58  1  0
 24 25  2  0
 24 26  1  0
 26 59  1  0
 26 60  1  0
M  END
>  <i_m_ct_stereo_status>  (45) 
1

>  <s_m_source_file>  (45) 
/var/tmp/pbs.5076255.sched01/tmpm7cr0ro2/0ctwvxj2z.sdf

>  <i_m_source_file_index>  (45) 
15

>  <i_lp_mmshare_version>  (45) 
48012

>  <i_f3d_flags>  (45) 
0

>  <s_epik_input>  (45) 
W0NIM11bQ0BIXShbQ0hdPTEpW0NIMl1DKD1PKVtDQEhdKEMxQzIzNClbQ0gyXVtDQEBdNShbQ0gyXVtPSF0pW0NAQEhdKFtDQEhdKFtDSDNdKVtDSDJdW0NAQEhdNFtPSF0pW0NIMl1bQ0BASF0yW0NIMl1bQ0gyXVtDQEBdNShbQ0gzXSlbQ0gyXTM=

>  <s_epik_cmdline>  (45) 
J2VwaWtfcHl0aG9uJywgJy1waHQnLCAnMi4wJywgJy1waCcsICc3LjAnLCAnLXRuJywgJzgnLCAnLW1hJywgJzIwMCcsICctaW1hZScsICc8aW5maWxlLm1hZT4nLCAnLW9tYWUnLCAnPG91dGZpbGUubWFlPic=

>  <r_lp_tautomer_probability>  (45) 
1

>  <r_epik_Ionization_Penalty>  (45) 
1.44703e-06

>  <r_epik_Ionization_Penalty_Charging>  (45) 
0

>  <r_epik_Ionization_Penalty_Neutral>  (45) 
1.44703e-06

>  <r_epik_State_Penalty>  (45) 
-0

>  <r_epik_Charging_Adjusted_Penalty>  (45) 
0

>  <i_epik_Tot_Q>  (45) 
0

>  <i_epik_Tot_abs_Q>  (45) 
0

>  <s_lp_Force_Field>  (45) 
OPLS3e

>  <r_lp_Energy>  (45) 
530.152

>  <b_lp_Chiralities_Consistent>  (45) 
1

>  <s_lp_Variant>  (45) 
8:0-1

>  <s_i_glide_gridfile>  (45) 
pfpi4k_grid

>  <i_i_glide_lignum>  (45) 
15

>  <i_i_glide_rotatable_bonds>  (45) 
3

>  <r_i_docking_score>  (45) 
-1.82113

>  <r_i_glide_ligand_efficiency>  (45) 
-0.0700433

>  <r_i_glide_ligand_efficiency_sa>  (45) 
-0.207503

>  <r_i_glide_ligand_efficiency_ln>  (45) 
-0.427685

>  <r_i_glide_gscore>  (45) 
-1.82113

>  <r_i_glide_lipo>  (45) 
-0.0172569

>  <r_i_glide_hbond>  (45) 
0

>  <r_i_glide_metal>  (45) 
-0

>  <r_i_glide_rewards>  (45) 
-0.964675

>  <r_i_glide_evdw>  (45) 
-15.6097

>  <r_i_glide_ecoul>  (45) 
-1.30138

>  <r_i_glide_erotb>  (45) 
0.149041

>  <r_i_glide_esite>  (45) 
-0.0125416

>  <r_i_glide_emodel>  (45) 
-18.6863

>  <r_i_glide_energy>  (45) 
-16.9111

>  <r_i_glide_einternal>  (45) 
0.818847

>  <r_i_glide_intrahb_reward>  (45) 
-0

>  <i_i_glide_confnum>  (45) 
1

>  <i_i_glide_posenum>  (45) 
19

>  <r_i_glide_eff_state_penalty>  (45) 
0

>  <ligand_id>  (45) 
8

>  <original_smiles>  (45) 
CC1C=C2C(CC3(CO)C4CC5CCC3(C)CC25C(O)CC4C)C(=O)C1

>  <smiles>  (45) 
[H]OC([H])([H])C12C([H])([H])C3([H])C(=O)C([H])([H])C([H])(C([H])([H])[H])C([H])=C3C34C([H])([H])C1(C([H])([H])[H])C([H])([H])C([H])([H])C3([H])C([H])([H])C2([H])C([H])(C([H])([H])[H])C([H])([H])C4([H])O[H]

$$$$
9:0:0
     RDKit          3D

 51 53  0  0  1  0  0  0  0  0999 V2000
    2.0015   -8.2032    1.6810 C   0  0  0  0  0  0  0  0  0  0  0  0
    1.7722   -6.7128    1.5079 C   0  0  0  0  0  0  0  0  0  0  0  0
    0.6404   -6.2493    1.3358 O   0  0  0  0  0  0  0  0  0  0  0  0
    2.9169   -6.0120    1.5758 O   0  0  0  0  0  0  0  0  0  0  0  0
    2.9108   -4.5892    1.6489 C   0  0  2  0  0  0  0  0  0  0  0  0
    2.9249   -3.9139    0.2714 C   0  0  0  0  0  0  0  0  0  0  0  0
    4.2984   -3.3575   -0.1958 C   0  0  1  0  0  0  0  0  0  0  0  0
    5.1896   -4.5877   -0.5052 C   0  0  0  0  0  0  0  0  0  0  0  0
    4.1207   -2.4703   -1.4670 C   0  0  0  0  0  0  0  0  0  0  0  0
    5.3937   -2.3061   -2.3217 C   0  0  0  0  0  0  0  0  0  0  0  0
    2.9514   -2.8291   -2.4155 C   0  0  0  0  0  0  0  0  0  0  0  0
    3.8471   -1.1897   -0.9160 O   0  0  0  0  0  0  0  0  0  0  0  0
    4.2418   -1.0398    0.3561 C   0  0  0  0  0  0  0  0  0  0  0  0
    4.1909    0.0219    0.9671 O   0  0  0  0  0  0  0  0  0  0  0  0
    4.8501   -2.3455    0.8697 C   0  0  2  0  0  0  0  0  0  0  0  0
    6.2612   -2.2532    0.8095 O   0  0  0  0  0  0  0  0  0  0  0  0
    4.4611   -2.7023    2.3127 C   0  0  0  0  0  0  0  0  0  0  0  0
    4.4480   -1.9591    3.4469 C   0  0  0  0  0  0  0  0  0  0  0  0
    4.7556   -0.4981    3.7220 C   0  0  0  0  0  0  0  0  0  0  0  0
    4.0343   -2.8156    4.5686 C   0  0  0  0  0  0  0  0  0  0  0  0
    3.8258   -2.4596    5.7320 O   0  0  0  0  0  0  0  0  0  0  0  0
    3.8898   -4.2460    4.1058 C   0  0  1  0  0  0  0  0  0  0  0  0
    2.7078   -4.9343    4.5999 O   0  0  0  0  0  0  0  0  0  0  0  0
    1.4539   -4.4195    4.6077 C   0  0  0  0  0  0  0  0  0  0  0  0
    0.4364   -5.4280    5.0999 C   0  0  0  0  0  0  0  0  0  0  0  0
    1.0818   -3.3100    4.2159 O   0  0  0  0  0  0  0  0  0  0  0  0
    4.0807   -4.1581    2.5794 C   0  0  1  0  0  0  0  0  0  0  0  0
    2.4672   -8.3998    2.6468 H   0  0  0  0  0  0  0  0  0  0  0  0
    2.6614   -8.5719    0.8963 H   0  0  0  0  0  0  0  0  0  0  0  0
    1.0558   -8.7483    1.6350 H   0  0  0  0  0  0  0  0  0  0  0  0
    1.9605   -4.2577    2.0584 H   0  0  0  0  0  0  0  0  0  0  0  0
    2.4687   -4.5892   -0.4613 H   0  0  0  0  0  0  0  0  0  0  0  0
    2.2488   -3.0641    0.3569 H   0  0  0  0  0  0  0  0  0  0  0  0
    6.2224   -4.3113   -0.7171 H   0  0  0  0  0  0  0  0  0  0  0  0
    4.7995   -5.1125   -1.3814 H   0  0  0  0  0  0  0  0  0  0  0  0
    5.2093   -5.3242    0.2958 H   0  0  0  0  0  0  0  0  0  0  0  0
    5.6634   -3.2247   -2.8428 H   0  0  0  0  0  0  0  0  0  0  0  0
    6.2521   -2.0019   -1.7248 H   0  0  0  0  0  0  0  0  0  0  0  0
    5.2325   -1.5404   -3.0753 H   0  0  0  0  0  0  0  0  0  0  0  0
    3.0532   -3.8440   -2.8054 H   0  0  0  0  0  0  0  0  0  0  0  0
    2.9224   -2.1689   -3.2781 H   0  0  0  0  0  0  0  0  0  0  0  0
    1.9801   -2.7524   -1.9339 H   0  0  0  0  0  0  0  0  0  0  0  0
    6.5218   -1.5776    1.4279 H   0  0  0  0  0  0  0  0  0  0  0  0
    5.1354   -0.3722    4.7319 H   0  0  0  0  0  0  0  0  0  0  0  0
    3.8368    0.0795    3.6496 H   0  0  0  0  0  0  0  0  0  0  0  0
    5.4968   -0.0883    3.0445 H   0  0  0  0  0  0  0  0  0  0  0  0
    4.7477   -4.7759    4.5187 H   0  0  0  0  0  0  0  0  0  0  0  0
    0.6917   -5.7556    6.1052 H   0  0  0  0  0  0  0  0  0  0  0  0
    0.4088   -6.2831    4.4227 H   0  0  0  0  0  0  0  0  0  0  0  0
   -0.5365   -4.9490    5.1050 H   0  0  0  0  0  0  0  0  0  0  0  0
    4.9797   -4.7196    2.3239 H   0  0  0  0  0  0  0  0  0  0  0  0
  1  2  1  0
  1 28  1  0
  1 29  1  0
  1 30  1  0
  2  3  2  0
  2  4  1  0
  4  5  1  0
  5 27  1  0
  5  6  1  0
  5 31  1  1
  6  7  1  0
  6 32  1  0
  6 33  1  0
  7 15  1  0
  7  8  1  6
  7  9  1  0
  8 34  1  0
  8 35  1  0
  8 36  1  0
  9 10  1  0
  9 11  1  0
  9 12  1  0
 10 37  1  0
 10 38  1  0
 10 39  1  0
 11 40  1  0
 11 41  1  0
 11 42  1  0
 12 13  1  0
 13 14  2  0
 13 15  1  0
 15 16  1  1
 15 17  1  0
 16 43  1  0
 17 27  1  0
 17 18  2  0
 18 19  1  0
 18 20  1  0
 19 44  1  0
 19 45  1  0
 19 46  1  0
 20 21  2  0
 20 22  1  0
 22 23  1  0
 22 27  1  0
 22 47  1  1
 23 24  1  0
 24 25  1  0
 24 26  2  0
 25 48  1  0
 25 49  1  0
 25 50  1  0
 27 51  1  6
M  END
>  <i_m_ct_stereo_status>  (46) 
1

>  <s_m_source_file>  (46) 
/var/tmp/pbs.5076255.sched01/tmpm7cr0ro2/0ctwvxj2z.sdf

>  <i_m_source_file_index>  (46) 
16

>  <i_lp_mmshare_version>  (46) 
48012

>  <i_f3d_flags>  (46) 
0

>  <s_epik_input>  (46) 
W0NIM11DKD1PKU9bQ0BIXShbQ0gyXTEpW0NASF0oW0NAQEhdKEMoPU8pQzJbQ0gzXSlPQyg9TylbQ0gzXSlDPTJbQ0BAXShbT0hdKShbQ0BAXTEzW0NIM10pQyg9TylPQzMoW0NIM10pW0NIM10=

>  <s_epik_cmdline>  (46) 
J2VwaWtfcHl0aG9uJywgJy1waHQnLCAnMi4wJywgJy1waCcsICc3LjAnLCAnLXRuJywgJzgnLCAnLW1hJywgJzIwMCcsICctaW1hZScsICc8aW5maWxlLm1hZT4nLCAnLW9tYWUnLCAnPG91dGZpbGUubWFlPic=

>  <r_lp_tautomer_probability>  (46) 
0.499977

>  <r_epik_Ionization_Penalty>  (46) 
1.15276e-05

>  <r_epik_Ionization_Penalty_Charging>  (46) 
0

>  <r_epik_Ionization_Penalty_Neutral>  (46) 
1.15276e-05

>  <r_epik_State_Penalty>  (46) 
0.41068

>  <r_epik_Charging_Adjusted_Penalty>  (46) 
0.41068

>  <i_epik_Tot_Q>  (46) 
0

>  <i_epik_Tot_abs_Q>  (46) 
0

>  <s_epik_Chemistry_Notes>  (46) 
This compound has an ester and may undergo hydrolysis at high or low pH.

>  <s_lp_Force_Field>  (46) 
OPLS3e

>  <r_lp_Energy>  (46) 
28.3098

>  <b_lp_Chiralities_Consistent>  (46) 
1

>  <s_lp_Variant>  (46) 
9:0-1

>  <s_i_glide_gridfile>  (46) 
pfpi4k_grid

>  <i_i_glide_lignum>  (46) 
16

>  <i_i_glide_rotatable_bonds>  (46) 
5

>  <r_i_docking_score>  (46) 
-2.96576

>  <r_i_glide_ligand_efficiency>  (46) 
-0.109843

>  <r_i_glide_ligand_efficiency_sa>  (46) 
-0.329529

>  <r_i_glide_ligand_efficiency_ln>  (46) 
-0.690381

>  <r_i_glide_gscore>  (46) 
-2.96576

>  <r_i_glide_lipo>  (46) 
-0.262359

>  <r_i_glide_hbond>  (46) 
-0.16

>  <r_i_glide_metal>  (46) 
-0

>  <r_i_glide_rewards>  (46) 
-0.818644

>  <r_i_glide_evdw>  (46) 
-29.7286

>  <r_i_glide_ecoul>  (46) 
-3.12921

>  <r_i_glide_erotb>  (46) 
0.268148

>  <r_i_glide_esite>  (46) 
-0.037096

>  <r_i_glide_emodel>  (46) 
-35.3228

>  <r_i_glide_energy>  (46) 
-32.8578

>  <r_i_glide_einternal>  (46) 
6.63513

>  <r_i_glide_intrahb_reward>  (46) 
-0

>  <i_i_glide_confnum>  (46) 
3

>  <i_i_glide_posenum>  (46) 
32

>  <r_i_glide_eff_state_penalty>  (46) 
0

>  <ligand_id>  (46) 
9

>  <original_smiles>  (46) 
CC(=O)OC1CC2(C)C(C)(C)OC(=O)C2(O)C2=C(C)C(=O)C(OC(C)=O)C21

>  <smiles>  (46) 
[H]OC12C(=O)OC(C([H])([H])[H])(C([H])([H])[H])C1(C([H])([H])[H])C([H])([H])C([H])(OC(=O)C([H])([H])[H])C1([H])C2=C(C([H])([H])[H])C(=O)C1([H])OC(=O)C([H])([H])[H]

$$$$
9:0:1
     RDKit          3D

 51 53  0  0  1  0  0  0  0  0999 V2000
    3.7179   -2.8215    5.9336 C   0  0  0  0  0  0  0  0  0  0  0  0
    5.1088   -3.4080    5.6554 C   0  0  0  0  0  0  0  0  0  0  0  0
    5.9972   -3.3382    6.5011 O   0  0  0  0  0  0  0  0  0  0  0  0
    5.2850   -3.9919    4.4457 O   0  0  0  0  0  0  0  0  0  0  0  0
    4.2931   -3.9694    3.4145 C   0  0  2  0  0  0  0  0  0  0  0  0
    3.3668   -5.1947    3.5101 C   0  0  0  0  0  0  0  0  0  0  0  0
    3.6370   -6.3165    2.4650 C   0  0  1  0  0  0  0  0  0  0  0  0
    4.9726   -6.9926    2.8709 C   0  0  0  0  0  0  0  0  0  0  0  0
    2.4577   -7.3559    2.4764 C   0  0  0  0  0  0  0  0  0  0  0  0
    2.8293   -8.7433    1.8886 C   0  0  0  0  0  0  0  0  0  0  0  0
    1.7420   -7.5734    3.8289 C   0  0  0  0  0  0  0  0  0  0  0  0
    1.5271   -6.7563    1.5998 O   0  0  0  0  0  0  0  0  0  0  0  0
    2.0568   -5.9152    0.7192 C   0  0  0  0  0  0  0  0  0  0  0  0
    1.4197   -5.4468   -0.2237 O   0  0  0  0  0  0  0  0  0  0  0  0
    3.5662   -5.7039    1.0122 C   0  0  2  0  0  0  0  0  0  0  0  0
    4.3010   -6.4602    0.0736 O   0  0  0  0  0  0  0  0  0  0  0  0
    4.0653   -4.2415    0.9435 C   0  0  0  0  0  0  0  0  0  0  0  0
    3.8596   -3.2657    0.0309 C   0  0  0  0  0  0  0  0  0  0  0  0
    3.0543   -3.2299   -1.2540 C   0  0  0  0  0  0  0  0  0  0  0  0
    4.6001   -2.0661    0.4159 C   0  0  0  0  0  0  0  0  0  0  0  0
    4.6088   -0.9745   -0.1628 O   0  0  0  0  0  0  0  0  0  0  0  0
    5.4345   -2.3576    1.6566 C   0  0  1  0  0  0  0  0  0  0  0  0
    5.3784   -1.3321    2.6605 O   0  0  0  0  0  0  0  0  0  0  0  0
    4.2370   -0.7147    3.0786 C   0  0  0  0  0  0  0  0  0  0  0  0
    4.4973    0.2483    4.2263 C   0  0  0  0  0  0  0  0  0  0  0  0
    3.0939   -0.9119    2.6736 O   0  0  0  0  0  0  0  0  0  0  0  0
    4.9997   -3.7995    2.0522 C   0  0  1  0  0  0  0  0  0  0  0  0
    2.9387   -3.5725    5.7863 H   0  0  0  0  0  0  0  0  0  0  0  0
    3.4963   -1.9822    5.2769 H   0  0  0  0  0  0  0  0  0  0  0  0
    3.6380   -2.4556    6.9539 H   0  0  0  0  0  0  0  0  0  0  0  0
    3.6233   -3.1217    3.5266 H   0  0  0  0  0  0  0  0  0  0  0  0
    3.3701   -5.5805    4.5309 H   0  0  0  0  0  0  0  0  0  0  0  0
    2.3643   -4.8047    3.3452 H   0  0  0  0  0  0  0  0  0  0  0  0
    5.3260   -7.7081    2.1255 H   0  0  0  0  0  0  0  0  0  0  0  0
    4.8489   -7.5310    3.8136 H   0  0  0  0  0  0  0  0  0  0  0  0
    5.7827   -6.2864    3.0440 H   0  0  0  0  0  0  0  0  0  0  0  0
    3.4966   -9.2971    2.5484 H   0  0  0  0  0  0  0  0  0  0  0  0
    3.3184   -8.6693    0.9174 H   0  0  0  0  0  0  0  0  0  0  0  0
    1.9386   -9.3556    1.7485 H   0  0  0  0  0  0  0  0  0  0  0  0
    2.4246   -7.9192    4.6050 H   0  0  0  0  0  0  0  0  0  0  0  0
    0.9611   -8.3273    3.7263 H   0  0  0  0  0  0  0  0  0  0  0  0
    1.2459   -6.6727    4.1901 H   0  0  0  0  0  0  0  0  0  0  0  0
    4.0438   -6.1847   -0.7899 H   0  0  0  0  0  0  0  0  0  0  0  0
    3.5116   -2.5618   -1.9865 H   0  0  0  0  0  0  0  0  0  0  0  0
    2.0552   -2.8560   -1.0492 H   0  0  0  0  0  0  0  0  0  0  0  0
    2.9734   -4.2085   -1.7098 H   0  0  0  0  0  0  0  0  0  0  0  0
    6.4664   -2.4076    1.3173 H   0  0  0  0  0  0  0  0  0  0  0  0
    5.2124    1.0195    3.9404 H   0  0  0  0  0  0  0  0  0  0  0  0
    4.8848   -0.2977    5.0848 H   0  0  0  0  0  0  0  0  0  0  0  0
    3.5533    0.7147    4.5092 H   0  0  0  0  0  0  0  0  0  0  0  0
    5.8847   -4.4427    1.9770 H   0  0  0  0  0  0  0  0  0  0  0  0
  1  2  1  0
  1 28  1  0
  1 29  1  0
  1 30  1  0
  2  3  2  0
  2  4  1  0
  4  5  1  0
  5 27  1  0
  5  6  1  0
  5 31  1  1
  6  7  1  0
  6 32  1  0
  6 33  1  0
  7 15  1  0
  7  8  1  1
  7  9  1  0
  8 34  1  0
  8 35  1  0
  8 36  1  0
  9 10  1  0
  9 11  1  0
  9 12  1  0
 10 37  1  0
 10 38  1  0
 10 39  1  0
 11 40  1  0
 11 41  1  0
 11 42  1  0
 12 13  1  0
 13 14  2  0
 13 15  1  0
 15 16  1  6
 15 17  1  0
 16 43  1  0
 17 27  1  0
 17 18  2  0
 18 19  1  0
 18 20  1  0
 19 44  1  0
 19 45  1  0
 19 46  1  0
 20 21  2  0
 20 22  1  0
 22 23  1  0
 22 27  1  0
 22 47  1  6
 23 24  1  0
 24 25  1  0
 24 26  2  0
 25 48  1  0
 25 49  1  0
 25 50  1  0
 27 51  1  1
M  END
>  <i_m_ct_stereo_status>  (47) 
1

>  <s_m_source_file>  (47) 
/var/tmp/pbs.5076255.sched01/tmpm7cr0ro2/0ctwvxj2z.sdf

>  <i_m_source_file_index>  (47) 
16

>  <i_lp_mmshare_version>  (47) 
48012

>  <i_f3d_flags>  (47) 
0

>  <s_epik_input>  (47) 
W0NIM11DKD1PKU9bQ0BIXShbQ0gyXTEpW0NASF0oW0NAQEhdKEMoPU8pQzJbQ0gzXSlPQyg9TylbQ0gzXSlDPTJbQ0BAXShbT0hdKShbQ0BAXTEzW0NIM10pQyg9TylPQzMoW0NIM10pW0NIM10=

>  <s_epik_cmdline>  (47) 
J2VwaWtfcHl0aG9uJywgJy1waHQnLCAnMi4wJywgJy1waCcsICc3LjAnLCAnLXRuJywgJzgnLCAnLW1hJywgJzIwMCcsICctaW1hZScsICc8aW5maWxlLm1hZT4nLCAnLW9tYWUnLCAnPG91dGZpbGUubWFlPic=

>  <r_lp_tautomer_probability>  (47) 
0.499977

>  <r_epik_Ionization_Penalty>  (47) 
1.15276e-05

>  <r_epik_Ionization_Penalty_Charging>  (47) 
0

>  <r_epik_Ionization_Penalty_Neutral>  (47) 
1.15276e-05

>  <r_epik_State_Penalty>  (47) 
0.41068

>  <r_epik_Charging_Adjusted_Penalty>  (47) 
0.41068

>  <i_epik_Tot_Q>  (47) 
0

>  <i_epik_Tot_abs_Q>  (47) 
0

>  <s_epik_Chemistry_Notes>  (47) 
This compound has an ester and may undergo hydrolysis at high or low pH.

>  <s_lp_Force_Field>  (47) 
OPLS3e

>  <r_lp_Energy>  (47) 
28.3098

>  <b_lp_Chiralities_Consistent>  (47) 
1

>  <s_lp_Variant>  (47) 
9:0-1

>  <s_i_glide_gridfile>  (47) 
pfpi4k_grid

>  <i_i_glide_lignum>  (47) 
16

>  <i_i_glide_rotatable_bonds>  (47) 
5

>  <r_i_docking_score>  (47) 
-2.91693

>  <r_i_glide_ligand_efficiency>  (47) 
-0.108034

>  <r_i_glide_ligand_efficiency_sa>  (47) 
-0.324103

>  <r_i_glide_ligand_efficiency_ln>  (47) 
-0.679013

>  <r_i_glide_gscore>  (47) 
-2.91693

>  <r_i_glide_lipo>  (47) 
-0.249321

>  <r_i_glide_hbond>  (47) 
-0.205678

>  <r_i_glide_metal>  (47) 
-0

>  <r_i_glide_rewards>  (47) 
-0.881174

>  <r_i_glide_evdw>  (47) 
-23.4253

>  <r_i_glide_ecoul>  (47) 
-4.19364

>  <r_i_glide_erotb>  (47) 
0.268148

>  <r_i_glide_esite>  (47) 
-0.0485923

>  <r_i_glide_emodel>  (47) 
-26.8898

>  <r_i_glide_energy>  (47) 
-27.6189

>  <r_i_glide_einternal>  (47) 
12.2406

>  <r_i_glide_intrahb_reward>  (47) 
-0

>  <i_i_glide_confnum>  (47) 
2

>  <i_i_glide_posenum>  (47) 
26

>  <r_i_glide_eff_state_penalty>  (47) 
0

>  <ligand_id>  (47) 
9

>  <original_smiles>  (47) 
CC(=O)OC1CC2(C)C(C)(C)OC(=O)C2(O)C2=C(C)C(=O)C(OC(C)=O)C21

>  <smiles>  (47) 
[H]OC12C(=O)OC(C([H])([H])[H])(C([H])([H])[H])C1(C([H])([H])[H])C([H])([H])C([H])(OC(=O)C([H])([H])[H])C1([H])C2=C(C([H])([H])[H])C(=O)C1([H])OC(=O)C([H])([H])[H]

$$$$
9:0:2
     RDKit          3D

 51 53  0  0  1  0  0  0  0  0999 V2000
    2.0199   -8.1991    1.7030 C   0  0  0  0  0  0  0  0  0  0  0  0
    1.7842   -6.7029    1.5274 C   0  0  0  0  0  0  0  0  0  0  0  0
    0.6597   -6.2447    1.3501 O   0  0  0  0  0  0  0  0  0  0  0  0
    2.9314   -6.0034    1.6023 O   0  0  0  0  0  0  0  0  0  0  0  0
    2.9213   -4.5789    1.6725 C   0  0  2  0  0  0  0  0  0  0  0  0
    2.9288   -3.9065    0.2919 C   0  0  0  0  0  0  0  0  0  0  0  0
    4.2993   -3.3505   -0.1832 C   0  0  1  0  0  0  0  0  0  0  0  0
    5.1924   -4.5803   -0.4925 C   0  0  0  0  0  0  0  0  0  0  0  0
    4.1141   -2.4644   -1.4566 C   0  0  0  0  0  0  0  0  0  0  0  0
    5.3830   -2.2988   -2.3164 C   0  0  0  0  0  0  0  0  0  0  0  0
    2.9425   -2.8351   -2.4018 C   0  0  0  0  0  0  0  0  0  0  0  0
    3.8376   -1.1847   -0.9053 O   0  0  0  0  0  0  0  0  0  0  0  0
    4.2403   -1.0304    0.3626 C   0  0  0  0  0  0  0  0  0  0  0  0
    4.1670    0.0299    0.9780 O   0  0  0  0  0  0  0  0  0  0  0  0
    4.8547   -2.3323    0.8756 C   0  0  2  0  0  0  0  0  0  0  0  0
    6.2672   -2.2318    0.7969 O   0  0  0  0  0  0  0  0  0  0  0  0
    4.4787   -2.6911    2.3241 C   0  0  0  0  0  0  0  0  0  0  0  0
    4.4606   -1.9432    3.4584 C   0  0  0  0  0  0  0  0  0  0  0  0
    4.7586   -0.4809    3.7283 C   0  0  0  0  0  0  0  0  0  0  0  0
    4.0495   -2.7958    4.5781 C   0  0  0  0  0  0  0  0  0  0  0  0
    3.8380   -2.4396    5.7451 O   0  0  0  0  0  0  0  0  0  0  0  0
    3.9063   -4.2309    4.1237 C   0  0  1  0  0  0  0  0  0  0  0  0
    2.7307   -4.9212    4.6196 O   0  0  0  0  0  0  0  0  0  0  0  0
    1.4723   -4.4119    4.6310 C   0  0  0  0  0  0  0  0  0  0  0  0
    0.4592   -5.4242    5.1192 C   0  0  0  0  0  0  0  0  0  0  0  0
    1.0995   -3.3025    4.2405 O   0  0  0  0  0  0  0  0  0  0  0  0
    4.0965   -4.1425    2.5945 C   0  0  1  0  0  0  0  0  0  0  0  0
    2.4821   -8.3935    2.6720 H   0  0  0  0  0  0  0  0  0  0  0  0
    2.6862   -8.5657    0.9217 H   0  0  0  0  0  0  0  0  0  0  0  0
    1.0773   -8.7466    1.6522 H   0  0  0  0  0  0  0  0  0  0  0  0
    1.9707   -4.2515    2.0859 H   0  0  0  0  0  0  0  0  0  0  0  0
    2.4716   -4.5847   -0.4352 H   0  0  0  0  0  0  0  0  0  0  0  0
    2.2488   -3.0606    0.3778 H   0  0  0  0  0  0  0  0  0  0  0  0
    6.2233   -4.3062   -0.7163 H   0  0  0  0  0  0  0  0  0  0  0  0
    4.7971   -5.1073   -1.3635 H   0  0  0  0  0  0  0  0  0  0  0  0
    5.2161   -5.3153    0.3103 H   0  0  0  0  0  0  0  0  0  0  0  0
    5.6536   -3.2188   -2.8362 H   0  0  0  0  0  0  0  0  0  0  0  0
    6.2419   -1.9884   -1.7261 H   0  0  0  0  0  0  0  0  0  0  0  0
    5.2154   -1.5343   -3.0713 H   0  0  0  0  0  0  0  0  0  0  0  0
    3.0459   -3.8497   -2.7875 H   0  0  0  0  0  0  0  0  0  0  0  0
    2.9090   -2.1686   -3.2640 H   0  0  0  0  0  0  0  0  0  0  0  0
    1.9686   -2.7543   -1.9187 H   0  0  0  0  0  0  0  0  0  0  0  0
    6.6334   -3.0619    1.0906 H   0  0  0  0  0  0  0  0  0  0  0  0
    5.1429   -0.3513    4.7366 H   0  0  0  0  0  0  0  0  0  0  0  0
    3.8380    0.0944    3.6580 H   0  0  0  0  0  0  0  0  0  0  0  0
    5.4958   -0.0754    3.0450 H   0  0  0  0  0  0  0  0  0  0  0  0
    4.7677   -4.7554    4.5355 H   0  0  0  0  0  0  0  0  0  0  0  0
    0.7142   -5.7552    6.1234 H   0  0  0  0  0  0  0  0  0  0  0  0
    0.4338   -6.2775    4.4395 H   0  0  0  0  0  0  0  0  0  0  0  0
   -0.5161   -4.9489    5.1258 H   0  0  0  0  0  0  0  0  0  0  0  0
    4.9903   -4.7118    2.3408 H   0  0  0  0  0  0  0  0  0  0  0  0
  1  2  1  0
  1 28  1  0
  1 29  1  0
  1 30  1  0
  2  3  2  0
  2  4  1  0
  4  5  1  0
  5 27  1  0
  5  6  1  0
  5 31  1  1
  6  7  1  0
  6 32  1  0
  6 33  1  0
  7 15  1  0
  7  8  1  6
  7  9  1  0
  8 34  1  0
  8 35  1  0
  8 36  1  0
  9 10  1  0
  9 11  1  0
  9 12  1  0
 10 37  1  0
 10 38  1  0
 10 39  1  0
 11 40  1  0
 11 41  1  0
 11 42  1  0
 12 13  1  0
 13 14  2  0
 13 15  1  0
 15 16  1  1
 15 17  1  0
 16 43  1  0
 17 27  1  0
 17 18  2  0
 18 19  1  0
 18 20  1  0
 19 44  1  0
 19 45  1  0
 19 46  1  0
 20 21  2  0
 20 22  1  0
 22 23  1  0
 22 27  1  0
 22 47  1  1
 23 24  1  0
 24 25  1  0
 24 26  2  0
 25 48  1  0
 25 49  1  0
 25 50  1  0
 27 51  1  6
M  END
>  <i_m_ct_stereo_status>  (48) 
1

>  <s_m_source_file>  (48) 
/var/tmp/pbs.5076255.sched01/tmpm7cr0ro2/0ctwvxj2z.sdf

>  <i_m_source_file_index>  (48) 
16

>  <i_lp_mmshare_version>  (48) 
48012

>  <i_f3d_flags>  (48) 
0

>  <s_epik_input>  (48) 
W0NIM11DKD1PKU9bQ0BIXShbQ0gyXTEpW0NASF0oW0NAQEhdKEMoPU8pQzJbQ0gzXSlPQyg9TylbQ0gzXSlDPTJbQ0BAXShbT0hdKShbQ0BAXTEzW0NIM10pQyg9TylPQzMoW0NIM10pW0NIM10=

>  <s_epik_cmdline>  (48) 
J2VwaWtfcHl0aG9uJywgJy1waHQnLCAnMi4wJywgJy1waCcsICc3LjAnLCAnLXRuJywgJzgnLCAnLW1hJywgJzIwMCcsICctaW1hZScsICc8aW5maWxlLm1hZT4nLCAnLW9tYWUnLCAnPG91dGZpbGUubWFlPic=

>  <r_lp_tautomer_probability>  (48) 
0.499977

>  <r_epik_Ionization_Penalty>  (48) 
1.15276e-05

>  <r_epik_Ionization_Penalty_Charging>  (48) 
0

>  <r_epik_Ionization_Penalty_Neutral>  (48) 
1.15276e-05

>  <r_epik_State_Penalty>  (48) 
0.41068

>  <r_epik_Charging_Adjusted_Penalty>  (48) 
0.41068

>  <i_epik_Tot_Q>  (48) 
0

>  <i_epik_Tot_abs_Q>  (48) 
0

>  <s_epik_Chemistry_Notes>  (48) 
This compound has an ester and may undergo hydrolysis at high or low pH.

>  <s_lp_Force_Field>  (48) 
OPLS3e

>  <r_lp_Energy>  (48) 
28.3098

>  <b_lp_Chiralities_Consistent>  (48) 
1

>  <s_lp_Variant>  (48) 
9:0-1

>  <s_i_glide_gridfile>  (48) 
pfpi4k_grid

>  <i_i_glide_lignum>  (48) 
16

>  <i_i_glide_rotatable_bonds>  (48) 
5

>  <r_i_docking_score>  (48) 
-2.90932

>  <r_i_glide_ligand_efficiency>  (48) 
-0.107753

>  <r_i_glide_ligand_efficiency_sa>  (48) 
-0.323258

>  <r_i_glide_ligand_efficiency_ln>  (48) 
-0.677243

>  <r_i_glide_gscore>  (48) 
-2.90932

>  <r_i_glide_lipo>  (48) 
-0.266257

>  <r_i_glide_hbond>  (48) 
-0.16

>  <r_i_glide_metal>  (48) 
-0

>  <r_i_glide_rewards>  (48) 
-0.821111

>  <r_i_glide_evdw>  (48) 
-29.6754

>  <r_i_glide_ecoul>  (48) 
-2.7351

>  <r_i_glide_erotb>  (48) 
0.268148

>  <r_i_glide_esite>  (48) 
-0.0360721

>  <r_i_glide_emodel>  (48) 
-35.5967

>  <r_i_glide_energy>  (48) 
-32.4104

>  <r_i_glide_einternal>  (48) 
5.0026

>  <r_i_glide_intrahb_reward>  (48) 
-0

>  <i_i_glide_confnum>  (48) 
3

>  <i_i_glide_posenum>  (48) 
29

>  <r_i_glide_eff_state_penalty>  (48) 
0

>  <ligand_id>  (48) 
9

>  <original_smiles>  (48) 
CC(=O)OC1CC2(C)C(C)(C)OC(=O)C2(O)C2=C(C)C(=O)C(OC(C)=O)C21

>  <smiles>  (48) 
[H]OC12C(=O)OC(C([H])([H])[H])(C([H])([H])[H])C1(C([H])([H])[H])C([H])([H])C([H])(OC(=O)C([H])([H])[H])C1([H])C2=C(C([H])([H])[H])C(=O)C1([H])OC(=O)C([H])([H])[H]

$$$$
9:1:0
     RDKit          3D

 51 53  0  0  1  0  0  0  0  0999 V2000
    9.3801   -5.8627    2.2405 C   0  0  0  0  0  0  0  0  0  0  0  0
    8.3730   -5.1178    1.3605 C   0  0  0  0  0  0  0  0  0  0  0  0
    8.6352   -4.7570    0.2297 O   0  0  0  0  0  0  0  0  0  0  0  0
    7.2035   -4.9911    2.0052 O   0  0  0  0  0  0  0  0  0  0  0  0
    6.0364   -4.4695    1.4292 C   0  0  2  0  0  0  0  0  0  0  0  0
    6.2213   -2.9820    0.9814 C   0  0  0  0  0  0  0  0  0  0  0  0
    4.9433   -2.2059    0.4612 C   0  0  1  0  0  0  0  0  0  0  0  0
    5.2690   -0.7140    0.7393 C   0  0  0  0  0  0  0  0  0  0  0  0
    4.6257   -2.4908   -1.0553 C   0  0  0  0  0  0  0  0  0  0  0  0
    3.8838   -1.3328   -1.7702 C   0  0  0  0  0  0  0  0  0  0  0  0
    5.8136   -2.9152   -1.9465 C   0  0  0  0  0  0  0  0  0  0  0  0
    3.7044   -3.5671   -0.9903 O   0  0  0  0  0  0  0  0  0  0  0  0
    3.0886   -3.7321    0.1775 C   0  0  0  0  0  0  0  0  0  0  0  0
    2.2979   -4.6401    0.4382 O   0  0  0  0  0  0  0  0  0  0  0  0
    3.6462   -2.7071    1.1883 C   0  0  2  0  0  0  0  0  0  0  0  0
    2.6897   -1.6705    1.3473 O   0  0  0  0  0  0  0  0  0  0  0  0
    3.9919   -3.3027    2.5912 C   0  0  1  0  0  0  0  0  0  0  0  0
    2.9000   -3.7756    3.6126 C   0  0  1  0  0  0  0  0  0  0  0  0
    1.4113   -3.4745    3.3773 C   0  0  0  0  0  0  0  0  0  0  0  0
    3.1684   -5.2716    3.7922 C   0  0  0  0  0  0  0  0  0  0  0  0
    2.4361   -6.0270    4.4016 O   0  0  0  0  0  0  0  0  0  0  0  0
    4.4124   -5.5975    3.0910 C   0  0  0  0  0  0  0  0  0  0  0  0
    4.8588   -6.8995    3.0442 O   0  0  0  0  0  0  0  0  0  0  0  0
    6.0204   -7.2238    3.6689 C   0  0  0  0  0  0  0  0  0  0  0  0
    6.3654   -8.7006    3.4731 C   0  0  0  0  0  0  0  0  0  0  0  0
    6.7530   -6.4621    4.3114 O   0  0  0  0  0  0  0  0  0  0  0  0
    4.8761   -4.5468    2.4150 C   0  0  0  0  0  0  0  0  0  0  0  0
    9.0311   -6.8853    2.3670 H   0  0  0  0  0  0  0  0  0  0  0  0
    9.4481   -5.4149    3.2173 H   0  0  0  0  0  0  0  0  0  0  0  0
   10.3485   -5.9010    1.7601 H   0  0  0  0  0  0  0  0  0  0  0  0
    5.7559   -5.0638    0.5450 H   0  0  0  0  0  0  0  0  0  0  0  0
    6.5769   -2.4650    1.8675 H   0  0  0  0  0  0  0  0  0  0  0  0
    7.0206   -2.8689    0.2615 H   0  0  0  0  0  0  0  0  0  0  0  0
    4.4654   -0.0195    0.4562 H   0  0  0  0  0  0  0  0  0  0  0  0
    6.1677   -0.4115    0.1950 H   0  0  0  0  0  0  0  0  0  0  0  0
    5.4628   -0.5424    1.8057 H   0  0  0  0  0  0  0  0  0  0  0  0
    4.5241   -0.4595   -1.9312 H   0  0  0  0  0  0  0  0  0  0  0  0
    3.0150   -1.0182   -1.1850 H   0  0  0  0  0  0  0  0  0  0  0  0
    3.5116   -1.6576   -2.7493 H   0  0  0  0  0  0  0  0  0  0  0  0
    6.6081   -2.1682   -1.9715 H   0  0  0  0  0  0  0  0  0  0  0  0
    5.4856   -3.0699   -2.9771 H   0  0  0  0  0  0  0  0  0  0  0  0
    6.2464   -3.8591   -1.6183 H   0  0  0  0  0  0  0  0  0  0  0  0
    2.3622   -1.4082    0.4886 H   0  0  0  0  0  0  0  0  0  0  0  0
    0.7965   -3.8382    4.1999 H   0  0  0  0  0  0  0  0  0  0  0  0
    1.0303   -3.9444    2.4678 H   0  0  0  0  0  0  0  0  0  0  0  0
    1.2009   -2.4094    3.3161 H   0  0  0  0  0  0  0  0  0  0  0  0
    3.1390   -3.3401    4.5788 H   0  0  0  0  0  0  0  0  0  0  0  0
    5.6705   -9.3168    4.0598 H   0  0  0  0  0  0  0  0  0  0  0  0
    7.3844   -8.9218    3.7930 H   0  0  0  0  0  0  0  0  0  0  0  0
    6.2630   -9.0053    2.4183 H   0  0  0  0  0  0  0  0  0  0  0  0
    4.5827   -2.5673    3.1265 H   0  0  0  0  0  0  0  0  0  0  0  0
  1  2  1  0
  1 28  1  0
  1 29  1  0
  1 30  1  0
  2  3  2  0
  2  4  1  0
  4  5  1  0
  5  6  1  0
  5 31  1  6
  5 27  1  0
  6  7  1  0
  6 32  1  0
  6 33  1  0
  7 15  1  0
  7  8  1  6
  7  9  1  0
  8 34  1  0
  8 35  1  0
  8 36  1  0
  9 10  1  0
  9 11  1  0
  9 12  1  0
 10 37  1  0
 10 38  1  0
 10 39  1  0
 11 40  1  0
 11 41  1  0
 11 42  1  0
 12 13  1  0
 13 14  2  0
 13 15  1  0
 15 16  1  1
 15 17  1  0
 16 43  1  0
 17 27  1  0
 17 51  1  1
 17 18  1  0
 18 19  1  0
 18 47  1  1
 18 20  1  0
 19 44  1  0
 19 45  1  0
 19 46  1  0
 20 21  2  0
 20 22  1  0
 22 27  2  0
 22 23  1  0
 23 24  1  0
 24 25  1  0
 24 26  2  0
 25 48  1  0
 25 49  1  0
 25 50  1  0
M  END
>  <i_m_ct_stereo_status>  (49) 
1

>  <s_m_source_file>  (49) 
/var/tmp/pbs.5076255.sched01/tmpm7cr0ro2/0ctwvxj2z.sdf

>  <i_m_source_file_index>  (49) 
17

>  <i_lp_mmshare_version>  (49) 
48012

>  <i_f3d_flags>  (49) 
0

>  <s_epik_input>  (49) 
W0NIM11DKD1PKU9bQ0BIXShbQ0gyXTEpW0NASF0oW0NAQEhdKEMoPU8pQzJbQ0gzXSlPQyg9TylbQ0gzXSlDPTJbQ0BAXShbT0hdKShbQ0BAXTEzW0NIM10pQyg9TylPQzMoW0NIM10pW0NIM10=

>  <s_epik_cmdline>  (49) 
J2VwaWtfcHl0aG9uJywgJy1waHQnLCAnMi4wJywgJy1waCcsICc3LjAnLCAnLXRuJywgJzgnLCAnLW1hJywgJzIwMCcsICctaW1hZScsICc8aW5maWxlLm1hZT4nLCAnLW9tYWUnLCAnPG91dGZpbGUubWFlPic=

>  <r_lp_tautomer_probability>  (49) 
0.499977

>  <r_epik_Ionization_Penalty>  (49) 
1.11356e-05

>  <r_epik_Ionization_Penalty_Charging>  (49) 
0

>  <r_epik_Ionization_Penalty_Neutral>  (49) 
1.11356e-05

>  <r_epik_State_Penalty>  (49) 
0.41068

>  <r_epik_Charging_Adjusted_Penalty>  (49) 
0.41068

>  <i_epik_Tot_Q>  (49) 
0

>  <i_epik_Tot_abs_Q>  (49) 
0

>  <s_epik_Chemistry_Notes>  (49) 
This compound has an ester and may undergo hydrolysis at high or low pH.

>  <s_lp_Force_Field>  (49) 
OPLS3e

>  <r_lp_Energy>  (49) 
29.8411

>  <b_lp_Chiralities_Consistent>  (49) 
1

>  <s_lp_Variant>  (49) 
9:0-2

>  <s_i_glide_gridfile>  (49) 
pfpi4k_grid

>  <i_i_glide_lignum>  (49) 
17

>  <i_i_glide_rotatable_bonds>  (49) 
5

>  <r_i_docking_score>  (49) 
-2.66813

>  <r_i_glide_ligand_efficiency>  (49) 
-0.0988197

>  <r_i_glide_ligand_efficiency_sa>  (49) 
-0.296459

>  <r_i_glide_ligand_efficiency_ln>  (49) 
-0.621097

>  <r_i_glide_gscore>  (49) 
-2.66813

>  <r_i_glide_lipo>  (49) 
-0.452766

>  <r_i_glide_hbond>  (49) 
-0.00614738

>  <r_i_glide_metal>  (49) 
-0

>  <r_i_glide_rewards>  (49) 
-0.874245

>  <r_i_glide_evdw>  (49) 
-23.6951

>  <r_i_glide_ecoul>  (49) 
-2.71478

>  <r_i_glide_erotb>  (49) 
0.268148

>  <r_i_glide_esite>  (49) 
-0.0111494

>  <r_i_glide_emodel>  (49) 
-27.3186

>  <r_i_glide_energy>  (49) 
-26.4099

>  <r_i_glide_einternal>  (49) 
5.24034

>  <r_i_glide_intrahb_reward>  (49) 
-0

>  <i_i_glide_confnum>  (49) 
2

>  <i_i_glide_posenum>  (49) 
2

>  <r_i_glide_eff_state_penalty>  (49) 
0

>  <ligand_id>  (49) 
9

>  <original_smiles>  (49) 
CC(=O)OC1CC2(C)C(C)(C)OC(=O)C2(O)C2=C(C)C(=O)C(OC(C)=O)C21

>  <smiles>  (49) 
[H]OC12C(=O)OC(C([H])([H])[H])(C([H])([H])[H])C1(C([H])([H])[H])C([H])([H])C([H])(OC(=O)C([H])([H])[H])C1=C(OC(=O)C([H])([H])[H])C(=O)C([H])(C([H])([H])[H])C12[H]

$$$$
10:0:0
     RDKit          3D

 77 82  0  0  1  0  0  0  0  0999 V2000
    4.8262   -7.5038    5.4365 C   0  0  0  0  0  0  0  0  0  0  0  0
    3.6678   -7.0832    4.9043 C   0  0  0  0  0  0  0  0  0  0  0  0
    3.4693   -7.2985    3.4470 C   0  0  0  0  0  0  0  0  0  0  0  0
    3.9735   -8.2905    2.9174 O   0  0  0  0  0  0  0  0  0  0  0  0
    2.5916   -6.3660    2.5644 C   0  0  2  0  0  0  0  0  0  0  0  0
    3.0978   -6.4614    1.0721 C   0  0  1  0  0  0  0  0  0  0  0  0
    2.2652   -5.8179    0.1052 O   0  0  0  0  0  0  0  0  0  0  0  0
    4.5595   -6.0324    0.8610 C   0  0  0  0  0  0  0  0  0  0  0  0
    5.0201   -4.6508    1.4161 C   0  0  1  0  0  0  0  0  0  0  0  0
    6.5228   -4.9419    1.7249 C   0  0  0  0  0  0  0  0  0  0  0  0
    5.0245   -3.5310    0.3299 C   0  0  1  0  0  0  0  0  0  0  0  0
    3.9186   -3.7321   -0.5348 O   0  0  0  0  0  0  0  0  0  0  0  0
    3.6016   -2.7223   -1.4358 C   0  0  0  0  0  0  0  0  0  0  0  0
    4.6981   -2.5914   -2.5106 C   0  0  0  0  0  0  0  0  0  0  0  0
    2.2533   -3.1071   -2.0700 C   0  0  0  0  0  0  0  0  0  0  0  0
    3.3985   -1.5048   -0.8064 O   0  0  0  0  0  0  0  0  0  0  0  0
    4.3930   -1.0658    0.0811 C   0  0  0  0  0  0  0  0  0  0  0  0
    4.8740   -2.1757    1.0502 C   0  0  2  0  0  0  0  0  0  0  0  0
    6.2148   -1.6061    1.5640 C   0  0  0  0  0  0  0  0  0  0  0  0
    3.9529   -2.5318    2.2521 C   0  0  1  0  0  0  0  0  0  0  0  0
    2.6094   -2.1685    1.9658 O   0  0  0  0  0  0  0  0  0  0  0  0
    4.1609   -4.0704    2.6372 C   0  0  2  0  0  0  0  0  0  0  0  0
    5.0032   -4.0460    3.9384 C   0  0  0  0  0  0  0  0  0  0  0  0
    2.7607   -4.8260    2.9299 C   0  0  2  0  0  0  0  0  0  0  0  0
    2.0495   -4.3658    4.2453 C   0  0  0  0  0  0  0  0  0  0  0  0
    2.4643   -4.9467    5.6260 C   0  0  0  0  0  0  0  0  0  0  0  0
    2.5698   -6.4714    5.7729 C   0  0  1  0  0  0  0  0  0  0  0  0
    1.2071   -7.1877    5.8552 C   0  0  2  0  0  0  0  0  0  0  0  0
    1.1876   -8.7071    5.7202 C   0  0  0  0  0  0  0  0  0  0  0  0
    0.8744   -8.9470    4.2535 C   0  0  0  0  0  0  0  0  0  0  0  0
    0.3204   -7.5984    3.7459 C   0  0  1  0  0  0  0  0  0  0  0  0
   -1.1938   -7.7994    3.4704 C   0  0  0  0  0  0  0  0  0  0  0  0
    0.3489   -6.7156    4.8474 O   0  0  0  0  0  0  0  0  0  0  0  0
    1.0941   -6.9600    2.5307 C   0  0  1  0  0  0  0  0  0  0  0  0
    0.2203   -5.9654    2.0554 O   0  0  0  0  0  0  0  0  0  0  0  0
    5.0380   -7.3965    6.4916 H   0  0  0  0  0  0  0  0  0  0  0  0
    5.6075   -7.9514    4.8356 H   0  0  0  0  0  0  0  0  0  0  0  0
    3.0682   -7.5116    0.7900 H   0  0  0  0  0  0  0  0  0  0  0  0
    2.6629   -5.8617   -0.7601 H   0  0  0  0  0  0  0  0  0  0  0  0
    5.1840   -6.8237    1.2778 H   0  0  0  0  0  0  0  0  0  0  0  0
    4.7869   -6.0929   -0.2042 H   0  0  0  0  0  0  0  0  0  0  0  0
    7.1033   -4.0650    1.9844 H   0  0  0  0  0  0  0  0  0  0  0  0
    7.0219   -5.3685    0.8500 H   0  0  0  0  0  0  0  0  0  0  0  0
    6.6384   -5.6672    2.5335 H   0  0  0  0  0  0  0  0  0  0  0  0
    5.9307   -3.5679   -0.2736 H   0  0  0  0  0  0  0  0  0  0  0  0
    5.6391   -2.2502   -2.0804 H   0  0  0  0  0  0  0  0  0  0  0  0
    4.3804   -1.8675   -3.2595 H   0  0  0  0  0  0  0  0  0  0  0  0
    4.8613   -3.5589   -2.9883 H   0  0  0  0  0  0  0  0  0  0  0  0
    1.4966   -3.2081   -1.2901 H   0  0  0  0  0  0  0  0  0  0  0  0
    2.3227   -4.0574   -2.5889 H   0  0  0  0  0  0  0  0  0  0  0  0
    1.9280   -2.3482   -2.7823 H   0  0  0  0  0  0  0  0  0  0  0  0
    5.2185   -0.6704   -0.5107 H   0  0  0  0  0  0  0  0  0  0  0  0
    4.0046   -0.2116    0.6368 H   0  0  0  0  0  0  0  0  0  0  0  0
    6.1248   -0.5460    1.8224 H   0  0  0  0  0  0  0  0  0  0  0  0
    6.9998   -1.6872    0.8040 H   0  0  0  0  0  0  0  0  0  0  0  0
    6.5704   -2.0898    2.4680 H   0  0  0  0  0  0  0  0  0  0  0  0
    4.2101   -1.8807    3.0907 H   0  0  0  0  0  0  0  0  0  0  0  0
    2.6002   -1.3558    1.4864 H   0  0  0  0  0  0  0  0  0  0  0  0
    4.5455   -3.4125    4.6937 H   0  0  0  0  0  0  0  0  0  0  0  0
    5.9705   -3.5912    3.8065 H   0  0  0  0  0  0  0  0  0  0  0  0
    5.1791   -5.0338    4.3508 H   0  0  0  0  0  0  0  0  0  0  0  0
    2.1131   -4.4070    2.1698 H   0  0  0  0  0  0  0  0  0  0  0  0
    2.1411   -3.2819    4.3211 H   0  0  0  0  0  0  0  0  0  0  0  0
    0.9793   -4.5125    4.1266 H   0  0  0  0  0  0  0  0  0  0  0  0
    3.3944   -4.5183    5.9869 H   0  0  0  0  0  0  0  0  0  0  0  0
    1.7305   -4.5959    6.3516 H   0  0  0  0  0  0  0  0  0  0  0  0
    2.9533   -6.6092    6.7853 H   0  0  0  0  0  0  0  0  0  0  0  0
    0.7528   -6.9102    6.8061 H   0  0  0  0  0  0  0  0  0  0  0  0
    2.1051   -9.1894    6.0503 H   0  0  0  0  0  0  0  0  0  0  0  0
    0.3745   -9.1142    6.3212 H   0  0  0  0  0  0  0  0  0  0  0  0
    1.7488   -9.2839    3.7024 H   0  0  0  0  0  0  0  0  0  0  0  0
    0.1517   -9.7598    4.1540 H   0  0  0  0  0  0  0  0  0  0  0  0
   -1.3598   -8.4122    2.5846 H   0  0  0  0  0  0  0  0  0  0  0  0
   -1.7249   -6.8580    3.3328 H   0  0  0  0  0  0  0  0  0  0  0  0
   -1.6814   -8.2967    4.3119 H   0  0  0  0  0  0  0  0  0  0  0  0
    1.0713   -7.7421    1.7706 H   0  0  0  0  0  0  0  0  0  0  0  0
    0.4271   -5.1986    2.5683 H   0  0  0  0  0  0  0  0  0  0  0  0
  1  2  2  0
  1 36  1  0
  1 37  1  0
  2 27  1  0
  2  3  1  0
  3  4  2  0
  5  3  1  1
  5 24  1  0
  5 34  1  0
  5  6  1  0
  6  7  1  0
  6  8  1  0
  6 38  1  6
  7 39  1  0
  8  9  1  0
  8 40  1  0
  8 41  1  0
  9 22  1  0
  9 10  1  1
  9 11  1  0
 10 42  1  0
 10 43  1  0
 10 44  1  0
 11 18  1  0
 11 12  1  0
 11 45  1  6
 12 13  1  0
 13 14  1  0
 13 15  1  0
 13 16  1  0
 14 46  1  0
 14 47  1  0
 14 48  1  0
 15 49  1  0
 15 50  1  0
 15 51  1  0
 16 17  1  0
 17 18  1  0
 17 52  1  0
 17 53  1  0
 18 19  1  1
 18 20  1  0
 19 54  1  0
 19 55  1  0
 19 56  1  0
 20 21  1  0
 20 22  1  0
 20 57  1  1
 21 58  1  0
 22 23  1  1
 22 24  1  0
 23 59  1  0
 23 60  1  0
 23 61  1  0
 24 25  1  0
 24 62  1  6
 25 26  1  0
 25 63  1  0
 25 64  1  0
 26 27  1  0
 26 65  1  0
 26 66  1  0
 27 28  1  0
 27 67  1  1
 28 33  1  0
 28 29  1  0
 28 68  1  1
 29 30  1  0
 29 69  1  0
 29 70  1  0
 30 31  1  0
 30 71  1  0
 30 72  1  0
 31 32  1  6
 31 33  1  0
 31 34  1  0
 32 73  1  0
 32 74  1  0
 32 75  1  0
 34 35  1  0
 34 76  1  6
 35 77  1  0
M  END
>  <i_m_ct_stereo_status>  (50) 
1

>  <s_m_source_file>  (50) 
/var/tmp/pbs.5076255.sched01/tmpm7cr0ro2/0ctwvxj2z.sdf

>  <i_m_source_file_index>  (50) 
18

>  <i_lp_mmshare_version>  (50) 
48012

>  <i_f3d_flags>  (50) 
0

>  <s_epik_input>  (50) 
W09IXVtDQEBIXTFbQ0BAXShPMikoW0NIM10pW0NIMl1bQ0gyXVtDQEhdMltDQEBIXShDKD1bQ0gyXSlDMz1PKVtDSDJdW0NIMl1bQ0BIXShbQ0BdMTM0KVtDQEBdNShbQ0gzXSlbQ0BAXShbQ0gzXSkoW0NIMl1bQ0BASF00W09IXSlbQ0BASF02W0NAXShbQ0gzXSkoW0NASF01W09IXSlbQ0gyXU9DKE82KShbQ0gzXSlbQ0gzXQ==

>  <s_epik_cmdline>  (50) 
J2VwaWtfcHl0aG9uJywgJy1waHQnLCAnMi4wJywgJy1waCcsICc3LjAnLCAnLXRuJywgJzgnLCAnLW1hJywgJzIwMCcsICctaW1hZScsICc8aW5maWxlLm1hZT4nLCAnLW9tYWUnLCAnPG91dGZpbGUubWFlPic=

>  <r_lp_tautomer_probability>  (50) 
1

>  <r_epik_Ionization_Penalty>  (50) 
3.51535e-07

>  <r_epik_Ionization_Penalty_Charging>  (50) 
0

>  <r_epik_Ionization_Penalty_Neutral>  (50) 
3.51535e-07

>  <r_epik_State_Penalty>  (50) 
-0

>  <r_epik_Charging_Adjusted_Penalty>  (50) 
0

>  <i_epik_Tot_Q>  (50) 
0

>  <i_epik_Tot_abs_Q>  (50) 
0

>  <s_lp_Force_Field>  (50) 
OPLS3e

>  <r_lp_Energy>  (50) 
90.3754

>  <b_lp_Chiralities_Consistent>  (50) 
1

>  <s_lp_Variant>  (50) 
10:0-1

>  <s_i_glide_gridfile>  (50) 
pfpi4k_grid

>  <i_i_glide_lignum>  (50) 
18

>  <i_i_glide_rotatable_bonds>  (50) 
3

>  <r_i_docking_score>  (50) 
-3.14661

>  <r_i_glide_ligand_efficiency>  (50) 
-0.089903

>  <r_i_glide_ligand_efficiency_sa>  (50) 
-0.294079

>  <r_i_glide_ligand_efficiency_ln>  (50) 
-0.69075

>  <r_i_glide_gscore>  (50) 
-3.14661

>  <r_i_glide_lipo>  (50) 
-0.659677

>  <r_i_glide_hbond>  (50) 
0

>  <r_i_glide_metal>  (50) 
-0

>  <r_i_glide_rewards>  (50) 
-0.063894

>  <r_i_glide_evdw>  (50) 
-26.5997

>  <r_i_glide_ecoul>  (50) 
-7.11456

>  <r_i_glide_erotb>  (50) 
0

>  <r_i_glide_esite>  (50) 
-0.0258646

>  <r_i_glide_emodel>  (50) 
-39.746

>  <r_i_glide_energy>  (50) 
-33.7143

>  <r_i_glide_einternal>  (50) 
1.11834

>  <r_i_glide_intrahb_reward>  (50) 
-0

>  <i_i_glide_confnum>  (50) 
1

>  <i_i_glide_posenum>  (50) 
32

>  <r_i_glide_eff_state_penalty>  (50) 
0

>  <ligand_id>  (50) 
10

>  <original_smiles>  (50) 
C=C1C(=O)C23C(O)CC4(C)C5OC(C)(C)OCC5(C)C(O)C4(C)C2CCC1C1CCC(C)(O1)C3O

>  <smiles>  (50) 
[H]OC1([H])C([H])([H])C2(C([H])([H])[H])C3([H])OC(C([H])([H])[H])(C([H])([H])[H])OC([H])([H])C3(C([H])([H])[H])C([H])(O[H])C2(C([H])([H])[H])C2([H])C([H])([H])C([H])([H])C3([H])C(=C([H])[H])C(=O)C12C([H])(O[H])C1(C([H])([H])[H])OC3([H])C([H])([H])C1([H])[H]

$$$$
10:0:1
     RDKit          3D

 77 82  0  0  1  0  0  0  0  0999 V2000
    5.7770   -1.2913    2.8712 C   0  0  0  0  0  0  0  0  0  0  0  0
    5.2686   -2.1971    2.0060 C   0  0  0  0  0  0  0  0  0  0  0  0
    3.8540   -2.5964    2.2097 C   0  0  0  0  0  0  0  0  0  0  0  0
    3.0686   -1.7866    2.6941 O   0  0  0  0  0  0  0  0  0  0  0  0
    3.2912   -3.9667    1.7353 C   0  0  2  0  0  0  0  0  0  0  0  0
    2.0176   -4.2992    2.6047 C   0  0  1  0  0  0  0  0  0  0  0  0
    1.2762   -5.4507    2.2031 O   0  0  0  0  0  0  0  0  0  0  0  0
    2.2671   -4.3944    4.1137 C   0  0  0  0  0  0  0  0  0  0  0  0
    3.3981   -5.3481    4.5974 C   0  0  1  0  0  0  0  0  0  0  0  0
    3.8453   -4.6285    5.9080 C   0  0  0  0  0  0  0  0  0  0  0  0
    2.8732   -6.7491    5.0283 C   0  0  1  0  0  0  0  0  0  0  0  0
    1.8213   -7.1268    4.1470 O   0  0  0  0  0  0  0  0  0  0  0  0
    1.3490   -8.4349    4.2140 C   0  0  0  0  0  0  0  0  0  0  0  0
    0.6585   -8.6946    5.5739 C   0  0  0  0  0  0  0  0  0  0  0  0
    0.3516   -8.5921    3.0643 C   0  0  0  0  0  0  0  0  0  0  0  0
    2.3683   -9.3473    3.9606 O   0  0  0  0  0  0  0  0  0  0  0  0
    3.5106   -9.2098    4.7888 C   0  0  0  0  0  0  0  0  0  0  0  0
    4.0339   -7.7505    4.8835 C   0  0  2  0  0  0  0  0  0  0  0  0
    4.9711   -7.7704    6.1175 C   0  0  0  0  0  0  0  0  0  0  0  0
    4.7904   -7.2128    3.6404 C   0  0  1  0  0  0  0  0  0  0  0  0
    4.4476   -7.9451    2.4821 O   0  0  0  0  0  0  0  0  0  0  0  0
    4.5554   -5.6456    3.5350 C   0  0  2  0  0  0  0  0  0  0  0  0
    5.8740   -5.0161    4.0168 C   0  0  0  0  0  0  0  0  0  0  0  0
    4.2694   -5.1736    2.0145 C   0  0  2  0  0  0  0  0  0  0  0  0
    5.4869   -5.2784    1.0474 C   0  0  0  0  0  0  0  0  0  0  0  0
    6.5663   -4.1661    0.9996 C   0  0  0  0  0  0  0  0  0  0  0  0
    6.1063   -2.7104    0.8423 C   0  0  1  0  0  0  0  0  0  0  0  0
    5.6666   -2.3509   -0.5836 C   0  0  2  0  0  0  0  0  0  0  0  0
    4.9330   -1.0319   -0.7557 C   0  0  0  0  0  0  0  0  0  0  0  0
    3.4752   -1.4166   -0.6869 C   0  0  0  0  0  0  0  0  0  0  0  0
    3.4461   -2.9394   -0.9155 C   0  0  1  0  0  0  0  0  0  0  0  0
    2.7889   -3.1151   -2.3030 C   0  0  0  0  0  0  0  0  0  0  0  0
    4.7958   -3.3309   -1.0970 O   0  0  0  0  0  0  0  0  0  0  0  0
    2.7602   -3.7876    0.2281 C   0  0  1  0  0  0  0  0  0  0  0  0
    2.3989   -5.0510   -0.3136 O   0  0  0  0  0  0  0  0  0  0  0  0
    6.7789   -0.9094    2.7514 H   0  0  0  0  0  0  0  0  0  0  0  0
    5.2263   -0.9455    3.7271 H   0  0  0  0  0  0  0  0  0  0  0  0
    1.3057   -3.4832    2.4812 H   0  0  0  0  0  0  0  0  0  0  0  0
    1.7811   -6.2344    2.4005 H   0  0  0  0  0  0  0  0  0  0  0  0
    2.4367   -3.3787    4.4921 H   0  0  0  0  0  0  0  0  0  0  0  0
    1.3290   -4.6733    4.5838 H   0  0  0  0  0  0  0  0  0  0  0  0
    4.5433   -5.1941    6.5140 H   0  0  0  0  0  0  0  0  0  0  0  0
    2.9842   -4.4414    6.5531 H   0  0  0  0  0  0  0  0  0  0  0  0
    4.2980   -3.6581    5.6974 H   0  0  0  0  0  0  0  0  0  0  0  0
    2.4794   -6.7253    6.0435 H   0  0  0  0  0  0  0  0  0  0  0  0
    1.3508   -8.6330    6.4117 H   0  0  0  0  0  0  0  0  0  0  0  0
    0.2049   -9.6846    5.5792 H   0  0  0  0  0  0  0  0  0  0  0  0
   -0.1265   -7.9554    5.7313 H   0  0  0  0  0  0  0  0  0  0  0  0
    0.8516   -8.4176    2.1066 H   0  0  0  0  0  0  0  0  0  0  0  0
   -0.4624   -7.8736    3.1735 H   0  0  0  0  0  0  0  0  0  0  0  0
   -0.0621   -9.6031    3.0622 H   0  0  0  0  0  0  0  0  0  0  0  0
    3.2641   -9.5902    5.7790 H   0  0  0  0  0  0  0  0  0  0  0  0
    4.2898   -9.8761    4.4153 H   0  0  0  0  0  0  0  0  0  0  0  0
    5.6089   -8.6599    6.1023 H   0  0  0  0  0  0  0  0  0  0  0  0
    4.4035   -7.7934    7.0535 H   0  0  0  0  0  0  0  0  0  0  0  0
    5.6603   -6.9313    6.1636 H   0  0  0  0  0  0  0  0  0  0  0  0
    5.8525   -7.4336    3.7558 H   0  0  0  0  0  0  0  0  0  0  0  0
    3.5080   -7.8793    2.3699 H   0  0  0  0  0  0  0  0  0  0  0  0
    6.7130   -5.4182    3.4563 H   0  0  0  0  0  0  0  0  0  0  0  0
    6.1343   -5.2404    5.0465 H   0  0  0  0  0  0  0  0  0  0  0  0
    5.8369   -3.9345    3.9245 H   0  0  0  0  0  0  0  0  0  0  0  0
    3.6345   -5.9571    1.6247 H   0  0  0  0  0  0  0  0  0  0  0  0
    6.0049   -6.2123    1.2564 H   0  0  0  0  0  0  0  0  0  0  0  0
    5.1016   -5.4259    0.0405 H   0  0  0  0  0  0  0  0  0  0  0  0
    7.2349   -4.2176    1.8540 H   0  0  0  0  0  0  0  0  0  0  0  0
    7.2157   -4.3923    0.1548 H   0  0  0  0  0  0  0  0  0  0  0  0
    7.0274   -2.1403    0.9268 H   0  0  0  0  0  0  0  0  0  0  0  0
    6.5455   -2.3634   -1.2219 H   0  0  0  0  0  0  0  0  0  0  0  0
    5.1968   -0.2719   -0.0202 H   0  0  0  0  0  0  0  0  0  0  0  0
    5.1334   -0.6269   -1.7482 H   0  0  0  0  0  0  0  0  0  0  0  0
    2.9974   -1.0909    0.2357 H   0  0  0  0  0  0  0  0  0  0  0  0
    2.9491   -0.8772   -1.4764 H   0  0  0  0  0  0  0  0  0  0  0  0
    1.7157   -2.9161   -2.2918 H   0  0  0  0  0  0  0  0  0  0  0  0
    2.9248   -4.1202   -2.6638 H   0  0  0  0  0  0  0  0  0  0  0  0
    3.2523   -2.4795   -3.0620 H   0  0  0  0  0  0  0  0  0  0  0  0
    1.8243   -3.2407    0.3256 H   0  0  0  0  0  0  0  0  0  0  0  0
    2.8607   -5.1792   -1.1355 H   0  0  0  0  0  0  0  0  0  0  0  0
  1  2  2  0
  1 36  1  0
  1 37  1  0
  2 27  1  0
  2  3  1  0
  3  4  2  0
  5  3  1  1
  5 24  1  0
  5 34  1  0
  5  6  1  0
  6  7  1  0
  6  8  1  0
  6 38  1  1
  7 39  1  0
  8  9  1  0
  8 40  1  0
  8 41  1  0
  9 22  1  0
  9 10  1  1
  9 11  1  0
 10 42  1  0
 10 43  1  0
 10 44  1  0
 11 18  1  0
 11 12  1  0
 11 45  1  1
 12 13  1  0
 13 14  1  0
 13 15  1  0
 13 16  1  0
 14 46  1  0
 14 47  1  0
 14 48  1  0
 15 49  1  0
 15 50  1  0
 15 51  1  0
 16 17  1  0
 17 18  1  0
 17 52  1  0
 17 53  1  0
 18 19  1  1
 18 20  1  0
 19 54  1  0
 19 55  1  0
 19 56  1  0
 20 21  1  0
 20 22  1  0
 20 57  1  1
 21 58  1  0
 22 23  1  1
 22 24  1  0
 23 59  1  0
 23 60  1  0
 23 61  1  0
 24 25  1  0
 24 62  1  6
 25 26  1  0
 25 63  1  0
 25 64  1  0
 26 27  1  0
 26 65  1  0
 26 66  1  0
 27 28  1  0
 27 67  1  1
 28 33  1  0
 28 29  1  0
 28 68  1  6
 29 30  1  0
 29 69  1  0
 29 70  1  0
 30 31  1  0
 30 71  1  0
 30 72  1  0
 31 32  1  6
 31 33  1  0
 31 34  1  0
 32 73  1  0
 32 74  1  0
 32 75  1  0
 34 35  1  0
 34 76  1  1
 35 77  1  0
M  END
>  <i_m_ct_stereo_status>  (51) 
1

>  <s_m_source_file>  (51) 
/var/tmp/pbs.5076255.sched01/tmpm7cr0ro2/0ctwvxj2z.sdf

>  <i_m_source_file_index>  (51) 
18

>  <i_lp_mmshare_version>  (51) 
48012

>  <i_f3d_flags>  (51) 
0

>  <s_epik_input>  (51) 
W09IXVtDQEBIXTFbQ0BAXShPMikoW0NIM10pW0NIMl1bQ0gyXVtDQEhdMltDQEBIXShDKD1bQ0gyXSlDMz1PKVtDSDJdW0NIMl1bQ0BIXShbQ0BdMTM0KVtDQEBdNShbQ0gzXSlbQ0BAXShbQ0gzXSkoW0NIMl1bQ0BASF00W09IXSlbQ0BASF02W0NAXShbQ0gzXSkoW0NASF01W09IXSlbQ0gyXU9DKE82KShbQ0gzXSlbQ0gzXQ==

>  <s_epik_cmdline>  (51) 
J2VwaWtfcHl0aG9uJywgJy1waHQnLCAnMi4wJywgJy1waCcsICc3LjAnLCAnLXRuJywgJzgnLCAnLW1hJywgJzIwMCcsICctaW1hZScsICc8aW5maWxlLm1hZT4nLCAnLW9tYWUnLCAnPG91dGZpbGUubWFlPic=

>  <r_lp_tautomer_probability>  (51) 
1

>  <r_epik_Ionization_Penalty>  (51) 
3.51535e-07

>  <r_epik_Ionization_Penalty_Charging>  (51) 
0

>  <r_epik_Ionization_Penalty_Neutral>  (51) 
3.51535e-07

>  <r_epik_State_Penalty>  (51) 
-0

>  <r_epik_Charging_Adjusted_Penalty>  (51) 
0

>  <i_epik_Tot_Q>  (51) 
0

>  <i_epik_Tot_abs_Q>  (51) 
0

>  <s_lp_Force_Field>  (51) 
OPLS3e

>  <r_lp_Energy>  (51) 
90.3754

>  <b_lp_Chiralities_Consistent>  (51) 
1

>  <s_lp_Variant>  (51) 
10:0-1

>  <s_i_glide_gridfile>  (51) 
pfpi4k_grid

>  <i_i_glide_lignum>  (51) 
18

>  <i_i_glide_rotatable_bonds>  (51) 
3

>  <r_i_docking_score>  (51) 
-3.04843

>  <r_i_glide_ligand_efficiency>  (51) 
-0.087098

>  <r_i_glide_ligand_efficiency_sa>  (51) 
-0.284903

>  <r_i_glide_ligand_efficiency_ln>  (51) 
-0.669198

>  <r_i_glide_gscore>  (51) 
-3.04843

>  <r_i_glide_lipo>  (51) 
-0.425425

>  <r_i_glide_hbond>  (51) 
0

>  <r_i_glide_metal>  (51) 
-0

>  <r_i_glide_rewards>  (51) 
-0.563894

>  <r_i_glide_evdw>  (51) 
-20.5349

>  <r_i_glide_ecoul>  (51) 
-6.7931

>  <r_i_glide_erotb>  (51) 
0

>  <r_i_glide_esite>  (51) 
-0.013401

>  <r_i_glide_emodel>  (51) 
-37.9522

>  <r_i_glide_energy>  (51) 
-27.328

>  <r_i_glide_einternal>  (51) 
1.39579

>  <r_i_glide_intrahb_reward>  (51) 
-0.5

>  <i_i_glide_confnum>  (51) 
1

>  <i_i_glide_posenum>  (51) 
9

>  <r_i_glide_eff_state_penalty>  (51) 
0

>  <ligand_id>  (51) 
10

>  <original_smiles>  (51) 
C=C1C(=O)C23C(O)CC4(C)C5OC(C)(C)OCC5(C)C(O)C4(C)C2CCC1C1CCC(C)(O1)C3O

>  <smiles>  (51) 
[H]OC1([H])C([H])([H])C2(C([H])([H])[H])C3([H])OC(C([H])([H])[H])(C([H])([H])[H])OC([H])([H])C3(C([H])([H])[H])C([H])(O[H])C2(C([H])([H])[H])C2([H])C([H])([H])C([H])([H])C3([H])C(=C([H])[H])C(=O)C12C([H])(O[H])C1(C([H])([H])[H])OC3([H])C([H])([H])C1([H])[H]

$$$$
10:0:2
     RDKit          3D

 77 82  0  0  1  0  0  0  0  0999 V2000
    7.7176   -6.2896    4.5176 C   0  0  0  0  0  0  0  0  0  0  0  0
    7.0054   -6.2573    3.3756 C   0  0  0  0  0  0  0  0  0  0  0  0
    5.6695   -5.6061    3.4198 C   0  0  0  0  0  0  0  0  0  0  0  0
    5.4948   -4.6520    4.1843 O   0  0  0  0  0  0  0  0  0  0  0  0
    4.4845   -6.0144    2.4987 C   0  0  2  0  0  0  0  0  0  0  0  0
    3.1386   -5.6207    3.2193 C   0  0  1  0  0  0  0  0  0  0  0  0
    1.9622   -5.7481    2.4341 O   0  0  0  0  0  0  0  0  0  0  0  0
    2.9072   -6.3199    4.5674 C   0  0  0  0  0  0  0  0  0  0  0  0
    3.0513   -7.8727    4.6473 C   0  0  1  0  0  0  0  0  0  0  0  0
    3.5322   -8.0543    6.1220 C   0  0  0  0  0  0  0  0  0  0  0  0
    1.6838   -8.6110    4.5422 C   0  0  1  0  0  0  0  0  0  0  0  0
    0.8767   -7.9129    3.6042 O   0  0  0  0  0  0  0  0  0  0  0  0
   -0.3105   -8.5223    3.2146 C   0  0  0  0  0  0  0  0  0  0  0  0
   -1.2964   -8.5850    4.3955 C   0  0  0  0  0  0  0  0  0  0  0  0
   -0.8926   -7.6539    2.1055 C   0  0  0  0  0  0  0  0  0  0  0  0
   -0.1003   -9.7671    2.6452 O   0  0  0  0  0  0  0  0  0  0  0  0
    0.6649  -10.6658    3.4261 C   0  0  0  0  0  0  0  0  0  0  0  0
    1.9531  -10.0359    4.0209 C   0  0  2  0  0  0  0  0  0  0  0  0
    2.3581  -11.0227    5.1410 C   0  0  0  0  0  0  0  0  0  0  0  0
    3.1417   -9.8190    3.0535 C   0  0  1  0  0  0  0  0  0  0  0  0
    2.6857   -9.7675    1.7142 O   0  0  0  0  0  0  0  0  0  0  0  0
    3.9774   -8.5460    3.5328 C   0  0  2  0  0  0  0  0  0  0  0  0
    5.2594   -9.1415    4.1795 C   0  0  0  0  0  0  0  0  0  0  0  0
    4.3818   -7.5892    2.2975 C   0  0  2  0  0  0  0  0  0  0  0  0
    5.4471   -8.2158    1.3469 C   0  0  0  0  0  0  0  0  0  0  0  0
    6.9638   -8.1616    1.6816 C   0  0  0  0  0  0  0  0  0  0  0  0
    7.5764   -6.8084    2.0764 C   0  0  1  0  0  0  0  0  0  0  0  0
    7.7541   -5.8415    0.8881 C   0  0  2  0  0  0  0  0  0  0  0  0
    8.0936   -4.3863    1.1744 C   0  0  0  0  0  0  0  0  0  0  0  0
    6.7488   -3.6743    1.1563 C   0  0  0  0  0  0  0  0  0  0  0  0
    5.8006   -4.6385    0.4138 C   0  0  1  0  0  0  0  0  0  0  0  0
    5.5076   -4.0110   -0.9729 C   0  0  0  0  0  0  0  0  0  0  0  0
    6.5643   -5.7872    0.1467 O   0  0  0  0  0  0  0  0  0  0  0  0
    4.4991   -5.1057    1.1688 C   0  0  1  0  0  0  0  0  0  0  0  0
    3.6429   -5.6482    0.1733 O   0  0  0  0  0  0  0  0  0  0  0  0
    8.7022   -6.7289    4.5517 H   0  0  0  0  0  0  0  0  0  0  0  0
    7.3373   -5.8941    5.4486 H   0  0  0  0  0  0  0  0  0  0  0  0
    3.1516   -4.5514    3.4333 H   0  0  0  0  0  0  0  0  0  0  0  0
    1.8333   -6.6669    2.2375 H   0  0  0  0  0  0  0  0  0  0  0  0
    3.5843   -5.8494    5.2829 H   0  0  0  0  0  0  0  0  0  0  0  0
    1.9249   -6.0257    4.9396 H   0  0  0  0  0  0  0  0  0  0  0  0
    3.5563   -9.0811    6.4691 H   0  0  0  0  0  0  0  0  0  0  0  0
    2.8623   -7.5359    6.8105 H   0  0  0  0  0  0  0  0  0  0  0  0
    4.5257   -7.6311    6.2732 H   0  0  0  0  0  0  0  0  0  0  0  0
    1.1751   -8.6263    5.5054 H   0  0  0  0  0  0  0  0  0  0  0  0
   -0.9239   -9.2297    5.1861 H   0  0  0  0  0  0  0  0  0  0  0  0
   -2.2506   -8.9865    4.0558 H   0  0  0  0  0  0  0  0  0  0  0  0
   -1.4560   -7.5960    4.8166 H   0  0  0  0  0  0  0  0  0  0  0  0
   -0.1887   -7.5970    1.2722 H   0  0  0  0  0  0  0  0  0  0  0  0
   -1.0871   -6.6592    2.5019 H   0  0  0  0  0  0  0  0  0  0  0  0
   -1.8259   -8.1008    1.7524 H   0  0  0  0  0  0  0  0  0  0  0  0
    0.0236  -11.0440    4.2223 H   0  0  0  0  0  0  0  0  0  0  0  0
    0.9017  -11.5405    2.8208 H   0  0  0  0  0  0  0  0  0  0  0  0
    2.2622  -12.0571    4.8060 H   0  0  0  0  0  0  0  0  0  0  0  0
    1.7114  -10.9030    6.0110 H   0  0  0  0  0  0  0  0  0  0  0  0
    3.3843  -10.9252    5.4762 H   0  0  0  0  0  0  0  0  0  0  0  0
    3.7596  -10.7174    3.0560 H   0  0  0  0  0  0  0  0  0  0  0  0
    3.0133  -10.5357    1.2634 H   0  0  0  0  0  0  0  0  0  0  0  0
    5.7532   -9.8306    3.5004 H   0  0  0  0  0  0  0  0  0  0  0  0
    5.0717   -9.7582    5.0511 H   0  0  0  0  0  0  0  0  0  0  0  0
    5.9638   -8.3799    4.4927 H   0  0  0  0  0  0  0  0  0  0  0  0
    3.4969   -7.6084    1.6711 H   0  0  0  0  0  0  0  0  0  0  0  0
    5.1999   -9.2632    1.1803 H   0  0  0  0  0  0  0  0  0  0  0  0
    5.2812   -7.7728    0.3704 H   0  0  0  0  0  0  0  0  0  0  0  0
    7.2441   -8.8835    2.4444 H   0  0  0  0  0  0  0  0  0  0  0  0
    7.5014   -8.5105    0.8049 H   0  0  0  0  0  0  0  0  0  0  0  0
    8.6105   -7.0541    2.3312 H   0  0  0  0  0  0  0  0  0  0  0  0
    8.5254   -6.2634    0.2421 H   0  0  0  0  0  0  0  0  0  0  0  0
    8.6721   -4.2610    2.0795 H   0  0  0  0  0  0  0  0  0  0  0  0
    8.7206   -3.9944    0.3741 H   0  0  0  0  0  0  0  0  0  0  0  0
    6.3991   -3.4152    2.1476 H   0  0  0  0  0  0  0  0  0  0  0  0
    6.8492   -2.7182    0.6470 H   0  0  0  0  0  0  0  0  0  0  0  0
    4.8454   -3.1469   -0.8916 H   0  0  0  0  0  0  0  0  0  0  0  0
    5.0522   -4.7241   -1.6607 H   0  0  0  0  0  0  0  0  0  0  0  0
    6.4316   -3.6824   -1.4510 H   0  0  0  0  0  0  0  0  0  0  0  0
    4.0237   -4.1595    1.4331 H   0  0  0  0  0  0  0  0  0  0  0  0
    4.1598   -6.2321   -0.3644 H   0  0  0  0  0  0  0  0  0  0  0  0
  1  2  2  0
  1 36  1  0
  1 37  1  0
  2 27  1  0
  2  3  1  0
  3  4  2  0
  5  3  1  1
  5 24  1  0
  5 34  1  0
  5  6  1  0
  6  7  1  0
  6  8  1  0
  6 38  1  1
  7 39  1  0
  8  9  1  0
  8 40  1  0
  8 41  1  0
  9 22  1  0
  9 10  1  1
  9 11  1  0
 10 42  1  0
 10 43  1  0
 10 44  1  0
 11 18  1  0
 11 12  1  0
 11 45  1  1
 12 13  1  0
 13 14  1  0
 13 15  1  0
 13 16  1  0
 14 46  1  0
 14 47  1  0
 14 48  1  0
 15 49  1  0
 15 50  1  0
 15 51  1  0
 16 17  1  0
 17 18  1  0
 17 52  1  0
 17 53  1  0
 18 19  1  1
 18 20  1  0
 19 54  1  0
 19 55  1  0
 19 56  1  0
 20 21  1  0
 20 22  1  0
 20 57  1  6
 21 58  1  0
 22 23  1  1
 22 24  1  0
 23 59  1  0
 23 60  1  0
 23 61  1  0
 24 25  1  0
 24 62  1  6
 25 26  1  0
 25 63  1  0
 25 64  1  0
 26 27  1  0
 26 65  1  0
 26 66  1  0
 27 28  1  0
 27 67  1  1
 28 33  1  0
 28 29  1  0
 28 68  1  6
 29 30  1  0
 29 69  1  0
 29 70  1  0
 30 31  1  0
 30 71  1  0
 30 72  1  0
 31 32  1  6
 31 33  1  0
 31 34  1  0
 32 73  1  0
 32 74  1  0
 32 75  1  0
 34 35  1  0
 34 76  1  1
 35 77  1  0
M  END
>  <i_m_ct_stereo_status>  (52) 
1

>  <s_m_source_file>  (52) 
/var/tmp/pbs.5076255.sched01/tmpm7cr0ro2/0ctwvxj2z.sdf

>  <i_m_source_file_index>  (52) 
18

>  <i_lp_mmshare_version>  (52) 
48012

>  <i_f3d_flags>  (52) 
0

>  <s_epik_input>  (52) 
W09IXVtDQEBIXTFbQ0BAXShPMikoW0NIM10pW0NIMl1bQ0gyXVtDQEhdMltDQEBIXShDKD1bQ0gyXSlDMz1PKVtDSDJdW0NIMl1bQ0BIXShbQ0BdMTM0KVtDQEBdNShbQ0gzXSlbQ0BAXShbQ0gzXSkoW0NIMl1bQ0BASF00W09IXSlbQ0BASF02W0NAXShbQ0gzXSkoW0NASF01W09IXSlbQ0gyXU9DKE82KShbQ0gzXSlbQ0gzXQ==

>  <s_epik_cmdline>  (52) 
J2VwaWtfcHl0aG9uJywgJy1waHQnLCAnMi4wJywgJy1waCcsICc3LjAnLCAnLXRuJywgJzgnLCAnLW1hJywgJzIwMCcsICctaW1hZScsICc8aW5maWxlLm1hZT4nLCAnLW9tYWUnLCAnPG91dGZpbGUubWFlPic=

>  <r_lp_tautomer_probability>  (52) 
1

>  <r_epik_Ionization_Penalty>  (52) 
3.51535e-07

>  <r_epik_Ionization_Penalty_Charging>  (52) 
0

>  <r_epik_Ionization_Penalty_Neutral>  (52) 
3.51535e-07

>  <r_epik_State_Penalty>  (52) 
-0

>  <r_epik_Charging_Adjusted_Penalty>  (52) 
0

>  <i_epik_Tot_Q>  (52) 
0

>  <i_epik_Tot_abs_Q>  (52) 
0

>  <s_lp_Force_Field>  (52) 
OPLS3e

>  <r_lp_Energy>  (52) 
90.3754

>  <b_lp_Chiralities_Consistent>  (52) 
1

>  <s_lp_Variant>  (52) 
10:0-1

>  <s_i_glide_gridfile>  (52) 
pfpi4k_grid

>  <i_i_glide_lignum>  (52) 
18

>  <i_i_glide_rotatable_bonds>  (52) 
3

>  <r_i_docking_score>  (52) 
-2.99868

>  <r_i_glide_ligand_efficiency>  (52) 
-0.0856765

>  <r_i_glide_ligand_efficiency_sa>  (52) 
-0.280254

>  <r_i_glide_ligand_efficiency_ln>  (52) 
-0.658276

>  <r_i_glide_gscore>  (52) 
-2.99868

>  <r_i_glide_lipo>  (52) 
-0.706612

>  <r_i_glide_hbond>  (52) 
0

>  <r_i_glide_metal>  (52) 
-0

>  <r_i_glide_rewards>  (52) 
-0.568107

>  <r_i_glide_evdw>  (52) 
-29.881

>  <r_i_glide_ecoul>  (52) 
-1.2488

>  <r_i_glide_erotb>  (52) 
0

>  <r_i_glide_esite>  (52) 
-0.0425887

>  <r_i_glide_emodel>  (52) 
-41.316

>  <r_i_glide_energy>  (52) 
-31.1298

>  <r_i_glide_einternal>  (52) 
1.9263

>  <r_i_glide_intrahb_reward>  (52) 
-0.5

>  <i_i_glide_confnum>  (52) 
2

>  <i_i_glide_posenum>  (52) 
8

>  <r_i_glide_eff_state_penalty>  (52) 
0

>  <ligand_id>  (52) 
10

>  <original_smiles>  (52) 
C=C1C(=O)C23C(O)CC4(C)C5OC(C)(C)OCC5(C)C(O)C4(C)C2CCC1C1CCC(C)(O1)C3O

>  <smiles>  (52) 
[H]OC1([H])C([H])([H])C2(C([H])([H])[H])C3([H])OC(C([H])([H])[H])(C([H])([H])[H])OC([H])([H])C3(C([H])([H])[H])C([H])(O[H])C2(C([H])([H])[H])C2([H])C([H])([H])C([H])([H])C3([H])C(=C([H])[H])C(=O)C12C([H])(O[H])C1(C([H])([H])[H])OC3([H])C([H])([H])C1([H])[H]

$$$$
13:0:0
     RDKit          3D

 38 39  0  0  1  0  0  0  0  0999 V2000
   -1.5393   -1.5597    5.8576 C   0  0  0  0  0  0  0  0  0  0  0  0
   -1.0936   -0.3335    6.4384 O   0  0  0  0  0  0  0  0  0  0  0  0
   -1.3840    0.8295    5.7622 C   0  0  0  0  0  0  0  0  0  0  0  0
   -2.1726    1.7878    6.4380 C   0  0  0  0  0  0  0  0  0  0  0  0
   -2.5029    3.0092    5.8139 C   0  0  0  0  0  0  0  0  0  0  0  0
   -2.0270    3.2838    4.5171 C   0  0  0  0  0  0  0  0  0  0  0  0
   -1.2301    2.3470    3.8466 C   0  0  0  0  0  0  0  0  0  0  0  0
   -0.8778    1.1348    4.4718 C   0  0  0  0  0  0  0  0  0  0  0  0
   -0.0634    0.1927    3.7874 N   0  0  0  0  0  0  0  0  0  0  0  0
    1.1171    0.3619    3.1207 C   0  0  0  0  0  0  0  0  0  0  0  0
    1.9979    1.7735    2.9028 S   0  0  0  0  0  0  0  0  0  0  0  0
    1.5093   -0.8524    2.6784 N   0  0  0  0  0  0  0  0  0  0  0  0
    2.3812   -1.0812    1.6147 N   0  0  0  0  0  0  0  0  0  0  0  0
    3.4364   -1.8997    1.7400 C   0  0  0  0  0  0  0  0  0  0  0  0
    3.8859   -2.2849    2.8209 O   0  0  0  0  0  0  0  0  0  0  0  0
    3.9862   -2.4122    0.4334 C   0  0  0  0  0  0  0  0  0  0  0  0
    4.6633   -3.6565    0.4067 C   0  0  0  0  0  0  0  0  0  0  0  0
    5.1475   -4.1693   -0.8084 C   0  0  0  0  0  0  0  0  0  0  0  0
    4.9672   -3.4522   -2.0058 C   0  0  0  0  0  0  0  0  0  0  0  0
    4.2948   -2.2100   -1.9980 C   0  0  0  0  0  0  0  0  0  0  0  0
    4.0918   -1.4579   -3.2485 N   0  0  0  0  0  0  0  0  0  0  0  0
    3.8525   -0.2578   -3.1745 O   0  0  0  0  0  0  0  0  0  0  0  0
    4.2006   -2.0586   -4.3187 O   0  0  0  0  0  0  0  0  0  0  0  0
    3.8170   -1.6956   -0.7703 C   0  0  0  0  0  0  0  0  0  0  0  0
   -1.1635   -2.3987    6.4450 H   0  0  0  0  0  0  0  0  0  0  0  0
   -1.2184   -1.7332    4.8322 H   0  0  0  0  0  0  0  0  0  0  0  0
   -2.6269   -1.5952    5.8680 H   0  0  0  0  0  0  0  0  0  0  0  0
   -2.5402    1.5840    7.4325 H   0  0  0  0  0  0  0  0  0  0  0  0
   -3.1154    3.7287    6.3293 H   0  0  0  0  0  0  0  0  0  0  0  0
   -2.2663    4.2142    4.0249 H   0  0  0  0  0  0  0  0  0  0  0  0
   -0.8921    2.5795    2.8464 H   0  0  0  0  0  0  0  0  0  0  0  0
   -0.3385   -0.7612    3.9050 H   0  0  0  0  0  0  0  0  0  0  0  0
    0.9993   -1.6884    2.9066 H   0  0  0  0  0  0  0  0  0  0  0  0
    1.9750   -0.7920    0.7292 H   0  0  0  0  0  0  0  0  0  0  0  0
    4.7907   -4.2224    1.3131 H   0  0  0  0  0  0  0  0  0  0  0  0
    5.6548   -5.1187   -0.8114 H   0  0  0  0  0  0  0  0  0  0  0  0
    5.3487   -3.8614   -2.9303 H   0  0  0  0  0  0  0  0  0  0  0  0
    3.2944   -0.7508   -0.7740 H   0  0  0  0  0  0  0  0  0  0  0  0
  1  2  1  0
  1 25  1  0
  1 26  1  0
  1 27  1  0
  2  3  1  0
  3  8  2  0
  3  4  1  0
  4  5  2  0
  4 28  1  0
  5  6  1  0
  5 29  1  0
  6  7  2  0
  6 30  1  0
  7  8  1  0
  7 31  1  0
  8  9  1  0
  9 10  1  0
  9 32  1  0
 10 11  2  0
 10 12  1  0
 12 13  1  0
 12 33  1  0
 13 14  1  0
 13 34  1  0
 14 15  2  0
 14 16  1  0
 16 24  1  0
 16 17  2  0
 17 18  1  0
 17 35  1  0
 18 19  2  0
 18 36  1  0
 19 20  1  0
 19 37  1  0
 20 21  1  0
 20 24  2  0
 21 22  2  0
 21 23  1  0
 24 38  1  0
M  CHG  2  21   1  23  -1
M  END
>  <i_m_ct_stereo_status>  (53) 
1

>  <s_m_source_file>  (53) 
/var/tmp/pbs.5076255.sched01/tmpm7cr0ro2/0ctwvxj2z.sdf

>  <i_m_source_file_index>  (53) 
22

>  <i_lp_mmshare_version>  (53) 
48012

>  <i_f3d_flags>  (53) 
0

>  <s_epik_input>  (53) 
W0NIM11PYzFbY0hdW2NIXVtjSF1bY0hdYzFbTkhdQyg9UylbTkhdW05IXUMoPU8pYzJbY0hdW2NIXVtjSF1jKFtOK10oPU8pW08tXSlbY0hdMg==

>  <s_epik_cmdline>  (53) 
J2VwaWtfcHl0aG9uJywgJy1waHQnLCAnMi4wJywgJy1waCcsICc3LjAnLCAnLXRuJywgJzgnLCAnLW1hJywgJzIwMCcsICctaW1hZScsICc8aW5maWxlLm1hZT4nLCAnLW9tYWUnLCAnPG91dGZpbGUubWFlPic=

>  <r_epik_Ionization_Penalty>  (53) 
0.000356016

>  <r_epik_Ionization_Penalty_Charging>  (53) 
0

>  <r_epik_Ionization_Penalty_Neutral>  (53) 
0.000356016

>  <r_epik_State_Penalty>  (53) 
0.000216337

>  <r_epik_Charging_Adjusted_Penalty>  (53) 
0.000216337

>  <i_epik_Tot_Q>  (53) 
0

>  <i_epik_Tot_abs_Q>  (53) 
2

>  <s_lp_Force_Field>  (53) 
OPLS3e

>  <r_lp_Energy>  (53) 
51.5488

>  <b_lp_Chiralities_Consistent>  (53) 
1

>  <s_lp_Variant>  (53) 
13:0-1

>  <s_i_glide_gridfile>  (53) 
pfpi4k_grid

>  <i_i_glide_lignum>  (53) 
22

>  <i_i_glide_rotatable_bonds>  (53) 
8

>  <r_i_docking_score>  (53) 
-3.50036

>  <r_i_glide_ligand_efficiency>  (53) 
-0.145848

>  <r_i_glide_ligand_efficiency_sa>  (53) 
-0.420699

>  <r_i_glide_ligand_efficiency_ln>  (53) 
-0.837796

>  <r_i_glide_gscore>  (53) 
-3.50036

>  <r_i_glide_lipo>  (53) 
-0.201198

>  <r_i_glide_hbond>  (53) 
-0.267148

>  <r_i_glide_metal>  (53) 
-0

>  <r_i_glide_rewards>  (53) 
-1.18891

>  <r_i_glide_evdw>  (53) 
-33.9347

>  <r_i_glide_ecoul>  (53) 
-5.97556

>  <r_i_glide_erotb>  (53) 
0.950823

>  <r_i_glide_esite>  (53) 
-0.200856

>  <r_i_glide_emodel>  (53) 
-44.2255

>  <r_i_glide_energy>  (53) 
-39.9102

>  <r_i_glide_einternal>  (53) 
9.37986

>  <r_i_glide_intrahb_reward>  (53) 
-0

>  <i_i_glide_confnum>  (53) 
2

>  <i_i_glide_posenum>  (53) 
5

>  <r_i_glide_eff_state_penalty>  (53) 
0

>  <ligand_id>  (53) 
13

>  <original_smiles>  (53) 
COc1ccccc1NC(=S)NNC(=O)c1cccc([N+](=O)[O-])c1

>  <smiles>  (53) 
[H]c1c([H])c([H])c(N([H])C(=S)N([H])N([H])C(=O)c2c([H])c([H])c([H])c([N+](=O)[O-])c2[H])c(OC([H])([H])[H])c1[H]

$$$$
13:0:1
     RDKit          3D

 38 39  0  0  1  0  0  0  0  0999 V2000
    3.9093   -3.0478   -3.3843 C   0  0  0  0  0  0  0  0  0  0  0  0
    4.0287   -2.3078   -2.1695 O   0  0  0  0  0  0  0  0  0  0  0  0
    5.2382   -2.3133   -1.5015 C   0  0  0  0  0  0  0  0  0  0  0  0
    6.3638   -3.0533   -1.9416 C   0  0  0  0  0  0  0  0  0  0  0  0
    7.5741   -3.0316   -1.2240 C   0  0  0  0  0  0  0  0  0  0  0  0
    7.6820   -2.2519   -0.0629 C   0  0  0  0  0  0  0  0  0  0  0  0
    6.5839   -1.4895    0.3709 C   0  0  0  0  0  0  0  0  0  0  0  0
    5.3453   -1.5490   -0.3040 C   0  0  0  0  0  0  0  0  0  0  0  0
    4.1977   -0.8196    0.1328 N   0  0  0  0  0  0  0  0  0  0  0  0
    3.7147   -0.5898    1.3846 C   0  0  0  0  0  0  0  0  0  0  0  0
    4.3925   -1.0368    2.8506 S   0  0  0  0  0  0  0  0  0  0  0  0
    2.5292    0.0541    1.2695 N   0  0  0  0  0  0  0  0  0  0  0  0
    1.6915    0.4955    2.3116 N   0  0  0  0  0  0  0  0  0  0  0  0
    1.7319    1.7589    2.7729 C   0  0  0  0  0  0  0  0  0  0  0  0
    2.6040    2.5793    2.4854 O   0  0  0  0  0  0  0  0  0  0  0  0
    0.5738    2.1467    3.6392 C   0  0  0  0  0  0  0  0  0  0  0  0
    0.1614    3.4935    3.6824 C   0  0  0  0  0  0  0  0  0  0  0  0
   -0.9340    3.8823    4.4751 C   0  0  0  0  0  0  0  0  0  0  0  0
   -1.6226    2.9206    5.2348 C   0  0  0  0  0  0  0  0  0  0  0  0
   -1.2131    1.5687    5.2091 C   0  0  0  0  0  0  0  0  0  0  0  0
   -1.9253    0.5624    6.0041 N   0  0  0  0  0  0  0  0  0  0  0  0
   -1.8415   -0.6174    5.6787 O   0  0  0  0  0  0  0  0  0  0  0  0
   -2.5800    0.9479    6.9652 O   0  0  0  0  0  0  0  0  0  0  0  0
   -0.1077    1.1897    4.4205 C   0  0  0  0  0  0  0  0  0  0  0  0
    2.8985   -2.9414   -3.7841 H   0  0  0  0  0  0  0  0  0  0  0  0
    4.0912   -4.1115   -3.2331 H   0  0  0  0  0  0  0  0  0  0  0  0
    4.6006   -2.6757   -4.1395 H   0  0  0  0  0  0  0  0  0  0  0  0
    6.3263   -3.6606   -2.8353 H   0  0  0  0  0  0  0  0  0  0  0  0
    8.4279   -3.5957   -1.5712 H   0  0  0  0  0  0  0  0  0  0  0  0
    8.6068   -2.2101    0.4873 H   0  0  0  0  0  0  0  0  0  0  0  0
    6.7196   -0.8574    1.2325 H   0  0  0  0  0  0  0  0  0  0  0  0
    3.5843   -0.5454   -0.6144 H   0  0  0  0  0  0  0  0  0  0  0  0
    2.0302    0.0684    0.3801 H   0  0  0  0  0  0  0  0  0  0  0  0
    0.9832   -0.1816    2.5428 H   0  0  0  0  0  0  0  0  0  0  0  0
    0.6754    4.2310    3.0888 H   0  0  0  0  0  0  0  0  0  0  0  0
   -1.2418    4.9150    4.4879 H   0  0  0  0  0  0  0  0  0  0  0  0
   -2.4677    3.2234    5.8380 H   0  0  0  0  0  0  0  0  0  0  0  0
    0.1996    0.1572    4.4199 H   0  0  0  0  0  0  0  0  0  0  0  0
  1  2  1  0
  1 25  1  0
  1 26  1  0
  1 27  1  0
  2  3  1  0
  3  8  2  0
  3  4  1  0
  4  5  2  0
  4 28  1  0
  5  6  1  0
  5 29  1  0
  6  7  2  0
  6 30  1  0
  7  8  1  0
  7 31  1  0
  8  9  1  0
  9 10  1  0
  9 32  1  0
 10 11  2  0
 10 12  1  0
 12 13  1  0
 12 33  1  0
 13 14  1  0
 13 34  1  0
 14 15  2  0
 14 16  1  0
 16 24  1  0
 16 17  2  0
 17 18  1  0
 17 35  1  0
 18 19  2  0
 18 36  1  0
 19 20  1  0
 19 37  1  0
 20 21  1  0
 20 24  2  0
 21 22  2  0
 21 23  1  0
 24 38  1  0
M  CHG  2  21   1  23  -1
M  END
>  <i_m_ct_stereo_status>  (54) 
1

>  <s_m_source_file>  (54) 
/var/tmp/pbs.5076255.sched01/tmpm7cr0ro2/0ctwvxj2z.sdf

>  <i_m_source_file_index>  (54) 
22

>  <i_lp_mmshare_version>  (54) 
48012

>  <i_f3d_flags>  (54) 
0

>  <s_epik_input>  (54) 
W0NIM11PYzFbY0hdW2NIXVtjSF1bY0hdYzFbTkhdQyg9UylbTkhdW05IXUMoPU8pYzJbY0hdW2NIXVtjSF1jKFtOK10oPU8pW08tXSlbY0hdMg==

>  <s_epik_cmdline>  (54) 
J2VwaWtfcHl0aG9uJywgJy1waHQnLCAnMi4wJywgJy1waCcsICc3LjAnLCAnLXRuJywgJzgnLCAnLW1hJywgJzIwMCcsICctaW1hZScsICc8aW5maWxlLm1hZT4nLCAnLW9tYWUnLCAnPG91dGZpbGUubWFlPic=

>  <r_epik_Ionization_Penalty>  (54) 
0.000356016

>  <r_epik_Ionization_Penalty_Charging>  (54) 
0

>  <r_epik_Ionization_Penalty_Neutral>  (54) 
0.000356016

>  <r_epik_State_Penalty>  (54) 
0.000216337

>  <r_epik_Charging_Adjusted_Penalty>  (54) 
0.000216337

>  <i_epik_Tot_Q>  (54) 
0

>  <i_epik_Tot_abs_Q>  (54) 
2

>  <s_lp_Force_Field>  (54) 
OPLS3e

>  <r_lp_Energy>  (54) 
51.5488

>  <b_lp_Chiralities_Consistent>  (54) 
1

>  <s_lp_Variant>  (54) 
13:0-1

>  <s_i_glide_gridfile>  (54) 
pfpi4k_grid

>  <i_i_glide_lignum>  (54) 
22

>  <i_i_glide_rotatable_bonds>  (54) 
8

>  <r_i_docking_score>  (54) 
-3.27674

>  <r_i_glide_ligand_efficiency>  (54) 
-0.136531

>  <r_i_glide_ligand_efficiency_sa>  (54) 
-0.393823

>  <r_i_glide_ligand_efficiency_ln>  (54) 
-0.784273

>  <r_i_glide_gscore>  (54) 
-3.27674

>  <r_i_glide_lipo>  (54) 
-0.22591

>  <r_i_glide_hbond>  (54) 
-0.140769

>  <r_i_glide_metal>  (54) 
-0

>  <r_i_glide_rewards>  (54) 
-1.10607

>  <r_i_glide_evdw>  (54) 
-34.3349

>  <r_i_glide_ecoul>  (54) 
-4.61664

>  <r_i_glide_erotb>  (54) 
0.950823

>  <r_i_glide_esite>  (54) 
-0.345562

>  <r_i_glide_emodel>  (54) 
-46.1187

>  <r_i_glide_energy>  (54) 
-38.9516

>  <r_i_glide_einternal>  (54) 
2.25558

>  <r_i_glide_intrahb_reward>  (54) 
-0

>  <i_i_glide_confnum>  (54) 
4

>  <i_i_glide_posenum>  (54) 
23

>  <r_i_glide_eff_state_penalty>  (54) 
0

>  <ligand_id>  (54) 
13

>  <original_smiles>  (54) 
COc1ccccc1NC(=S)NNC(=O)c1cccc([N+](=O)[O-])c1

>  <smiles>  (54) 
[H]c1c([H])c([H])c(N([H])C(=S)N([H])N([H])C(=O)c2c([H])c([H])c([H])c([N+](=O)[O-])c2[H])c(OC([H])([H])[H])c1[H]

$$$$
13:0:2
     RDKit          3D

 38 39  0  0  1  0  0  0  0  0999 V2000
   -3.1213    3.1710    2.7656 C   0  0  0  0  0  0  0  0  0  0  0  0
   -1.9956    2.3529    3.0783 O   0  0  0  0  0  0  0  0  0  0  0  0
   -1.6175    2.2150    4.3951 C   0  0  0  0  0  0  0  0  0  0  0  0
   -2.1851    2.9725    5.4545 C   0  0  0  0  0  0  0  0  0  0  0  0
   -1.7185    2.8260    6.7713 C   0  0  0  0  0  0  0  0  0  0  0  0
   -0.6929    1.9163    7.0595 C   0  0  0  0  0  0  0  0  0  0  0  0
   -0.1527    1.1292    6.0225 C   0  0  0  0  0  0  0  0  0  0  0  0
   -0.5671    1.3107    4.6935 C   0  0  0  0  0  0  0  0  0  0  0  0
    0.0496    0.6205    3.6110 N   0  0  0  0  0  0  0  0  0  0  0  0
    1.3735    0.5168    3.2974 C   0  0  0  0  0  0  0  0  0  0  0  0
    2.6692    1.1211    4.1770 S   0  0  0  0  0  0  0  0  0  0  0  0
    1.4924   -0.1500    2.1283 N   0  0  0  0  0  0  0  0  0  0  0  0
    2.6375   -0.3061    1.3110 N   0  0  0  0  0  0  0  0  0  0  0  0
    3.6427   -1.1539    1.6021 C   0  0  0  0  0  0  0  0  0  0  0  0
    3.9107   -1.5727    2.7389 O   0  0  0  0  0  0  0  0  0  0  0  0
    4.4698   -1.5727    0.4268 C   0  0  0  0  0  0  0  0  0  0  0  0
    5.8635   -1.7108    0.5604 C   0  0  0  0  0  0  0  0  0  0  0  0
    6.6379   -2.2539   -0.4728 C   0  0  0  0  0  0  0  0  0  0  0  0
    6.0080   -2.6494   -1.6675 C   0  0  0  0  0  0  0  0  0  0  0  0
    4.6057   -2.4854   -1.8437 C   0  0  0  0  0  0  0  0  0  0  0  0
    3.9395   -2.9042   -3.0889 N   0  0  0  0  0  0  0  0  0  0  0  0
    2.7442   -2.6624   -3.2281 O   0  0  0  0  0  0  0  0  0  0  0  0
    4.6093   -3.4667   -3.9544 O   0  0  0  0  0  0  0  0  0  0  0  0
    3.8500   -1.9482   -0.7839 C   0  0  0  0  0  0  0  0  0  0  0  0
   -3.3521    3.1199    1.6981 H   0  0  0  0  0  0  0  0  0  0  0  0
   -2.9180    4.2099    3.0164 H   0  0  0  0  0  0  0  0  0  0  0  0
   -4.0041    2.8312    3.3020 H   0  0  0  0  0  0  0  0  0  0  0  0
   -2.9862    3.6725    5.2731 H   0  0  0  0  0  0  0  0  0  0  0  0
   -2.1516    3.4085    7.5791 H   0  0  0  0  0  0  0  0  0  0  0  0
   -0.2991    1.8092    8.0563 H   0  0  0  0  0  0  0  0  0  0  0  0
    0.6296    0.4367    6.2776 H   0  0  0  0  0  0  0  0  0  0  0  0
   -0.5769    0.3936    2.8598 H   0  0  0  0  0  0  0  0  0  0  0  0
    0.6688   -0.3668    1.5900 H   0  0  0  0  0  0  0  0  0  0  0  0
    2.3814   -0.1308    0.3420 H   0  0  0  0  0  0  0  0  0  0  0  0
    6.3215   -1.4562    1.5017 H   0  0  0  0  0  0  0  0  0  0  0  0
    7.7017   -2.4068   -0.3184 H   0  0  0  0  0  0  0  0  0  0  0  0
    6.6065   -3.0797   -2.4622 H   0  0  0  0  0  0  0  0  0  0  0  0
    2.7901   -1.8754   -0.8732 H   0  0  0  0  0  0  0  0  0  0  0  0
  1  2  1  0
  1 25  1  0
  1 26  1  0
  1 27  1  0
  2  3  1  0
  3  8  2  0
  3  4  1  0
  4  5  2  0
  4 28  1  0
  5  6  1  0
  5 29  1  0
  6  7  2  0
  6 30  1  0
  7  8  1  0
  7 31  1  0
  8  9  1  0
  9 10  1  0
  9 32  1  0
 10 11  2  0
 10 12  1  0
 12 13  1  0
 12 33  1  0
 13 14  1  0
 13 34  1  0
 14 15  2  0
 14 16  1  0
 16 24  1  0
 16 17  2  0
 17 18  1  0
 17 35  1  0
 18 19  2  0
 18 36  1  0
 19 20  1  0
 19 37  1  0
 20 21  1  0
 20 24  2  0
 21 22  2  0
 21 23  1  0
 24 38  1  0
M  CHG  2  21   1  23  -1
M  END
>  <i_m_ct_stereo_status>  (55) 
1

>  <s_m_source_file>  (55) 
/var/tmp/pbs.5076255.sched01/tmpm7cr0ro2/0ctwvxj2z.sdf

>  <i_m_source_file_index>  (55) 
22

>  <i_lp_mmshare_version>  (55) 
48012

>  <i_f3d_flags>  (55) 
0

>  <s_epik_input>  (55) 
W0NIM11PYzFbY0hdW2NIXVtjSF1bY0hdYzFbTkhdQyg9UylbTkhdW05IXUMoPU8pYzJbY0hdW2NIXVtjSF1jKFtOK10oPU8pW08tXSlbY0hdMg==

>  <s_epik_cmdline>  (55) 
J2VwaWtfcHl0aG9uJywgJy1waHQnLCAnMi4wJywgJy1waCcsICc3LjAnLCAnLXRuJywgJzgnLCAnLW1hJywgJzIwMCcsICctaW1hZScsICc8aW5maWxlLm1hZT4nLCAnLW9tYWUnLCAnPG91dGZpbGUubWFlPic=

>  <r_epik_Ionization_Penalty>  (55) 
0.000356016

>  <r_epik_Ionization_Penalty_Charging>  (55) 
0

>  <r_epik_Ionization_Penalty_Neutral>  (55) 
0.000356016

>  <r_epik_State_Penalty>  (55) 
0.000216337

>  <r_epik_Charging_Adjusted_Penalty>  (55) 
0.000216337

>  <i_epik_Tot_Q>  (55) 
0

>  <i_epik_Tot_abs_Q>  (55) 
2

>  <s_lp_Force_Field>  (55) 
OPLS3e

>  <r_lp_Energy>  (55) 
51.5488

>  <b_lp_Chiralities_Consistent>  (55) 
1

>  <s_lp_Variant>  (55) 
13:0-1

>  <s_i_glide_gridfile>  (55) 
pfpi4k_grid

>  <i_i_glide_lignum>  (55) 
22

>  <i_i_glide_rotatable_bonds>  (55) 
8

>  <r_i_docking_score>  (55) 
-2.92824

>  <r_i_glide_ligand_efficiency>  (55) 
-0.12201

>  <r_i_glide_ligand_efficiency_sa>  (55) 
-0.351938

>  <r_i_glide_ligand_efficiency_ln>  (55) 
-0.700862

>  <r_i_glide_gscore>  (55) 
-2.92824

>  <r_i_glide_lipo>  (55) 
-0.150258

>  <r_i_glide_hbond>  (55) 
-0.0602554

>  <r_i_glide_metal>  (55) 
-0

>  <r_i_glide_rewards>  (55) 
-1.15838

>  <r_i_glide_evdw>  (55) 
-35.385

>  <r_i_glide_ecoul>  (55) 
-3.78613

>  <r_i_glide_erotb>  (55) 
0.950823

>  <r_i_glide_esite>  (55) 
-0.173001

>  <r_i_glide_emodel>  (55) 
-44.0197

>  <r_i_glide_energy>  (55) 
-39.1711

>  <r_i_glide_einternal>  (55) 
2.69985

>  <r_i_glide_intrahb_reward>  (55) 
-0

>  <i_i_glide_confnum>  (55) 
8

>  <i_i_glide_posenum>  (55) 
13

>  <r_i_glide_eff_state_penalty>  (55) 
0

>  <ligand_id>  (55) 
13

>  <original_smiles>  (55) 
COc1ccccc1NC(=S)NNC(=O)c1cccc([N+](=O)[O-])c1

>  <smiles>  (55) 
[H]c1c([H])c([H])c(N([H])C(=S)N([H])N([H])C(=O)c2c([H])c([H])c([H])c([N+](=O)[O-])c2[H])c(OC([H])([H])[H])c1[H]

$$$$
14:0:0
     RDKit          3D

 35 41  0  0  1  0  0  0  0  0999 V2000
    6.8179   -5.9477    0.9557 C   0  0  0  0  0  0  0  0  0  0  0  0
    6.3239   -4.7064    1.6984 C   0  0  0  0  0  0  0  0  0  0  0  0
    5.5648   -3.6989    0.8496 C   0  0  1  0  0  0  0  0  0  0  0  0
    4.0967   -4.1746    0.5435 C   0  0  0  0  0  0  0  0  0  0  0  0
    3.5898   -5.2534    0.2382 O   0  0  0  0  0  0  0  0  0  0  0  0
    3.4895   -2.7976    0.9471 C   0  0  2  0  0  0  0  0  0  0  0  0
    3.6925   -1.4996    0.1065 C   0  0  2  0  0  0  0  0  0  0  0  0
    3.9231   -1.4982   -1.4236 C   0  0  2  0  0  0  0  0  0  0  0  0
    3.5153   -2.7359   -2.1924 C   0  0  1  0  0  0  0  0  0  0  0  0
    3.9891   -2.9990   -3.6133 C   0  0  0  0  0  0  0  0  0  0  0  0
    4.7306   -3.6020   -2.4385 C   0  0  1  0  0  0  0  0  0  0  0  0
    5.9185   -2.9293   -1.8266 C   0  0  1  0  0  0  0  0  0  0  0  0
    5.4464   -1.5000   -1.5546 C   0  0  2  0  0  0  0  0  0  0  0  0
    6.1110   -1.4914   -0.2011 C   0  0  1  0  0  0  0  0  0  0  0  0
    5.0389   -1.2617    0.8335 C   0  0  2  0  0  0  0  0  0  0  0  0
    4.8544   -2.5414    1.6005 C   0  0  2  0  0  0  0  0  0  0  0  0
    6.3353   -3.0109   -0.3208 C   0  0  1  0  0  0  0  0  0  0  0  0
    7.4298   -6.5683    1.6110 H   0  0  0  0  0  0  0  0  0  0  0  0
    7.4385   -5.6767    0.1074 H   0  0  0  0  0  0  0  0  0  0  0  0
    5.9874   -6.5516    0.5997 H   0  0  0  0  0  0  0  0  0  0  0  0
    5.7581   -4.9961    2.5818 H   0  0  0  0  0  0  0  0  0  0  0  0
    7.2164   -4.1992    2.0805 H   0  0  0  0  0  0  0  0  0  0  0  0
    2.6861   -2.7801    1.6849 H   0  0  0  0  0  0  0  0  0  0  0  0
    2.9533   -0.7554    0.4302 H   0  0  0  0  0  0  0  0  0  0  0  0
    3.4740   -0.6342   -1.9036 H   0  0  0  0  0  0  0  0  0  0  0  0
    2.5623   -3.2120   -1.9145 H   0  0  0  0  0  0  0  0  0  0  0  0
    3.3913   -3.6528   -4.2272 H   0  0  0  0  0  0  0  0  0  0  0  0
    4.4717   -2.1679   -4.1359 H   0  0  0  0  0  0  0  0  0  0  0  0
    4.6285   -4.6804   -2.2975 H   0  0  0  0  0  0  0  0  0  0  0  0
    6.8108   -2.9316   -2.4553 H   0  0  0  0  0  0  0  0  0  0  0  0
    5.8421   -0.7719   -2.2686 H   0  0  0  0  0  0  0  0  0  0  0  0
    7.0351   -0.9321   -0.0894 H   0  0  0  0  0  0  0  0  0  0  0  0
    5.0792   -0.3373    1.4101 H   0  0  0  0  0  0  0  0  0  0  0  0
    4.8900   -2.5126    2.6976 H   0  0  0  0  0  0  0  0  0  0  0  0
    7.4063   -3.2377   -0.2505 H   0  0  0  0  0  0  0  0  0  0  0  0
  1  2  1  0
  1 18  1  0
  1 19  1  0
  1 20  1  0
  3  2  1  1
  2 21  1  0
  2 22  1  0
  3 16  1  0
  3 17  1  0
  3  4  1  0
  4  5  2  0
  4  6  1  0
  6 16  1  0
  6  7  1  0
  6 23  1  1
  7 15  1  0
  7  8  1  0
  7 24  1  6
  8 13  1  0
  8  9  1  0
  8 25  1  6
  9 11  1  0
  9 10  1  0
  9 26  1  6
 10 11  1  0
 10 27  1  0
 10 28  1  0
 11 12  1  0
 11 29  1  6
 12 17  1  0
 12 13  1  0
 12 30  1  6
 13 14  1  0
 13 31  1  6
 14 15  1  0
 14 17  1  0
 14 32  1  6
 15 16  1  0
 15 33  1  1
 16 34  1  1
 17 35  1  6
M  END
>  <i_m_ct_stereo_status>  (56) 
1

>  <s_m_source_file>  (56) 
/var/tmp/pbs.5076255.sched01/tmpm7cr0ro2/0ctwvxj2z.sdf

>  <i_m_source_file_index>  (56) 
23

>  <i_lp_mmshare_version>  (56) 
48012

>  <i_f3d_flags>  (56) 
0

>  <s_epik_input>  (56) 
W0NIM11bQ0gyXVtDQF0xMltDQEBIXTNbQ0BIXShDMT1PKVtDQEBIXTRbQ0BASF01W0NAQEhdNltDQEBIXShbQ0gyXTYpW0NASF03W0NAQEhdNVtDQEBIXShbQ0BIXTM0KVtDQEBIXTI3

>  <s_epik_cmdline>  (56) 
J2VwaWtfcHl0aG9uJywgJy1waHQnLCAnMi4wJywgJy1waCcsICc3LjAnLCAnLXRuJywgJzgnLCAnLW1hJywgJzIwMCcsICctaW1hZScsICc8aW5maWxlLm1hZT4nLCAnLW9tYWUnLCAnPG91dGZpbGUubWFlPic=

>  <r_lp_tautomer_probability>  (56) 
1

>  <r_epik_Ionization_Penalty>  (56) 
1.22349e-14

>  <r_epik_Ionization_Penalty_Charging>  (56) 
0

>  <r_epik_Ionization_Penalty_Neutral>  (56) 
1.22349e-14

>  <r_epik_State_Penalty>  (56) 
-0

>  <r_epik_Charging_Adjusted_Penalty>  (56) 
0

>  <i_epik_Tot_Q>  (56) 
0

>  <i_epik_Tot_abs_Q>  (56) 
0

>  <s_lp_Force_Field>  (56) 
OPLS3e

>  <r_lp_Energy>  (56) 
58.8427

>  <b_lp_Chiralities_Consistent>  (56) 
1

>  <s_lp_Variant>  (56) 
14:0-1

>  <s_i_glide_gridfile>  (56) 
pfpi4k_grid

>  <i_i_glide_lignum>  (56) 
23

>  <i_i_glide_rotatable_bonds>  (56) 
1

>  <r_i_docking_score>  (56) 
-3.34393

>  <r_i_glide_ligand_efficiency>  (56) 
-0.196702

>  <r_i_glide_ligand_efficiency_sa>  (56) 
-0.505776

>  <r_i_glide_ligand_efficiency_ln>  (56) 
-0.872357

>  <r_i_glide_gscore>  (56) 
-3.34393

>  <r_i_glide_lipo>  (56) 
-0.648373

>  <r_i_glide_hbond>  (56) 
0

>  <r_i_glide_metal>  (56) 
-0

>  <r_i_glide_rewards>  (56) 
-1.89945

>  <r_i_glide_evdw>  (56) 
-17.1056

>  <r_i_glide_ecoul>  (56) 
0.394508

>  <r_i_glide_erotb>  (56) 
0

>  <r_i_glide_esite>  (56) 
0

>  <r_i_glide_emodel>  (56) 
-20.1119

>  <r_i_glide_energy>  (56) 
-16.7111

>  <r_i_glide_einternal>  (56) 
0.00841764

>  <r_i_glide_intrahb_reward>  (56) 
-0

>  <i_i_glide_confnum>  (56) 
1

>  <i_i_glide_posenum>  (56) 
3

>  <r_i_glide_eff_state_penalty>  (56) 
0

>  <ligand_id>  (56) 
14

>  <original_smiles>  (56) 
CCC12C(=O)C3C4C5C6CC6C6C5C(C4C31)C62

>  <smiles>  (56) 
[H]C([H])([H])C([H])([H])C12C(=O)C3([H])C4([H])C5([H])C6([H])C([H])([H])C6([H])C6([H])C5([H])C([H])(C4([H])C31[H])C62[H]

$$$$
14:0:1
     RDKit          3D

 35 41  0  0  1  0  0  0  0  0999 V2000
    5.3831   -6.5511    1.1060 C   0  0  0  0  0  0  0  0  0  0  0  0
    4.8908   -5.2214    1.6775 C   0  0  0  0  0  0  0  0  0  0  0  0
    5.0268   -4.0042    0.7220 C   0  0  1  0  0  0  0  0  0  0  0  0
    3.8602   -2.9972    0.8720 C   0  0  0  0  0  0  0  0  0  0  0  0
    2.6190   -3.1334    1.0188 O   0  0  0  0  0  0  0  0  0  0  0  0
    4.8138   -1.7739    0.9652 C   0  0  2  0  0  0  0  0  0  0  0  0
    5.6545   -1.2420   -0.2442 C   0  0  2  0  0  0  0  0  0  0  0  0
    5.2204   -1.4008   -1.7379 C   0  0  2  0  0  0  0  0  0  0  0  0
    3.7334   -1.6585   -1.9918 C   0  0  1  0  0  0  0  0  0  0  0  0
    3.2431   -2.1928   -3.3300 C   0  0  0  0  0  0  0  0  0  0  0  0
    3.5171   -3.1401   -2.1868 C   0  0  1  0  0  0  0  0  0  0  0  0
    4.8605   -3.8261   -2.0703 C   0  0  1  0  0  0  0  0  0  0  0  0
    5.8964   -2.7114   -2.1732 C   0  0  2  0  0  0  0  0  0  0  0  0
    6.6846   -3.3163   -1.0352 C   0  0  1  0  0  0  0  0  0  0  0  0
    6.7406   -2.2829    0.0802 C   0  0  2  0  0  0  0  0  0  0  0  0
    5.9034   -2.8183    1.2206 C   0  0  2  0  0  0  0  0  0  0  0  0
    5.5210   -4.2772   -0.7457 C   0  0  1  0  0  0  0  0  0  0  0  0
    5.3104   -7.3705    1.8443 H   0  0  0  0  0  0  0  0  0  0  0  0
    6.4322   -6.4893    0.8207 H   0  0  0  0  0  0  0  0  0  0  0  0
    4.8061   -6.8635    0.2405 H   0  0  0  0  0  0  0  0  0  0  0  0
    3.8577   -5.3371    2.0096 H   0  0  0  0  0  0  0  0  0  0  0  0
    5.4536   -5.0350    2.5892 H   0  0  0  0  0  0  0  0  0  0  0  0
    4.7248   -1.0888    1.8051 H   0  0  0  0  0  0  0  0  0  0  0  0
    6.0247   -0.2413   -0.0050 H   0  0  0  0  0  0  0  0  0  0  0  0
    5.5411   -0.5463   -2.3363 H   0  0  0  0  0  0  0  0  0  0  0  0
    3.0139   -1.1096   -1.3855 H   0  0  0  0  0  0  0  0  0  0  0  0
    2.2073   -2.0207   -3.5901 H   0  0  0  0  0  0  0  0  0  0  0  0
    3.9410   -2.2044   -4.1664 H   0  0  0  0  0  0  0  0  0  0  0  0
    2.6541   -3.6207   -1.7228 H   0  0  0  0  0  0  0  0  0  0  0  0
    5.0326   -4.5869   -2.8306 H   0  0  0  0  0  0  0  0  0  0  0  0
    6.4108   -2.7143   -3.1362 H   0  0  0  0  0  0  0  0  0  0  0  0
    7.6149   -3.8156   -1.3051 H   0  0  0  0  0  0  0  0  0  0  0  0
    7.7144   -1.8649    0.3590 H   0  0  0  0  0  0  0  0  0  0  0  0
    6.3167   -2.8209    2.2306 H   0  0  0  0  0  0  0  0  0  0  0  0
    5.7560   -5.3288   -0.8909 H   0  0  0  0  0  0  0  0  0  0  0  0
  1  2  1  0
  1 18  1  0
  1 19  1  0
  1 20  1  0
  3  2  1  1
  2 21  1  0
  2 22  1  0
  3 16  1  0
  3 17  1  0
  3  4  1  0
  4  5  2  0
  4  6  1  0
  6 16  1  0
  6  7  1  0
  6 23  1  1
  7 15  1  0
  7  8  1  0
  7 24  1  1
  8 13  1  0
  8  9  1  0
  8 25  1  6
  9 11  1  0
  9 10  1  0
  9 26  1  1
 10 11  1  0
 10 27  1  0
 10 28  1  0
 11 12  1  0
 11 29  1  1
 12 17  1  0
 12 13  1  0
 12 30  1  6
 13 14  1  0
 13 31  1  6
 14 15  1  0
 14 17  1  0
 14 32  1  6
 15 16  1  0
 15 33  1  1
 16 34  1  1
 17 35  1  6
M  END
>  <i_m_ct_stereo_status>  (57) 
1

>  <s_m_source_file>  (57) 
/var/tmp/pbs.5076255.sched01/tmpm7cr0ro2/0ctwvxj2z.sdf

>  <i_m_source_file_index>  (57) 
23

>  <i_lp_mmshare_version>  (57) 
48012

>  <i_f3d_flags>  (57) 
0

>  <s_epik_input>  (57) 
W0NIM11bQ0gyXVtDQF0xMltDQEBIXTNbQ0BIXShDMT1PKVtDQEBIXTRbQ0BASF01W0NAQEhdNltDQEBIXShbQ0gyXTYpW0NASF03W0NAQEhdNVtDQEBIXShbQ0BIXTM0KVtDQEBIXTI3

>  <s_epik_cmdline>  (57) 
J2VwaWtfcHl0aG9uJywgJy1waHQnLCAnMi4wJywgJy1waCcsICc3LjAnLCAnLXRuJywgJzgnLCAnLW1hJywgJzIwMCcsICctaW1hZScsICc8aW5maWxlLm1hZT4nLCAnLW9tYWUnLCAnPG91dGZpbGUubWFlPic=

>  <r_lp_tautomer_probability>  (57) 
1

>  <r_epik_Ionization_Penalty>  (57) 
1.22349e-14

>  <r_epik_Ionization_Penalty_Charging>  (57) 
0

>  <r_epik_Ionization_Penalty_Neutral>  (57) 
1.22349e-14

>  <r_epik_State_Penalty>  (57) 
-0

>  <r_epik_Charging_Adjusted_Penalty>  (57) 
0

>  <i_epik_Tot_Q>  (57) 
0

>  <i_epik_Tot_abs_Q>  (57) 
0

>  <s_lp_Force_Field>  (57) 
OPLS3e

>  <r_lp_Energy>  (57) 
58.8427

>  <b_lp_Chiralities_Consistent>  (57) 
1

>  <s_lp_Variant>  (57) 
14:0-1

>  <s_i_glide_gridfile>  (57) 
pfpi4k_grid

>  <i_i_glide_lignum>  (57) 
23

>  <i_i_glide_rotatable_bonds>  (57) 
1

>  <r_i_docking_score>  (57) 
-3.2155

>  <r_i_glide_ligand_efficiency>  (57) 
-0.189147

>  <r_i_glide_ligand_efficiency_sa>  (57) 
-0.48635

>  <r_i_glide_ligand_efficiency_ln>  (57) 
-0.838852

>  <r_i_glide_gscore>  (57) 
-3.2155

>  <r_i_glide_lipo>  (57) 
-0.647568

>  <r_i_glide_hbond>  (57) 
0

>  <r_i_glide_metal>  (57) 
-0

>  <r_i_glide_rewards>  (57) 
-1.86604

>  <r_i_glide_evdw>  (57) 
-16.9043

>  <r_i_glide_ecoul>  (57) 
0.975282

>  <r_i_glide_erotb>  (57) 
0

>  <r_i_glide_esite>  (57) 
-0.00296377

>  <r_i_glide_emodel>  (57) 
-13.0733

>  <r_i_glide_energy>  (57) 
-15.929

>  <r_i_glide_einternal>  (57) 
11.4974

>  <r_i_glide_intrahb_reward>  (57) 
-0

>  <i_i_glide_confnum>  (57) 
2

>  <i_i_glide_posenum>  (57) 
20

>  <r_i_glide_eff_state_penalty>  (57) 
0

>  <ligand_id>  (57) 
14

>  <original_smiles>  (57) 
CCC12C(=O)C3C4C5C6CC6C6C5C(C4C31)C62

>  <smiles>  (57) 
[H]C([H])([H])C([H])([H])C12C(=O)C3([H])C4([H])C5([H])C6([H])C([H])([H])C6([H])C6([H])C5([H])C([H])(C4([H])C31[H])C62[H]

$$$$
14:0:2
     RDKit          3D

 35 41  0  0  1  0  0  0  0  0999 V2000
    3.2258   -4.9865    2.5161 C   0  0  0  0  0  0  0  0  0  0  0  0
    4.1601   -5.1645    1.3065 C   0  0  0  0  0  0  0  0  0  0  0  0
    4.3743   -3.9253    0.4232 C   0  0  1  0  0  0  0  0  0  0  0  0
    3.0621   -3.2240    0.0410 C   0  0  0  0  0  0  0  0  0  0  0  0
    2.0126   -3.6255   -0.4538 O   0  0  0  0  0  0  0  0  0  0  0  0
    3.6219   -1.8067    0.3886 C   0  0  2  0  0  0  0  0  0  0  0  0
    4.7091   -1.1030   -0.4787 C   0  0  2  0  0  0  0  0  0  0  0  0
    4.8471   -1.3406   -2.0055 C   0  0  2  0  0  0  0  0  0  0  0  0
    3.6196   -1.8804   -2.7276 C   0  0  1  0  0  0  0  0  0  0  0  0
    3.6903   -2.4881   -4.1052 C   0  0  0  0  0  0  0  0  0  0  0  0
    3.7644   -3.3765   -2.9123 C   0  0  1  0  0  0  0  0  0  0  0  0
    5.0794   -3.8028   -2.2818 C   0  0  1  0  0  0  0  0  0  0  0  0
    5.8383   -2.4986   -2.0869 C   0  0  2  0  0  0  0  0  0  0  0  0
    6.3275   -2.9166   -0.7306 C   0  0  1  0  0  0  0  0  0  0  0  0
    5.8073   -1.9027    0.2634 C   0  0  2  0  0  0  0  0  0  0  0  0
    4.7482   -2.5867    1.0890 C   0  0  2  0  0  0  0  0  0  0  0  0
    5.3621   -4.1091   -0.7723 C   0  0  1  0  0  0  0  0  0  0  0  0
    3.2189   -5.8993    3.1105 H   0  0  0  0  0  0  0  0  0  0  0  0
    2.2034   -4.7812    2.2184 H   0  0  0  0  0  0  0  0  0  0  0  0
    3.5627   -4.1822    3.1697 H   0  0  0  0  0  0  0  0  0  0  0  0
    5.1280   -5.4480    1.6906 H   0  0  0  0  0  0  0  0  0  0  0  0
    3.8253   -6.0045    0.6956 H   0  0  0  0  0  0  0  0  0  0  0  0
    3.0879   -1.1822    1.1113 H   0  0  0  0  0  0  0  0  0  0  0  0
    4.7427   -0.0470   -0.1921 H   0  0  0  0  0  0  0  0  0  0  0  0
    5.1872   -0.4474   -2.5225 H   0  0  0  0  0  0  0  0  0  0  0  0
    2.6496   -1.5028   -2.4177 H   0  0  0  0  0  0  0  0  0  0  0  0
    2.7697   -2.5532   -4.6768 H   0  0  0  0  0  0  0  0  0  0  0  0
    4.5939   -2.3260   -4.6673 H   0  0  0  0  0  0  0  0  0  0  0  0
    2.8782   -3.9584   -2.7311 H   0  0  0  0  0  0  0  0  0  0  0  0
    5.6529   -4.4719   -2.9085 H   0  0  0  0  0  0  0  0  0  0  0  0
    6.6907   -2.4063   -2.7410 H   0  0  0  0  0  0  0  0  0  0  0  0
    7.3763   -3.2129   -0.6623 H   0  0  0  0  0  0  0  0  0  0  0  0
    6.5234   -1.2875    0.8053 H   0  0  0  0  0  0  0  0  0  0  0  0
    4.8141   -2.5131    2.1722 H   0  0  0  0  0  0  0  0  0  0  0  0
    5.8886   -5.0543   -0.6804 H   0  0  0  0  0  0  0  0  0  0  0  0
  1  2  1  0
  1 18  1  0
  1 19  1  0
  1 20  1  0
  3  2  1  1
  2 21  1  0
  2 22  1  0
  3 16  1  0
  3 17  1  0
  3  4  1  0
  4  5  2  0
  4  6  1  0
  6 16  1  0
  6  7  1  0
  6 23  1  1
  7 15  1  0
  7  8  1  0
  7 24  1  6
  8 13  1  0
  8  9  1  0
  8 25  1  6
  9 11  1  0
  9 10  1  0
  9 26  1  6
 10 11  1  0
 10 27  1  0
 10 28  1  0
 11 12  1  0
 11 29  1  6
 12 17  1  0
 12 13  1  0
 12 30  1  6
 13 14  1  0
 13 31  1  6
 14 15  1  0
 14 17  1  0
 14 32  1  6
 15 16  1  0
 15 33  1  1
 16 34  1  1
 17 35  1  6
M  END
>  <i_m_ct_stereo_status>  (58) 
1

>  <s_m_source_file>  (58) 
/var/tmp/pbs.5076255.sched01/tmpm7cr0ro2/0ctwvxj2z.sdf

>  <i_m_source_file_index>  (58) 
23

>  <i_lp_mmshare_version>  (58) 
48012

>  <i_f3d_flags>  (58) 
0

>  <s_epik_input>  (58) 
W0NIM11bQ0gyXVtDQF0xMltDQEBIXTNbQ0BIXShDMT1PKVtDQEBIXTRbQ0BASF01W0NAQEhdNltDQEBIXShbQ0gyXTYpW0NASF03W0NAQEhdNVtDQEBIXShbQ0BIXTM0KVtDQEBIXTI3

>  <s_epik_cmdline>  (58) 
J2VwaWtfcHl0aG9uJywgJy1waHQnLCAnMi4wJywgJy1waCcsICc3LjAnLCAnLXRuJywgJzgnLCAnLW1hJywgJzIwMCcsICctaW1hZScsICc8aW5maWxlLm1hZT4nLCAnLW9tYWUnLCAnPG91dGZpbGUubWFlPic=

>  <r_lp_tautomer_probability>  (58) 
1

>  <r_epik_Ionization_Penalty>  (58) 
1.22349e-14

>  <r_epik_Ionization_Penalty_Charging>  (58) 
0

>  <r_epik_Ionization_Penalty_Neutral>  (58) 
1.22349e-14

>  <r_epik_State_Penalty>  (58) 
-0

>  <r_epik_Charging_Adjusted_Penalty>  (58) 
0

>  <i_epik_Tot_Q>  (58) 
0

>  <i_epik_Tot_abs_Q>  (58) 
0

>  <s_lp_Force_Field>  (58) 
OPLS3e

>  <r_lp_Energy>  (58) 
58.8427

>  <b_lp_Chiralities_Consistent>  (58) 
1

>  <s_lp_Variant>  (58) 
14:0-1

>  <s_i_glide_gridfile>  (58) 
pfpi4k_grid

>  <i_i_glide_lignum>  (58) 
23

>  <i_i_glide_rotatable_bonds>  (58) 
1

>  <r_i_docking_score>  (58) 
-2.72957

>  <r_i_glide_ligand_efficiency>  (58) 
-0.160563

>  <r_i_glide_ligand_efficiency_sa>  (58) 
-0.412852

>  <r_i_glide_ligand_efficiency_ln>  (58) 
-0.712084

>  <r_i_glide_gscore>  (58) 
-2.72957

>  <r_i_glide_lipo>  (58) 
-0.200565

>  <r_i_glide_hbond>  (58) 
-0.0179284

>  <r_i_glide_metal>  (58) 
-0

>  <r_i_glide_rewards>  (58) 
-1.86604

>  <r_i_glide_evdw>  (58) 
-12.2335

>  <r_i_glide_ecoul>  (58) 
-0.155964

>  <r_i_glide_erotb>  (58) 
0

>  <r_i_glide_esite>  (58) 
-0.00996319

>  <r_i_glide_emodel>  (58) 
-14.6713

>  <r_i_glide_energy>  (58) 
-12.3894

>  <r_i_glide_einternal>  (58) 
0.394151

>  <r_i_glide_intrahb_reward>  (58) 
-0

>  <i_i_glide_confnum>  (58) 
1

>  <i_i_glide_posenum>  (58) 
11

>  <r_i_glide_eff_state_penalty>  (58) 
0

>  <ligand_id>  (58) 
14

>  <original_smiles>  (58) 
CCC12C(=O)C3C4C5C6CC6C6C5C(C4C31)C62

>  <smiles>  (58) 
[H]C([H])([H])C([H])([H])C12C(=O)C3([H])C4([H])C5([H])C6([H])C([H])([H])C6([H])C6([H])C5([H])C([H])(C4([H])C31[H])C62[H]

$$$$
15:0:0
     RDKit          3D

 67 72  0  0  1  0  0  0  0  0999 V2000
    0.5340    1.5728    2.6642 C   0  0  0  0  0  0  0  0  0  0  0  0
    1.8063    0.9612    2.8156 O   0  0  0  0  0  0  0  0  0  0  0  0
    2.0035   -0.1375    1.9892 C   0  0  2  0  0  0  0  0  0  0  0  0
    1.5294   -1.4031    2.6397 C   0  0  0  0  0  0  0  0  0  0  0  0
    2.4628   -2.3484    2.5739 C   0  0  0  0  0  0  0  0  0  0  0  0
    2.4247   -3.5469    3.4758 C   0  0  2  0  0  0  0  0  0  0  0  0
    3.6227   -4.2420    3.8269 O   0  0  0  0  0  0  0  0  0  0  0  0
    2.6127   -5.0247    3.1655 C   0  0  1  0  0  0  0  0  0  0  0  0
    1.8167   -5.9919    4.0435 C   0  0  1  0  0  0  0  0  0  0  0  0
    0.4445   -5.6547    4.0388 O   0  0  0  0  0  0  0  0  0  0  0  0
    2.1101   -7.4058    3.5601 C   0  0  1  0  0  0  0  0  0  0  0  0
    1.1504   -8.4227    2.8712 C   0  0  0  0  0  0  0  0  0  0  0  0
    1.1901   -9.8334    3.4720 C   0  0  0  0  0  0  0  0  0  0  0  0
   -0.3316   -8.0834    2.6762 C   0  0  0  0  0  0  0  0  0  0  0  0
    2.0166   -8.2771    1.6179 C   0  0  0  0  0  0  0  0  0  0  0  0
    2.9757   -7.2985    2.3215 C   0  0  2  0  0  0  0  0  0  0  0  0
    4.2403   -7.8840    2.5671 O   0  0  0  0  0  0  0  0  0  0  0  0
    3.0763   -5.7728    1.8835 C   0  0  1  0  0  0  0  0  0  0  0  0
    1.9740   -5.4606    0.8504 C   0  0  0  0  0  0  0  0  0  0  0  0
    4.5316   -5.4533    1.2999 C   0  0  1  0  0  0  0  0  0  0  0  0
    4.7525   -6.3137    0.1897 O   0  0  0  0  0  0  0  0  0  0  0  0
    5.2121   -4.0669    0.9551 C   0  0  2  0  0  0  0  0  0  0  0  0
    5.7351   -3.2628    2.1682 C   0  0  0  0  0  0  0  0  0  0  0  0
    5.0022   -1.9400    2.4558 C   0  0  0  0  0  0  0  0  0  0  0  0
    3.6294   -1.7814    1.7732 C   0  0  2  0  0  0  0  0  0  0  0  0
    3.3690   -0.3651    1.7893 O   0  0  0  0  0  0  0  0  0  0  0  0
    3.5829   -2.2196    0.2668 C   0  0  1  0  0  0  0  0  0  0  0  0
    3.4196   -1.1426   -0.6373 O   0  0  0  0  0  0  0  0  0  0  0  0
    4.7468   -3.1303   -0.2122 C   0  0  0  0  0  0  0  0  0  0  0  0
    5.9649   -2.2860   -0.6962 C   0  0  0  0  0  0  0  0  0  0  0  0
    4.2900   -3.9149   -1.4545 C   0  0  0  0  0  0  0  0  0  0  0  0
    0.4417    2.4021    3.3638 H   0  0  0  0  0  0  0  0  0  0  0  0
   -0.2756    0.8722    2.8649 H   0  0  0  0  0  0  0  0  0  0  0  0
    0.4063    1.9710    1.6579 H   0  0  0  0  0  0  0  0  0  0  0  0
    1.5232    0.0114    1.0216 H   0  0  0  0  0  0  0  0  0  0  0  0
    0.6154   -1.4599    3.2139 H   0  0  0  0  0  0  0  0  0  0  0  0
    1.7963   -3.3344    4.3409 H   0  0  0  0  0  0  0  0  0  0  0  0
    2.1597   -5.8794    5.0736 H   0  0  0  0  0  0  0  0  0  0  0  0
   -0.0024   -6.2686    4.6047 H   0  0  0  0  0  0  0  0  0  0  0  0
    2.6515   -7.9490    4.3351 H   0  0  0  0  0  0  0  0  0  0  0  0
    0.6997  -10.5637    2.8252 H   0  0  0  0  0  0  0  0  0  0  0  0
    0.7113   -9.8745    4.4520 H   0  0  0  0  0  0  0  0  0  0  0  0
    2.2177  -10.1764    3.6040 H   0  0  0  0  0  0  0  0  0  0  0  0
   -0.8414   -8.8354    2.0727 H   0  0  0  0  0  0  0  0  0  0  0  0
   -0.4634   -7.1380    2.1539 H   0  0  0  0  0  0  0  0  0  0  0  0
   -0.8580   -8.0134    3.6293 H   0  0  0  0  0  0  0  0  0  0  0  0
    2.4943   -9.2089    1.3170 H   0  0  0  0  0  0  0  0  0  0  0  0
    1.4305   -7.8956    0.7891 H   0  0  0  0  0  0  0  0  0  0  0  0
    4.0869   -8.8000    2.7467 H   0  0  0  0  0  0  0  0  0  0  0  0
    2.1406   -5.9237   -0.1222 H   0  0  0  0  0  0  0  0  0  0  0  0
    1.8450   -4.4007    0.7131 H   0  0  0  0  0  0  0  0  0  0  0  0
    1.0067   -5.7945    1.2172 H   0  0  0  0  0  0  0  0  0  0  0  0
    5.2270   -5.8188    2.0541 H   0  0  0  0  0  0  0  0  0  0  0  0
    4.2050   -6.0410   -0.5361 H   0  0  0  0  0  0  0  0  0  0  0  0
    6.1539   -4.4573    0.5659 H   0  0  0  0  0  0  0  0  0  0  0  0
    5.7856   -3.8815    3.0593 H   0  0  0  0  0  0  0  0  0  0  0  0
    6.7782   -3.0120    1.9817 H   0  0  0  0  0  0  0  0  0  0  0  0
    4.9227   -1.7690    3.5301 H   0  0  0  0  0  0  0  0  0  0  0  0
    5.6330   -1.1284    2.0988 H   0  0  0  0  0  0  0  0  0  0  0  0
    2.6420   -2.7218    0.0940 H   0  0  0  0  0  0  0  0  0  0  0  0
    2.4721   -0.9795   -0.7215 H   0  0  0  0  0  0  0  0  0  0  0  0
    5.7287   -1.7154   -1.5956 H   0  0  0  0  0  0  0  0  0  0  0  0
    6.8220   -2.9136   -0.9461 H   0  0  0  0  0  0  0  0  0  0  0  0
    6.2959   -1.5653    0.0472 H   0  0  0  0  0  0  0  0  0  0  0  0
    4.0255   -3.2587   -2.2864 H   0  0  0  0  0  0  0  0  0  0  0  0
    3.3977   -4.4782   -1.2070 H   0  0  0  0  0  0  0  0  0  0  0  0
    5.0530   -4.6084   -1.8189 H   0  0  0  0  0  0  0  0  0  0  0  0
  1  2  1  0
  1 32  1  0
  1 33  1  0
  1 34  1  0
  2  3  1  0
  3 26  1  0
  3  4  1  0
  3 35  1  6
  4  5  2  0
  4 36  1  0
  5 25  1  0
  5  6  1  0
  6  8  1  0
  6  7  1  0
  6 37  1  1
  8  7  1  1
  8 18  1  0
  8  9  1  0
  9 10  1  0
  9 11  1  0
  9 38  1  1
 10 39  1  0
 11 16  1  0
 11 12  1  0
 11 40  1  1
 12 13  1  0
 12 14  1  0
 12 15  1  0
 13 41  1  0
 13 42  1  0
 13 43  1  0
 14 44  1  0
 14 45  1  0
 14 46  1  0
 15 16  1  0
 15 47  1  0
 15 48  1  0
 16 17  1  1
 16 18  1  0
 17 49  1  0
 18 19  1  6
 18 20  1  0
 19 50  1  0
 19 51  1  0
 19 52  1  0
 20 21  1  0
 20 22  1  0
 20 53  1  1
 21 54  1  0
 22 29  1  0
 22 23  1  0
 22 55  1  6
 23 24  1  0
 23 56  1  0
 23 57  1  0
 24 25  1  0
 24 58  1  0
 24 59  1  0
 25 26  1  6
 25 27  1  0
 27 28  1  0
 27 29  1  0
 27 60  1  1
 28 61  1  0
 29 30  1  0
 29 31  1  0
 30 62  1  0
 30 63  1  0
 30 64  1  0
 31 65  1  0
 31 66  1  0
 31 67  1  0
M  END
>  <i_m_ct_stereo_status>  (59) 
1

>  <s_m_source_file>  (59) 
/var/tmp/pbs.5076255.sched01/tmpm7cr0ro2/0ctwvxj2z.sdf

>  <i_m_source_file_index>  (59) 
24

>  <i_lp_mmshare_version>  (59) 
48012

>  <i_f3d_flags>  (59) 
0

>  <s_epik_input>  (59) 
W0NIM11PW0NASF0oW0NIXT0xKU9bQ0BdMihDMVtDQEhdKE8zKVtDQEBdMzQ1KVtDSDJdW0NIMl1bQ0BIXShDKFtDSDNdKShbQ0gzXSlbQ0BASF0yW09IXSlbQ0BIXShbT0hdKVtDQEBdNShbQ0gzXSlbQ0BAXTYoW09IXSlbQ0BASF0oW0NAQEhdNFtPSF0pQyhbQ0gzXSkoW0NIM10pW0NIMl02

>  <s_epik_cmdline>  (59) 
J2VwaWtfcHl0aG9uJywgJy1waHQnLCAnMi4wJywgJy1waCcsICc3LjAnLCAnLXRuJywgJzgnLCAnLW1hJywgJzIwMCcsICctaW1hZScsICc8aW5maWxlLm1hZT4nLCAnLW9tYWUnLCAnPG91dGZpbGUubWFlPic=

>  <r_lp_tautomer_probability>  (59) 
1

>  <r_epik_Ionization_Penalty>  (59) 
4.26923e-07

>  <r_epik_Ionization_Penalty_Charging>  (59) 
0

>  <r_epik_Ionization_Penalty_Neutral>  (59) 
4.26923e-07

>  <r_epik_State_Penalty>  (59) 
-0

>  <r_epik_Charging_Adjusted_Penalty>  (59) 
0

>  <i_epik_Tot_Q>  (59) 
0

>  <i_epik_Tot_abs_Q>  (59) 
0

>  <s_epik_Chemistry_Notes>  (59) 
This compound contains an acetal/aminal-like group ( X-CH(R)-Y where X, Y are N, S, or O) that may be acid/base labile, releasing an aldehyde.

>  <s_lp_Force_Field>  (59) 
OPLS3e

>  <r_lp_Energy>  (59) 
98.4069

>  <b_lp_Chiralities_Consistent>  (59) 
1

>  <s_lp_Variant>  (59) 
15:0-1

>  <s_i_glide_gridfile>  (59) 
pfpi4k_grid

>  <i_i_glide_lignum>  (59) 
24

>  <i_i_glide_rotatable_bonds>  (59) 
5

>  <r_i_docking_score>  (59) 
-2.96945

>  <r_i_glide_ligand_efficiency>  (59) 
-0.0957886

>  <r_i_glide_ligand_efficiency_sa>  (59) 
-0.300908

>  <r_i_glide_ligand_efficiency_ln>  (59) 
-0.669701

>  <r_i_glide_gscore>  (59) 
-2.96945

>  <r_i_glide_lipo>  (59) 
-0.252602

>  <r_i_glide_hbond>  (59) 
0

>  <r_i_glide_metal>  (59) 
-0

>  <r_i_glide_rewards>  (59) 
-0.432692

>  <r_i_glide_evdw>  (59) 
-22.6938

>  <r_i_glide_ecoul>  (59) 
-7.30287

>  <r_i_glide_erotb>  (59) 
0

>  <r_i_glide_esite>  (59) 
-0.0540311

>  <r_i_glide_emodel>  (59) 
-35.1603

>  <r_i_glide_energy>  (59) 
-29.9967

>  <r_i_glide_einternal>  (59) 
2.71793

>  <r_i_glide_intrahb_reward>  (59) 
-0

>  <i_i_glide_confnum>  (59) 
2

>  <i_i_glide_posenum>  (59) 
11

>  <r_i_glide_eff_state_penalty>  (59) 
0

>  <ligand_id>  (59) 
15

>  <original_smiles>  (59) 
COC1C=C2C3OC34C(O)C3C(C)(C)CC3(O)C4(C)C(O)C3CCC2(O1)C(O)C3(C)C

>  <smiles>  (59) 
[H]OC1([H])C2([H])C(O[H])(C([H])([H])C2(C([H])([H])[H])C([H])([H])[H])C2(C([H])([H])[H])C([H])(O[H])C3([H])C([H])([H])C([H])([H])C4(OC([H])(OC([H])([H])[H])C([H])=C4C4([H])OC412)C([H])(O[H])C3(C([H])([H])[H])C([H])([H])[H]

$$$$
15:0:1
     RDKit          3D

 67 72  0  0  1  0  0  0  0  0999 V2000
    1.0621    1.7791    2.5837 C   0  0  0  0  0  0  0  0  0  0  0  0
    2.3365    1.1629    2.6440 O   0  0  0  0  0  0  0  0  0  0  0  0
    2.4495    0.0358    1.8281 C   0  0  2  0  0  0  0  0  0  0  0  0
    1.9226   -1.1979    2.4991 C   0  0  0  0  0  0  0  0  0  0  0  0
    2.7892   -2.1888    2.4203 C   0  0  0  0  0  0  0  0  0  0  0  0
    2.7013   -3.3647    3.3407 C   0  0  2  0  0  0  0  0  0  0  0  0
    3.8496   -4.1361    3.6738 O   0  0  0  0  0  0  0  0  0  0  0  0
    2.7838   -4.8600    3.0405 C   0  0  1  0  0  0  0  0  0  0  0  0
    1.9540   -5.7611    3.9480 C   0  0  1  0  0  0  0  0  0  0  0  0
    0.6106   -5.3391    3.9591 O   0  0  0  0  0  0  0  0  0  0  0  0
    2.1411   -7.2058    3.4679 C   0  0  1  0  0  0  0  0  0  0  0  0
    1.1051   -8.1594    2.8084 C   0  0  0  0  0  0  0  0  0  0  0  0
    1.0623   -9.5656    3.4268 C   0  0  0  0  0  0  0  0  0  0  0  0
   -0.3571   -7.7354    2.6394 C   0  0  0  0  0  0  0  0  0  0  0  0
    1.9532   -8.0836    1.5388 C   0  0  0  0  0  0  0  0  0  0  0  0
    2.9836   -7.1597    2.2174 C   0  0  2  0  0  0  0  0  0  0  0  0
    4.2124   -7.8231    2.4488 O   0  0  0  0  0  0  0  0  0  0  0  0
    3.1711   -5.6432    1.7648 C   0  0  1  0  0  0  0  0  0  0  0  0
    2.0774   -5.2809    0.7456 C   0  0  0  0  0  0  0  0  0  0  0  0
    4.6298   -5.4209    1.1636 C   0  0  1  0  0  0  0  0  0  0  0  0
    4.7769   -6.3079    0.0678 O   0  0  0  0  0  0  0  0  0  0  0  0
    5.3890   -4.0882    0.7728 C   0  0  2  0  0  0  0  0  0  0  0  0
    5.9904   -3.3070    1.9607 C   0  0  0  0  0  0  0  0  0  0  0  0
    5.3496   -1.9389    2.2538 C   0  0  0  0  0  0  0  0  0  0  0  0
    3.9772   -1.6987    1.5969 C   0  0  2  0  0  0  0  0  0  0  0  0
    3.7915   -0.2749    1.5977 O   0  0  0  0  0  0  0  0  0  0  0  0
    3.8748   -2.1473    0.1001 C   0  0  1  0  0  0  0  0  0  0  0  0
    3.7992   -1.0680   -0.8135 O   0  0  0  0  0  0  0  0  0  0  0  0
    4.9620   -3.1338   -0.3941 C   0  0  0  0  0  0  0  0  0  0  0  0
    6.2236   -2.3775   -0.9094 C   0  0  0  0  0  0  0  0  0  0  0  0
    4.4373   -3.8918   -1.6204 C   0  0  0  0  0  0  0  0  0  0  0  0
    1.0351    2.6271    3.2645 H   0  0  0  0  0  0  0  0  0  0  0  0
    0.2682    1.0924    2.8737 H   0  0  0  0  0  0  0  0  0  0  0  0
    0.8511    2.1437    1.5808 H   0  0  0  0  0  0  0  0  0  0  0  0
    1.9398    0.1804    0.8761 H   0  0  0  0  0  0  0  0  0  0  0  0
    1.0172   -1.1951    3.0988 H   0  0  0  0  0  0  0  0  0  0  0  0
    2.1149   -3.0949    4.2119 H   0  0  0  0  0  0  0  0  0  0  0  0
    2.3237   -5.6678    4.9667 H   0  0  0  0  0  0  0  0  0  0  0  0
    0.5828   -4.4752    4.3315 H   0  0  0  0  0  0  0  0  0  0  0  0
    2.6591   -7.7752    4.2309 H   0  0  0  0  0  0  0  0  0  0  0  0
    0.5118  -10.2676    2.7975 H   0  0  0  0  0  0  0  0  0  0  0  0
    0.5967   -9.5638    4.4138 H   0  0  0  0  0  0  0  0  0  0  0  0
    2.0642   -9.9712    3.5432 H   0  0  0  0  0  0  0  0  0  0  0  0
   -0.9260   -8.4608    2.0547 H   0  0  0  0  0  0  0  0  0  0  0  0
   -0.4407   -6.7896    2.1124 H   0  0  0  0  0  0  0  0  0  0  0  0
   -0.8581   -7.6208    3.6037 H   0  0  0  0  0  0  0  0  0  0  0  0
    2.3684   -9.0468    1.2507 H   0  0  0  0  0  0  0  0  0  0  0  0
    1.3890   -7.6751    0.7094 H   0  0  0  0  0  0  0  0  0  0  0  0
    4.0000   -8.7230    2.6269 H   0  0  0  0  0  0  0  0  0  0  0  0
    2.1969   -5.7644   -0.2233 H   0  0  0  0  0  0  0  0  0  0  0  0
    2.0082   -4.2164    0.5972 H   0  0  0  0  0  0  0  0  0  0  0  0
    1.1002   -5.5493    1.1337 H   0  0  0  0  0  0  0  0  0  0  0  0
    5.3184   -5.8194    1.9077 H   0  0  0  0  0  0  0  0  0  0  0  0
    4.2409   -6.0069   -0.6533 H   0  0  0  0  0  0  0  0  0  0  0  0
    6.2911   -4.5425    0.3698 H   0  0  0  0  0  0  0  0  0  0  0  0
    6.0150   -3.9175    2.8553 H   0  0  0  0  0  0  0  0  0  0  0  0
    7.0466   -3.1267    1.7385 H   0  0  0  0  0  0  0  0  0  0  0  0
    5.2959   -1.7565    3.3284 H   0  0  0  0  0  0  0  0  0  0  0  0
    6.0191   -1.1658    1.8832 H   0  0  0  0  0  0  0  0  0  0  0  0
    2.9007   -2.5874   -0.0555 H   0  0  0  0  0  0  0  0  0  0  0  0
    2.8880   -0.7976   -0.8334 H   0  0  0  0  0  0  0  0  0  0  0  0
    6.0038   -1.8039   -1.8130 H   0  0  0  0  0  0  0  0  0  0  0  0
    7.0325   -3.0625   -1.1730 H   0  0  0  0  0  0  0  0  0  0  0  0
    6.6130   -1.6721   -0.1832 H   0  0  0  0  0  0  0  0  0  0  0  0
    4.2088   -3.2253   -2.4546 H   0  0  0  0  0  0  0  0  0  0  0  0
    3.5090   -4.3784   -1.3658 H   0  0  0  0  0  0  0  0  0  0  0  0
    5.1460   -4.6401   -1.9869 H   0  0  0  0  0  0  0  0  0  0  0  0
  1  2  1  0
  1 32  1  0
  1 33  1  0
  1 34  1  0
  2  3  1  0
  3 26  1  0
  3  4  1  0
  3 35  1  6
  4  5  2  0
  4 36  1  0
  5 25  1  0
  5  6  1  0
  6  8  1  0
  6  7  1  0
  6 37  1  1
  8  7  1  1
  8 18  1  0
  8  9  1  0
  9 10  1  0
  9 11  1  0
  9 38  1  1
 10 39  1  0
 11 16  1  0
 11 12  1  0
 11 40  1  1
 12 13  1  0
 12 14  1  0
 12 15  1  0
 13 41  1  0
 13 42  1  0
 13 43  1  0
 14 44  1  0
 14 45  1  0
 14 46  1  0
 15 16  1  0
 15 47  1  0
 15 48  1  0
 16 17  1  1
 16 18  1  0
 17 49  1  0
 18 19  1  6
 18 20  1  0
 19 50  1  0
 19 51  1  0
 19 52  1  0
 20 21  1  0
 20 22  1  0
 20 53  1  1
 21 54  1  0
 22 29  1  0
 22 23  1  0
 22 55  1  6
 23 24  1  0
 23 56  1  0
 23 57  1  0
 24 25  1  0
 24 58  1  0
 24 59  1  0
 25 26  1  6
 25 27  1  0
 27 28  1  0
 27 29  1  0
 27 60  1  1
 28 61  1  0
 29 30  1  0
 29 31  1  0
 30 62  1  0
 30 63  1  0
 30 64  1  0
 31 65  1  0
 31 66  1  0
 31 67  1  0
M  END
>  <i_m_ct_stereo_status>  (60) 
1

>  <s_m_source_file>  (60) 
/var/tmp/pbs.5076255.sched01/tmpm7cr0ro2/0ctwvxj2z.sdf

>  <i_m_source_file_index>  (60) 
24

>  <i_lp_mmshare_version>  (60) 
48012

>  <i_f3d_flags>  (60) 
0

>  <s_epik_input>  (60) 
W0NIM11PW0NASF0oW0NIXT0xKU9bQ0BdMihDMVtDQEhdKE8zKVtDQEBdMzQ1KVtDSDJdW0NIMl1bQ0BIXShDKFtDSDNdKShbQ0gzXSlbQ0BASF0yW09IXSlbQ0BIXShbT0hdKVtDQEBdNShbQ0gzXSlbQ0BAXTYoW09IXSlbQ0BASF0oW0NAQEhdNFtPSF0pQyhbQ0gzXSkoW0NIM10pW0NIMl02

>  <s_epik_cmdline>  (60) 
J2VwaWtfcHl0aG9uJywgJy1waHQnLCAnMi4wJywgJy1waCcsICc3LjAnLCAnLXRuJywgJzgnLCAnLW1hJywgJzIwMCcsICctaW1hZScsICc8aW5maWxlLm1hZT4nLCAnLW9tYWUnLCAnPG91dGZpbGUubWFlPic=

>  <r_lp_tautomer_probability>  (60) 
1

>  <r_epik_Ionization_Penalty>  (60) 
4.26923e-07

>  <r_epik_Ionization_Penalty_Charging>  (60) 
0

>  <r_epik_Ionization_Penalty_Neutral>  (60) 
4.26923e-07

>  <r_epik_State_Penalty>  (60) 
-0

>  <r_epik_Charging_Adjusted_Penalty>  (60) 
0

>  <i_epik_Tot_Q>  (60) 
0

>  <i_epik_Tot_abs_Q>  (60) 
0

>  <s_epik_Chemistry_Notes>  (60) 
This compound contains an acetal/aminal-like group ( X-CH(R)-Y where X, Y are N, S, or O) that may be acid/base labile, releasing an aldehyde.

>  <s_lp_Force_Field>  (60) 
OPLS3e

>  <r_lp_Energy>  (60) 
98.4069

>  <b_lp_Chiralities_Consistent>  (60) 
1

>  <s_lp_Variant>  (60) 
15:0-1

>  <s_i_glide_gridfile>  (60) 
pfpi4k_grid

>  <i_i_glide_lignum>  (60) 
24

>  <i_i_glide_rotatable_bonds>  (60) 
5

>  <r_i_docking_score>  (60) 
-2.8084

>  <r_i_glide_ligand_efficiency>  (60) 
-0.0905935

>  <r_i_glide_ligand_efficiency_sa>  (60) 
-0.284589

>  <r_i_glide_ligand_efficiency_ln>  (60) 
-0.63338

>  <r_i_glide_gscore>  (60) 
-2.8084

>  <r_i_glide_lipo>  (60) 
-0.267497

>  <r_i_glide_hbond>  (60) 
0

>  <r_i_glide_metal>  (60) 
-0

>  <r_i_glide_rewards>  (60) 
-0.432692

>  <r_i_glide_evdw>  (60) 
-24.8206

>  <r_i_glide_ecoul>  (60) 
-5.54449

>  <r_i_glide_erotb>  (60) 
0

>  <r_i_glide_esite>  (60) 
-0.0355042

>  <r_i_glide_emodel>  (60) 
-35.2662

>  <r_i_glide_energy>  (60) 
-30.3651

>  <r_i_glide_einternal>  (60) 
2.52251

>  <r_i_glide_intrahb_reward>  (60) 
-0

>  <i_i_glide_confnum>  (60) 
1

>  <i_i_glide_posenum>  (60) 
2

>  <r_i_glide_eff_state_penalty>  (60) 
0

>  <ligand_id>  (60) 
15

>  <original_smiles>  (60) 
COC1C=C2C3OC34C(O)C3C(C)(C)CC3(O)C4(C)C(O)C3CCC2(O1)C(O)C3(C)C

>  <smiles>  (60) 
[H]OC1([H])C2([H])C(O[H])(C([H])([H])C2(C([H])([H])[H])C([H])([H])[H])C2(C([H])([H])[H])C([H])(O[H])C3([H])C([H])([H])C([H])([H])C4(OC([H])(OC([H])([H])[H])C([H])=C4C4([H])OC412)C([H])(O[H])C3(C([H])([H])[H])C([H])([H])[H]

$$$$
15:0:2
     RDKit          3D

 67 72  0  0  1  0  0  0  0  0999 V2000
    3.4653    0.8583    4.1332 C   0  0  0  0  0  0  0  0  0  0  0  0
    2.6502    1.0157    2.9759 O   0  0  0  0  0  0  0  0  0  0  0  0
    2.6737   -0.0519    2.0776 C   0  0  2  0  0  0  0  0  0  0  0  0
    2.0905   -1.2970    2.6749 C   0  0  0  0  0  0  0  0  0  0  0  0
    2.9153   -2.3246    2.5080 C   0  0  0  0  0  0  0  0  0  0  0  0
    2.7915   -3.5495    3.3608 C   0  0  2  0  0  0  0  0  0  0  0  0
    3.9193   -4.3850    3.6089 O   0  0  0  0  0  0  0  0  0  0  0  0
    2.8024   -5.0248    2.9748 C   0  0  1  0  0  0  0  0  0  0  0  0
    1.9439   -5.9415    3.8489 C   0  0  1  0  0  0  0  0  0  0  0  0
    0.6185   -5.4513    3.9417 O   0  0  0  0  0  0  0  0  0  0  0  0
    2.0486   -7.3506    3.2780 C   0  0  1  0  0  0  0  0  0  0  0  0
    0.9455   -8.2149    2.5963 C   0  0  0  0  0  0  0  0  0  0  0  0
    0.8592   -9.6517    3.1283 C   0  0  0  0  0  0  0  0  0  0  0  0
   -0.4960   -7.7067    2.5133 C   0  0  0  0  0  0  0  0  0  0  0  0
    1.7525   -8.0941    1.2995 C   0  0  0  0  0  0  0  0  0  0  0  0
    2.8535   -7.2668    1.9951 C   0  0  2  0  0  0  0  0  0  0  0  0
    4.0565   -8.0016    2.1343 O   0  0  0  0  0  0  0  0  0  0  0  0
    3.1033   -5.7397    1.6280 C   0  0  1  0  0  0  0  0  0  0  0  0
    1.9894   -5.2563    0.6819 C   0  0  0  0  0  0  0  0  0  0  0  0
    4.5517   -5.5480    0.9749 C   0  0  1  0  0  0  0  0  0  0  0  0
    4.6144   -6.3622   -0.1853 O   0  0  0  0  0  0  0  0  0  0  0  0
    5.3642   -4.2312    0.6513 C   0  0  2  0  0  0  0  0  0  0  0  0
    6.0388   -3.5559    1.8723 C   0  0  0  0  0  0  0  0  0  0  0  0
    5.4702   -2.1782    2.2640 C   0  0  0  0  0  0  0  0  0  0  0  0
    4.0886   -1.8441    1.6661 C   0  0  2  0  0  0  0  0  0  0  0  0
    3.9843   -0.4119    1.7381 O   0  0  0  0  0  0  0  0  0  0  0  0
    3.9101   -2.1887    0.1483 C   0  0  1  0  0  0  0  0  0  0  0  0
    3.8193   -1.0530   -0.6993 O   0  0  0  0  0  0  0  0  0  0  0  0
    4.9364   -3.1894   -0.4401 C   0  0  0  0  0  0  0  0  0  0  0  0
    6.2136   -2.4529   -0.9487 C   0  0  0  0  0  0  0  0  0  0  0  0
    4.3238   -3.8382   -1.6946 C   0  0  0  0  0  0  0  0  0  0  0  0
    3.3543    1.7229    4.7865 H   0  0  0  0  0  0  0  0  0  0  0  0
    4.5218    0.7776    3.8670 H   0  0  0  0  0  0  0  0  0  0  0  0
    3.1855   -0.0263    4.7081 H   0  0  0  0  0  0  0  0  0  0  0  0
    2.1065    0.2166    1.1818 H   0  0  0  0  0  0  0  0  0  0  0  0
    1.2086   -1.2778    3.2976 H   0  0  0  0  0  0  0  0  0  0  0  0
    2.2556   -3.3070    4.2757 H   0  0  0  0  0  0  0  0  0  0  0  0
    2.3557   -5.9279    4.8578 H   0  0  0  0  0  0  0  0  0  0  0  0
    0.6438   -4.6210    4.3936 H   0  0  0  0  0  0  0  0  0  0  0  0
    2.5706   -7.9886    3.9939 H   0  0  0  0  0  0  0  0  0  0  0  0
    0.2521  -10.2857    2.4809 H   0  0  0  0  0  0  0  0  0  0  0  0
    0.4313   -9.6903    4.1318 H   0  0  0  0  0  0  0  0  0  0  0  0
    1.8466  -10.1134    3.1819 H   0  0  0  0  0  0  0  0  0  0  0  0
   -1.1222   -8.3667    1.9122 H   0  0  0  0  0  0  0  0  0  0  0  0
   -0.5513   -6.7231    2.0470 H   0  0  0  0  0  0  0  0  0  0  0  0
   -0.9508   -7.6299    3.5048 H   0  0  0  0  0  0  0  0  0  0  0  0
    2.1119   -9.0548    0.9362 H   0  0  0  0  0  0  0  0  0  0  0  0
    1.1835   -7.6113    0.5105 H   0  0  0  0  0  0  0  0  0  0  0  0
    3.8090   -8.9028    2.2763 H   0  0  0  0  0  0  0  0  0  0  0  0
    2.0524   -5.6818   -0.3201 H   0  0  0  0  0  0  0  0  0  0  0  0
    1.9662   -4.1855    0.6070 H   0  0  0  0  0  0  0  0  0  0  0  0
    1.0213   -5.5065    1.1019 H   0  0  0  0  0  0  0  0  0  0  0  0
    5.2405   -6.0257    1.6703 H   0  0  0  0  0  0  0  0  0  0  0  0
    4.0701   -5.9948   -0.8642 H   0  0  0  0  0  0  0  0  0  0  0  0
    6.2353   -4.6998    0.1874 H   0  0  0  0  0  0  0  0  0  0  0  0
    6.0696   -4.2269    2.7281 H   0  0  0  0  0  0  0  0  0  0  0  0
    7.0948   -3.4140    1.6447 H   0  0  0  0  0  0  0  0  0  0  0  0
    5.4619   -2.0643    3.3510 H   0  0  0  0  0  0  0  0  0  0  0  0
    6.1684   -1.4179    1.9163 H   0  0  0  0  0  0  0  0  0  0  0  0
    2.9106   -2.5772    0.0152 H   0  0  0  0  0  0  0  0  0  0  0  0
    2.9082   -0.7826   -0.7109 H   0  0  0  0  0  0  0  0  0  0  0  0
    5.9896   -1.8137   -1.8031 H   0  0  0  0  0  0  0  0  0  0  0  0
    6.9767   -3.1552   -1.2843 H   0  0  0  0  0  0  0  0  0  0  0  0
    6.6618   -1.8143   -0.1910 H   0  0  0  0  0  0  0  0  0  0  0  0
    4.1212   -3.1017   -2.4716 H   0  0  0  0  0  0  0  0  0  0  0  0
    3.3572   -4.2638   -1.4516 H   0  0  0  0  0  0  0  0  0  0  0  0
    4.9811   -4.5992   -2.1268 H   0  0  0  0  0  0  0  0  0  0  0  0
  1  2  1  0
  1 32  1  0
  1 33  1  0
  1 34  1  0
  2  3  1  0
  3 26  1  0
  3  4  1  0
  3 35  1  6
  4  5  2  0
  4 36  1  0
  5 25  1  0
  5  6  1  0
  6  8  1  0
  6  7  1  0
  6 37  1  1
  8  7  1  1
  8 18  1  0
  8  9  1  0
  9 10  1  0
  9 11  1  0
  9 38  1  1
 10 39  1  0
 11 16  1  0
 11 12  1  0
 11 40  1  1
 12 13  1  0
 12 14  1  0
 12 15  1  0
 13 41  1  0
 13 42  1  0
 13 43  1  0
 14 44  1  0
 14 45  1  0
 14 46  1  0
 15 16  1  0
 15 47  1  0
 15 48  1  0
 16 17  1  1
 16 18  1  0
 17 49  1  0
 18 19  1  6
 18 20  1  0
 19 50  1  0
 19 51  1  0
 19 52  1  0
 20 21  1  0
 20 22  1  0
 20 53  1  1
 21 54  1  0
 22 29  1  0
 22 23  1  0
 22 55  1  6
 23 24  1  0
 23 56  1  0
 23 57  1  0
 24 25  1  0
 24 58  1  0
 24 59  1  0
 25 26  1  6
 25 27  1  0
 27 28  1  0
 27 29  1  0
 27 60  1  1
 28 61  1  0
 29 30  1  0
 29 31  1  0
 30 62  1  0
 30 63  1  0
 30 64  1  0
 31 65  1  0
 31 66  1  0
 31 67  1  0
M  END
>  <i_m_ct_stereo_status>  (61) 
1

>  <s_m_source_file>  (61) 
/var/tmp/pbs.5076255.sched01/tmpm7cr0ro2/0ctwvxj2z.sdf

>  <i_m_source_file_index>  (61) 
24

>  <i_lp_mmshare_version>  (61) 
48012

>  <i_f3d_flags>  (61) 
0

>  <s_epik_input>  (61) 
W0NIM11PW0NASF0oW0NIXT0xKU9bQ0BdMihDMVtDQEhdKE8zKVtDQEBdMzQ1KVtDSDJdW0NIMl1bQ0BIXShDKFtDSDNdKShbQ0gzXSlbQ0BASF0yW09IXSlbQ0BIXShbT0hdKVtDQEBdNShbQ0gzXSlbQ0BAXTYoW09IXSlbQ0BASF0oW0NAQEhdNFtPSF0pQyhbQ0gzXSkoW0NIM10pW0NIMl02

>  <s_epik_cmdline>  (61) 
J2VwaWtfcHl0aG9uJywgJy1waHQnLCAnMi4wJywgJy1waCcsICc3LjAnLCAnLXRuJywgJzgnLCAnLW1hJywgJzIwMCcsICctaW1hZScsICc8aW5maWxlLm1hZT4nLCAnLW9tYWUnLCAnPG91dGZpbGUubWFlPic=

>  <r_lp_tautomer_probability>  (61) 
1

>  <r_epik_Ionization_Penalty>  (61) 
4.26923e-07

>  <r_epik_Ionization_Penalty_Charging>  (61) 
0

>  <r_epik_Ionization_Penalty_Neutral>  (61) 
4.26923e-07

>  <r_epik_State_Penalty>  (61) 
-0

>  <r_epik_Charging_Adjusted_Penalty>  (61) 
0

>  <i_epik_Tot_Q>  (61) 
0

>  <i_epik_Tot_abs_Q>  (61) 
0

>  <s_epik_Chemistry_Notes>  (61) 
This compound contains an acetal/aminal-like group ( X-CH(R)-Y where X, Y are N, S, or O) that may be acid/base labile, releasing an aldehyde.

>  <s_lp_Force_Field>  (61) 
OPLS3e

>  <r_lp_Energy>  (61) 
98.4069

>  <b_lp_Chiralities_Consistent>  (61) 
1

>  <s_lp_Variant>  (61) 
15:0-1

>  <s_i_glide_gridfile>  (61) 
pfpi4k_grid

>  <i_i_glide_lignum>  (61) 
24

>  <i_i_glide_rotatable_bonds>  (61) 
5

>  <r_i_docking_score>  (61) 
-2.76861

>  <r_i_glide_ligand_efficiency>  (61) 
-0.08931

>  <r_i_glide_ligand_efficiency_sa>  (61) 
-0.280557

>  <r_i_glide_ligand_efficiency_ln>  (61) 
-0.624406

>  <r_i_glide_gscore>  (61) 
-2.76861

>  <r_i_glide_lipo>  (61) 
-0.288405

>  <r_i_glide_hbond>  (61) 
0

>  <r_i_glide_metal>  (61) 
-0

>  <r_i_glide_rewards>  (61) 
-0.432692

>  <r_i_glide_evdw>  (61) 
-24.7468

>  <r_i_glide_ecoul>  (61) 
-5.28084

>  <r_i_glide_erotb>  (61) 
0

>  <r_i_glide_esite>  (61) 
-0.0180452

>  <r_i_glide_emodel>  (61) 
-34.9238

>  <r_i_glide_energy>  (61) 
-30.0277

>  <r_i_glide_einternal>  (61) 
2.18191

>  <r_i_glide_intrahb_reward>  (61) 
-0

>  <i_i_glide_confnum>  (61) 
2

>  <i_i_glide_posenum>  (61) 
19

>  <r_i_glide_eff_state_penalty>  (61) 
0

>  <ligand_id>  (61) 
15

>  <original_smiles>  (61) 
COC1C=C2C3OC34C(O)C3C(C)(C)CC3(O)C4(C)C(O)C3CCC2(O1)C(O)C3(C)C

>  <smiles>  (61) 
[H]OC1([H])C2([H])C(O[H])(C([H])([H])C2(C([H])([H])[H])C([H])([H])[H])C2(C([H])([H])[H])C([H])(O[H])C3([H])C([H])([H])C([H])([H])C4(OC([H])(OC([H])([H])[H])C([H])=C4C4([H])OC412)C([H])(O[H])C3(C([H])([H])[H])C([H])([H])[H]

$$$$
16:0:0
     RDKit          3D

 62 69  0  0  1  0  0  0  0  0999 V2000
    1.2393    3.3746    9.4910 C   0  0  0  0  0  0  0  0  0  0  0  0
    1.3837    2.8451    8.1823 O   0  0  0  0  0  0  0  0  0  0  0  0
    0.6635    3.5030    7.1872 C   0  0  2  0  0  0  0  0  0  0  0  0
   -0.7293    3.4477    7.3083 O   0  0  0  0  0  0  0  0  0  0  0  0
   -1.3328    2.1826    7.3259 C   0  0  1  0  0  0  0  0  0  0  0  0
   -2.5516    2.2567    8.0387 O   0  0  0  0  0  0  0  0  0  0  0  0
   -1.6695    1.7577    5.8640 C   0  0  1  0  0  0  0  0  0  0  0  0
   -2.4800    2.9610    5.2402 C   0  0  0  0  0  0  0  0  0  0  0  0
   -1.6193    4.0401    4.5464 C   0  0  0  0  0  0  0  0  0  0  0  0
   -0.4322    3.4880    3.7364 C   0  0  1  0  0  0  0  0  0  0  0  0
    0.3120    4.5966    3.2816 O   0  0  0  0  0  0  0  0  0  0  0  0
    0.4124    2.4995    4.5780 C   0  0  2  0  0  0  0  0  0  0  0  0
    1.2007    3.1578    5.7612 C   0  0  2  0  0  0  0  0  0  0  0  0
    2.3878    2.2017    5.5090 C   0  0  1  0  0  0  0  0  0  0  0  0
    2.5640    0.9329    6.3953 C   0  0  0  0  0  0  0  0  0  0  0  0
    1.2129    0.2882    6.6588 C   0  0  2  0  0  0  0  0  0  0  0  0
    0.4592   -0.9041    6.2067 O   0  0  0  0  0  0  0  0  0  0  0  0
    0.5387    0.1583    5.3003 C   0  0  2  0  0  0  0  0  0  0  0  0
    1.2899   -0.3179    4.0194 C   0  0  2  0  0  0  0  0  0  0  0  0
    2.5654   -1.1995    4.0046 C   0  0  1  0  0  0  0  0  0  0  0  0
    2.6039   -2.4803    3.3485 N   0  0  0  0  0  0  0  0  0  0  0  0
    2.6641   -3.7346    3.9234 C   0  0  0  0  0  0  0  0  0  0  0  0
    2.6713   -4.5673    2.8689 C   0  0  0  0  0  0  0  0  0  0  0  0
    2.6148   -3.8150    1.6937 N   0  0  0  0  0  0  0  0  0  0  0  0
    2.5768   -2.5600    1.9908 N   0  0  0  0  0  0  0  0  0  0  0  0
    3.3216    0.0028    3.4207 C   0  0  0  0  0  0  0  0  0  0  0  0
    2.0113    0.7997    3.2477 C   0  0  1  0  0  0  0  0  0  0  0  0
    1.6468    0.9582    1.7786 C   0  0  0  0  0  0  0  0  0  0  0  0
    1.8489    2.1130    4.0474 C   0  0  1  0  0  0  0  0  0  0  0  0
   -0.5037    1.2695    4.9095 C   0  0  1  0  0  0  0  0  0  0  0  0
   -1.3117    0.6926    3.6929 C   0  0  0  0  0  0  0  0  0  0  0  0
    1.9682    2.9049   10.1558 H   0  0  0  0  0  0  0  0  0  0  0  0
    0.2416    3.1426    9.8617 H   0  0  0  0  0  0  0  0  0  0  0  0
    1.4024    4.4548    9.5437 H   0  0  0  0  0  0  0  0  0  0  0  0
    0.8579    4.5642    7.3439 H   0  0  0  0  0  0  0  0  0  0  0  0
   -0.8067    1.4537    7.9232 H   0  0  0  0  0  0  0  0  0  0  0  0
   -2.3634    2.5440    8.9234 H   0  0  0  0  0  0  0  0  0  0  0  0
   -2.3630    0.9220    5.9758 H   0  0  0  0  0  0  0  0  0  0  0  0
   -3.1853    2.6073    4.4975 H   0  0  0  0  0  0  0  0  0  0  0  0
   -3.1384    3.4414    5.9665 H   0  0  0  0  0  0  0  0  0  0  0  0
   -2.2450    4.6460    3.8926 H   0  0  0  0  0  0  0  0  0  0  0  0
   -1.2401    4.7235    5.3065 H   0  0  0  0  0  0  0  0  0  0  0  0
   -0.7971    3.0223    2.8233 H   0  0  0  0  0  0  0  0  0  0  0  0
    0.3220    4.5486    2.3112 H   0  0  0  0  0  0  0  0  0  0  0  0
    1.5738    4.1010    5.3625 H   0  0  0  0  0  0  0  0  0  0  0  0
    3.3047    2.7892    5.4787 H   0  0  0  0  0  0  0  0  0  0  0  0
    3.3169    0.2382    6.0597 H   0  0  0  0  0  0  0  0  0  0  0  0
    2.9629    1.2351    7.3654 H   0  0  0  0  0  0  0  0  0  0  0  0
    0.8271    0.5659    7.6120 H   0  0  0  0  0  0  0  0  0  0  0  0
    0.6496   -0.9217    3.3763 H   0  0  0  0  0  0  0  0  0  0  0  0
    2.8979   -1.4330    5.0147 H   0  0  0  0  0  0  0  0  0  0  0  0
    2.7078   -3.9148    4.9971 H   0  0  0  0  0  0  0  0  0  0  0  0
    2.7069   -5.6559    2.8226 H   0  0  0  0  0  0  0  0  0  0  0  0
    4.0411    0.4608    4.0977 H   0  0  0  0  0  0  0  0  0  0  0  0
    3.8187   -0.2258    2.4767 H   0  0  0  0  0  0  0  0  0  0  0  0
    2.4476    1.4756    1.2635 H   0  0  0  0  0  0  0  0  0  0  0  0
    0.7486    1.5492    1.6291 H   0  0  0  0  0  0  0  0  0  0  0  0
    1.5015   -0.0040    1.2884 H   0  0  0  0  0  0  0  0  0  0  0  0
    2.2867    2.9342    3.4842 H   0  0  0  0  0  0  0  0  0  0  0  0
   -0.7502    0.5343    2.7813 H   0  0  0  0  0  0  0  0  0  0  0  0
   -2.1364    1.3104    3.3509 H   0  0  0  0  0  0  0  0  0  0  0  0
   -1.7565   -0.2618    3.9674 H   0  0  0  0  0  0  0  0  0  0  0  0
  1  2  1  0
  1 32  1  0
  1 33  1  0
  1 34  1  0
  2  3  1  0
  3 13  1  0
  3  4  1  0
  3 35  1  1
  4  5  1  0
  5  6  1  0
  5  7  1  0
  5 36  1  1
  6 37  1  0
  7 30  1  0
  7  8  1  0
  7 38  1  1
  8  9  1  0
  8 39  1  0
  8 40  1  0
  9 10  1  0
  9 41  1  0
  9 42  1  0
 10 11  1  0
 10 12  1  0
 10 43  1  6
 11 44  1  0
 12 29  1  0
 12 30  1  1
 12 13  1  0
 13 14  1  0
 13 45  1  6
 14 29  1  0
 14 15  1  0
 14 46  1  6
 15 16  1  0
 15 47  1  0
 15 48  1  0
 16 18  1  0
 16 17  1  0
 16 49  1  1
 18 17  1  1
 18 19  1  0
 18 30  1  0
 19 27  1  0
 19 20  1  0
 19 50  1  6
 20 21  1  0
 20 26  1  0
 20 51  1  1
 21 25  1  0
 21 22  1  0
 22 23  2  0
 22 52  1  0
 23 24  1  0
 23 53  1  0
 24 25  2  0
 26 27  1  0
 26 54  1  0
 26 55  1  0
 27 28  1  6
 27 29  1  0
 28 56  1  0
 28 57  1  0
 28 58  1  0
 29 59  1  6
 30 31  1  6
 31 60  1  0
 31 61  1  0
 31 62  1  0
M  END
>  <i_m_ct_stereo_status>  (62) 
1

>  <s_m_source_file>  (62) 
/var/tmp/pbs.5076255.sched01/tmpm7cr0ro2/0ctwvxj2z.sdf

>  <i_m_source_file_index>  (62) 
25

>  <i_lp_mmshare_version>  (62) 
48012

>  <i_f3d_flags>  (62) 
0

>  <s_epik_input>  (62) 
W0NIM11PW0NAQEhdMU9bQ0BASF0oW09IXSlbQ0BASF0oW0NIMl1bQ0gyXVtDQEhdMltPSF0pW0NAXTMoW0NIM10pW0NAXTQoW0NAQEhdKE80KVtDSDJdNSlbQ0BASF0oW0NAQF02KFtDSDNdKVtDQEBIXTdbQ0BIXTVbQ0BIXTFbQ0BdMjM3KVtDQEhdKFtDSDJdNiluOFtjSF1bY0hdbm44

>  <s_epik_cmdline>  (62) 
J2VwaWtfcHl0aG9uJywgJy1waHQnLCAnMi4wJywgJy1waCcsICc3LjAnLCAnLXRuJywgJzgnLCAnLW1hJywgJzIwMCcsICctaW1hZScsICc8aW5maWxlLm1hZT4nLCAnLW9tYWUnLCAnPG91dGZpbGUubWFlPic=

>  <r_lp_tautomer_probability>  (62) 
1

>  <r_epik_Ionization_Penalty>  (62) 
1.52811e-05

>  <r_epik_Ionization_Penalty_Charging>  (62) 
0

>  <r_epik_Ionization_Penalty_Neutral>  (62) 
1.52811e-05

>  <r_epik_State_Penalty>  (62) 
-0

>  <r_epik_Charging_Adjusted_Penalty>  (62) 
0

>  <i_epik_Tot_Q>  (62) 
0

>  <i_epik_Tot_abs_Q>  (62) 
0

>  <s_epik_Chemistry_Notes>  (62) 
This compound contains an acetal/aminal-like group ( X-CH(R)-Y where X, Y are N, S, or O) that may be acid/base labile, releasing an aldehyde.

>  <s_lp_Force_Field>  (62) 
OPLS3e

>  <r_lp_Energy>  (62) 
138.284

>  <b_lp_Chiralities_Consistent>  (62) 
1

>  <s_lp_Variant>  (62) 
16:0-1

>  <s_i_glide_gridfile>  (62) 
pfpi4k_grid

>  <i_i_glide_lignum>  (62) 
25

>  <i_i_glide_rotatable_bonds>  (62) 
4

>  <r_i_docking_score>  (62) 
-2.42402

>  <r_i_glide_ligand_efficiency>  (62) 
-0.0781942

>  <r_i_glide_ligand_efficiency_sa>  (62) 
-0.245638

>  <r_i_glide_ligand_efficiency_ln>  (62) 
-0.546691

>  <r_i_glide_gscore>  (62) 
-2.42402

>  <r_i_glide_lipo>  (62) 
-0.00053524

>  <r_i_glide_hbond>  (62) 
-0.16

>  <r_i_glide_metal>  (62) 
-0

>  <r_i_glide_rewards>  (62) 
-0.480618

>  <r_i_glide_evdw>  (62) 
-17.7828

>  <r_i_glide_ecoul>  (62) 
-6.4288

>  <r_i_glide_erotb>  (62) 
0.107726

>  <r_i_glide_esite>  (62) 
-0.0371314

>  <r_i_glide_emodel>  (62) 
-27.0069

>  <r_i_glide_energy>  (62) 
-24.2116

>  <r_i_glide_einternal>  (62) 
1.96309

>  <r_i_glide_intrahb_reward>  (62) 
-0

>  <i_i_glide_confnum>  (62) 
1

>  <i_i_glide_posenum>  (62) 
8

>  <r_i_glide_eff_state_penalty>  (62) 
0

>  <ligand_id>  (62) 
16

>  <original_smiles>  (62) 
COC1OC(O)C2CCC(O)C34C1C1CC5OC5(C5C(n6ccnn6)CC5(C)C13)C24C

>  <smiles>  (62) 
[H]OC1([H])OC([H])(OC([H])([H])[H])C2([H])C3([H])C([H])([H])C4([H])OC45C4([H])C([H])(n6nnc([H])c6[H])C([H])([H])C4(C([H])([H])[H])C3([H])C23C([H])(O[H])C([H])([H])C([H])([H])C1([H])C53C([H])([H])[H]

$$$$
16:0:1
     RDKit          3D

 62 69  0  0  1  0  0  0  0  0999 V2000
    2.8951    4.3784    8.4568 C   0  0  0  0  0  0  0  0  0  0  0  0
    2.4916    3.7169    7.2677 O   0  0  0  0  0  0  0  0  0  0  0  0
    1.1839    3.9680    6.8582 C   0  0  2  0  0  0  0  0  0  0  0  0
    0.1833    3.5212    7.7362 O   0  0  0  0  0  0  0  0  0  0  0  0
    0.1099    2.1514    8.0057 C   0  0  1  0  0  0  0  0  0  0  0  0
   -0.4817    1.9651    9.2712 O   0  0  0  0  0  0  0  0  0  0  0  0
   -0.7784    1.4407    6.9444 C   0  0  1  0  0  0  0  0  0  0  0  0
   -2.1378    2.2415    6.9033 C   0  0  0  0  0  0  0  0  0  0  0  0
   -2.1752    3.4229    5.9051 C   0  0  0  0  0  0  0  0  0  0  0  0
   -1.4813    3.1480    4.5560 C   0  0  1  0  0  0  0  0  0  0  0  0
   -1.4776    4.3623    3.8199 O   0  0  0  0  0  0  0  0  0  0  0  0
   -0.0557    2.5779    4.7639 C   0  0  2  0  0  0  0  0  0  0  0  0
    0.9693    3.6083    5.3546 C   0  0  2  0  0  0  0  0  0  0  0  0
    2.0841    3.0225    4.4576 C   0  0  1  0  0  0  0  0  0  0  0  0
    3.0987    1.9963    5.0550 C   0  0  0  0  0  0  0  0  0  0  0  0
    2.3935    1.0177    5.9827 C   0  0  2  0  0  0  0  0  0  0  0  0
    1.9604   -0.3863    5.9544 O   0  0  0  0  0  0  0  0  0  0  0  0
    1.1932    0.4959    5.1960 C   0  0  2  0  0  0  0  0  0  0  0  0
    1.2643    0.0858    3.6929 C   0  0  2  0  0  0  0  0  0  0  0  0
    2.5582   -0.3523    2.9546 C   0  0  1  0  0  0  0  0  0  0  0  0
    2.6449   -1.6312    2.3006 N   0  0  0  0  0  0  0  0  0  0  0  0
    3.0868   -1.9099    1.0167 C   0  0  0  0  0  0  0  0  0  0  0  0
    3.0252   -3.2683    0.9450 C   0  0  0  0  0  0  0  0  0  0  0  0
    2.6085   -3.7608    2.1743 N   0  0  0  0  0  0  0  0  0  0  0  0
    2.3936   -2.7737    2.9840 N   0  0  0  0  0  0  0  0  0  0  0  0
    2.4385    0.9260    2.1075 C   0  0  0  0  0  0  0  0  0  0  0  0
    1.0593    1.2545    2.7132 C   0  0  1  0  0  0  0  0  0  0  0  0
   -0.0527    1.0917    1.6795 C   0  0  0  0  0  0  0  0  0  0  0  0
    0.9220    2.5641    3.5233 C   0  0  1  0  0  0  0  0  0  0  0  0
   -0.2001    1.1817    5.4860 C   0  0  1  0  0  0  0  0  0  0  0  0
   -1.2880    0.2159    4.8826 C   0  0  0  0  0  0  0  0  0  0  0  0
    3.9690    4.2446    8.6006 H   0  0  0  0  0  0  0  0  0  0  0  0
    2.3825    3.9442    9.3136 H   0  0  0  0  0  0  0  0  0  0  0  0
    2.7071    5.4541    8.4348 H   0  0  0  0  0  0  0  0  0  0  0  0
    1.0677    5.0516    6.9254 H   0  0  0  0  0  0  0  0  0  0  0  0
    1.0638    1.6989    8.1812 H   0  0  0  0  0  0  0  0  0  0  0  0
   -1.2691    2.4860    9.3028 H   0  0  0  0  0  0  0  0  0  0  0  0
   -0.9799    0.4584    7.3744 H   0  0  0  0  0  0  0  0  0  0  0  0
   -2.9650    1.5793    6.6693 H   0  0  0  0  0  0  0  0  0  0  0  0
   -2.4287    2.6172    7.8840 H   0  0  0  0  0  0  0  0  0  0  0  0
   -3.2068    3.7346    5.7394 H   0  0  0  0  0  0  0  0  0  0  0  0
   -1.6933    4.2800    6.3738 H   0  0  0  0  0  0  0  0  0  0  0  0
   -2.0922    2.4691    3.9645 H   0  0  0  0  0  0  0  0  0  0  0  0
   -1.0112    4.2202    3.0024 H   0  0  0  0  0  0  0  0  0  0  0  0
    0.7515    4.5620    4.8753 H   0  0  0  0  0  0  0  0  0  0  0  0
    2.6171    3.8365    3.9596 H   0  0  0  0  0  0  0  0  0  0  0  0
    3.7474    1.5198    4.3310 H   0  0  0  0  0  0  0  0  0  0  0  0
    3.8286    2.5413    5.6589 H   0  0  0  0  0  0  0  0  0  0  0  0
    2.4939    1.3076    7.0076 H   0  0  0  0  0  0  0  0  0  0  0  0
    0.5979   -0.7532    3.4870 H   0  0  0  0  0  0  0  0  0  0  0  0
    3.4227   -0.3535    3.6146 H   0  0  0  0  0  0  0  0  0  0  0  0
    3.3700   -1.1595    0.2991 H   0  0  0  0  0  0  0  0  0  0  0  0
    3.2507   -3.9178    0.1142 H   0  0  0  0  0  0  0  0  0  0  0  0
    3.2109    1.6673    2.3030 H   0  0  0  0  0  0  0  0  0  0  0  0
    2.3865    0.7250    1.0373 H   0  0  0  0  0  0  0  0  0  0  0  0
    0.1187    1.7455    0.8300 H   0  0  0  0  0  0  0  0  0  0  0  0
   -1.0322    1.3511    2.0726 H   0  0  0  0  0  0  0  0  0  0  0  0
   -0.0931    0.0741    1.2956 H   0  0  0  0  0  0  0  0  0  0  0  0
    0.7088    3.3829    2.8417 H   0  0  0  0  0  0  0  0  0  0  0  0
   -1.2697    0.1144    3.8055 H   0  0  0  0  0  0  0  0  0  0  0  0
   -2.3185    0.4915    5.0682 H   0  0  0  0  0  0  0  0  0  0  0  0
   -1.1667   -0.7818    5.3017 H   0  0  0  0  0  0  0  0  0  0  0  0
  1  2  1  0
  1 32  1  0
  1 33  1  0
  1 34  1  0
  2  3  1  0
  3 13  1  0
  3  4  1  0
  3 35  1  6
  4  5  1  0
  5  6  1  0
  5  7  1  0
  5 36  1  1
  6 37  1  0
  7 30  1  0
  7  8  1  0
  7 38  1  1
  8  9  1  0
  8 39  1  0
  8 40  1  0
  9 10  1  0
  9 41  1  0
  9 42  1  0
 10 11  1  0
 10 12  1  0
 10 43  1  6
 11 44  1  0
 12 29  1  0
 12 30  1  1
 12 13  1  0
 13 14  1  0
 13 45  1  6
 14 29  1  0
 14 15  1  0
 14 46  1  6
 15 16  1  0
 15 47  1  0
 15 48  1  0
 16 18  1  0
 16 17  1  0
 16 49  1  1
 18 17  1  1
 18 19  1  0
 18 30  1  0
 19 27  1  0
 19 20  1  0
 19 50  1  1
 20 21  1  0
 20 26  1  0
 20 51  1  1
 21 25  1  0
 21 22  1  0
 22 23  2  0
 22 52  1  0
 23 24  1  0
 23 53  1  0
 24 25  2  0
 26 27  1  0
 26 54  1  0
 26 55  1  0
 27 28  1  6
 27 29  1  0
 28 56  1  0
 28 57  1  0
 28 58  1  0
 29 59  1  6
 30 31  1  6
 31 60  1  0
 31 61  1  0
 31 62  1  0
M  END
>  <i_m_ct_stereo_status>  (63) 
1

>  <s_m_source_file>  (63) 
/var/tmp/pbs.5076255.sched01/tmpm7cr0ro2/0ctwvxj2z.sdf

>  <i_m_source_file_index>  (63) 
25

>  <i_lp_mmshare_version>  (63) 
48012

>  <i_f3d_flags>  (63) 
0

>  <s_epik_input>  (63) 
W0NIM11PW0NAQEhdMU9bQ0BASF0oW09IXSlbQ0BASF0oW0NIMl1bQ0gyXVtDQEhdMltPSF0pW0NAXTMoW0NIM10pW0NAXTQoW0NAQEhdKE80KVtDSDJdNSlbQ0BASF0oW0NAQF02KFtDSDNdKVtDQEBIXTdbQ0BIXTVbQ0BIXTFbQ0BdMjM3KVtDQEhdKFtDSDJdNiluOFtjSF1bY0hdbm44

>  <s_epik_cmdline>  (63) 
J2VwaWtfcHl0aG9uJywgJy1waHQnLCAnMi4wJywgJy1waCcsICc3LjAnLCAnLXRuJywgJzgnLCAnLW1hJywgJzIwMCcsICctaW1hZScsICc8aW5maWxlLm1hZT4nLCAnLW9tYWUnLCAnPG91dGZpbGUubWFlPic=

>  <r_lp_tautomer_probability>  (63) 
1

>  <r_epik_Ionization_Penalty>  (63) 
1.52811e-05

>  <r_epik_Ionization_Penalty_Charging>  (63) 
0

>  <r_epik_Ionization_Penalty_Neutral>  (63) 
1.52811e-05

>  <r_epik_State_Penalty>  (63) 
-0

>  <r_epik_Charging_Adjusted_Penalty>  (63) 
0

>  <i_epik_Tot_Q>  (63) 
0

>  <i_epik_Tot_abs_Q>  (63) 
0

>  <s_epik_Chemistry_Notes>  (63) 
This compound contains an acetal/aminal-like group ( X-CH(R)-Y where X, Y are N, S, or O) that may be acid/base labile, releasing an aldehyde.

>  <s_lp_Force_Field>  (63) 
OPLS3e

>  <r_lp_Energy>  (63) 
138.284

>  <b_lp_Chiralities_Consistent>  (63) 
1

>  <s_lp_Variant>  (63) 
16:0-1

>  <s_i_glide_gridfile>  (63) 
pfpi4k_grid

>  <i_i_glide_lignum>  (63) 
25

>  <i_i_glide_rotatable_bonds>  (63) 
4

>  <r_i_docking_score>  (63) 
-2.11409

>  <r_i_glide_ligand_efficiency>  (63) 
-0.0681964

>  <r_i_glide_ligand_efficiency_sa>  (63) 
-0.214231

>  <r_i_glide_ligand_efficiency_ln>  (63) 
-0.476792

>  <r_i_glide_gscore>  (63) 
-2.11409

>  <r_i_glide_lipo>  (63) 
-0.0311606

>  <r_i_glide_hbond>  (63) 
-0.0940934

>  <r_i_glide_metal>  (63) 
-0

>  <r_i_glide_rewards>  (63) 
-0.480618

>  <r_i_glide_evdw>  (63) 
-20.9655

>  <r_i_glide_ecoul>  (63) 
-3.62899

>  <r_i_glide_erotb>  (63) 
0.107726

>  <r_i_glide_esite>  (63) 
-0.0233176

>  <r_i_glide_emodel>  (63) 
-27.4232

>  <r_i_glide_energy>  (63) 
-24.5945

>  <r_i_glide_einternal>  (63) 
1.03432

>  <r_i_glide_intrahb_reward>  (63) 
-0

>  <i_i_glide_confnum>  (63) 
1

>  <i_i_glide_posenum>  (63) 
32

>  <r_i_glide_eff_state_penalty>  (63) 
0

>  <ligand_id>  (63) 
16

>  <original_smiles>  (63) 
COC1OC(O)C2CCC(O)C34C1C1CC5OC5(C5C(n6ccnn6)CC5(C)C13)C24C

>  <smiles>  (63) 
[H]OC1([H])OC([H])(OC([H])([H])[H])C2([H])C3([H])C([H])([H])C4([H])OC45C4([H])C([H])(n6nnc([H])c6[H])C([H])([H])C4(C([H])([H])[H])C3([H])C23C([H])(O[H])C([H])([H])C([H])([H])C1([H])C53C([H])([H])[H]

$$$$
16:0:2
     RDKit          3D

 62 69  0  0  1  0  0  0  0  0999 V2000
    2.4705    4.6033    8.6663 C   0  0  0  0  0  0  0  0  0  0  0  0
    2.1777    3.9383    7.4460 O   0  0  0  0  0  0  0  0  0  0  0  0
    0.8619    4.0483    7.0055 C   0  0  2  0  0  0  0  0  0  0  0  0
   -0.0999    3.4590    7.8421 O   0  0  0  0  0  0  0  0  0  0  0  0
   -0.0181    2.0826    8.0669 C   0  0  1  0  0  0  0  0  0  0  0  0
   -0.6164    1.7868    9.3076 O   0  0  0  0  0  0  0  0  0  0  0  0
   -0.7880    1.3064    6.9599 C   0  0  1  0  0  0  0  0  0  0  0  0
   -2.2303    1.9430    6.9050 C   0  0  0  0  0  0  0  0  0  0  0  0
   -2.3852    3.1464    5.9429 C   0  0  0  0  0  0  0  0  0  0  0  0
   -1.6308    2.9957    4.6073 C   0  0  1  0  0  0  0  0  0  0  0  0
   -1.7530    4.2223    3.9024 O   0  0  0  0  0  0  0  0  0  0  0  0
   -0.1522    2.5926    4.8347 C   0  0  2  0  0  0  0  0  0  0  0  0
    0.7274    3.7175    5.4848 C   0  0  2  0  0  0  0  0  0  0  0  0
    1.9257    3.2964    4.6030 C   0  0  1  0  0  0  0  0  0  0  0  0
    3.0404    2.3765    5.2007 C   0  0  0  0  0  0  0  0  0  0  0  0
    2.4360    1.2881    6.0763 C   0  0  2  0  0  0  0  0  0  0  0  0
    2.1728   -0.1542    5.9881 O   0  0  0  0  0  0  0  0  0  0  0  0
    1.3267    0.6601    5.2400 C   0  0  2  0  0  0  0  0  0  0  0  0
    1.4815    0.3162    3.7267 C   0  0  2  0  0  0  0  0  0  0  0  0
    2.8319    0.0541    3.0117 C   0  0  1  0  0  0  0  0  0  0  0  0
    3.0601   -1.1894    2.3235 N   0  0  0  0  0  0  0  0  0  0  0  0
    2.8853   -2.4725    2.8116 C   0  0  0  0  0  0  0  0  0  0  0  0
    3.2851   -3.2625    1.7737 C   0  0  0  0  0  0  0  0  0  0  0  0
    3.7450   -2.4472    0.7466 N   0  0  0  0  0  0  0  0  0  0  0  0
    3.6205   -1.2088    1.0894 N   0  0  0  0  0  0  0  0  0  0  0  0
    2.5885    1.3418    2.2024 C   0  0  0  0  0  0  0  0  0  0  0  0
    1.1635    1.4816    2.7731 C   0  0  1  0  0  0  0  0  0  0  0  0
    0.1061    1.2127    1.7040 C   0  0  0  0  0  0  0  0  0  0  0  0
    0.8497    2.7380    3.6182 C   0  0  1  0  0  0  0  0  0  0  0  0
   -0.1466    1.1656    5.5098 C   0  0  1  0  0  0  0  0  0  0  0  0
   -1.0979    0.0996    4.8484 C   0  0  0  0  0  0  0  0  0  0  0  0
    3.5479    4.5954    8.8374 H   0  0  0  0  0  0  0  0  0  0  0  0
    1.9930    4.0842    9.4960 H   0  0  0  0  0  0  0  0  0  0  0  0
    2.1547    5.6491    8.6721 H   0  0  0  0  0  0  0  0  0  0  0  0
    0.6167    5.1089    7.1010 H   0  0  0  0  0  0  0  0  0  0  0  0
    0.9773    1.7411    8.2585 H   0  0  0  0  0  0  0  0  0  0  0  0
   -1.4390    2.2488    9.3478 H   0  0  0  0  0  0  0  0  0  0  0  0
   -0.8816    0.2940    7.3530 H   0  0  0  0  0  0  0  0  0  0  0  0
   -2.9635    1.1924    6.6295 H   0  0  0  0  0  0  0  0  0  0  0  0
   -2.5882    2.2469    7.8877 H   0  0  0  0  0  0  0  0  0  0  0  0
   -3.4427    3.3393    5.7553 H   0  0  0  0  0  0  0  0  0  0  0  0
   -2.0251    4.0409    6.4483 H   0  0  0  0  0  0  0  0  0  0  0  0
   -2.1429    2.2695    3.9803 H   0  0  0  0  0  0  0  0  0  0  0  0
   -1.2865    4.1422    3.0780 H   0  0  0  0  0  0  0  0  0  0  0  0
    0.4103    4.6540    5.0301 H   0  0  0  0  0  0  0  0  0  0  0  0
    2.3731    4.1847    4.1491 H   0  0  0  0  0  0  0  0  0  0  0  0
    3.7610    2.0019    4.4835 H   0  0  0  0  0  0  0  0  0  0  0  0
    3.6857    2.9830    5.8418 H   0  0  0  0  0  0  0  0  0  0  0  0
    2.4729    1.5542    7.1137 H   0  0  0  0  0  0  0  0  0  0  0  0
    0.9261   -0.5882    3.4775 H   0  0  0  0  0  0  0  0  0  0  0  0
    3.6843    0.1255    3.6823 H   0  0  0  0  0  0  0  0  0  0  0  0
    2.5142   -2.6892    3.7995 H   0  0  0  0  0  0  0  0  0  0  0  0
    3.3083   -4.3371    1.6870 H   0  0  0  0  0  0  0  0  0  0  0  0
    3.2541    2.1681    2.4520 H   0  0  0  0  0  0  0  0  0  0  0  0
    2.5947    1.1793    1.1231 H   0  0  0  0  0  0  0  0  0  0  0  0
    0.2154    1.9049    0.8791 H   0  0  0  0  0  0  0  0  0  0  0  0
   -0.9074    1.3467    2.0728 H   0  0  0  0  0  0  0  0  0  0  0  0
    0.1950    0.2067    1.2917 H   0  0  0  0  0  0  0  0  0  0  0  0
    0.5599    3.5485    2.9503 H   0  0  0  0  0  0  0  0  0  0  0  0
   -1.0371    0.0331    3.7688 H   0  0  0  0  0  0  0  0  0  0  0  0
   -2.1605    0.2473    5.0086 H   0  0  0  0  0  0  0  0  0  0  0  0
   -0.8718   -0.8895    5.2435 H   0  0  0  0  0  0  0  0  0  0  0  0
  1  2  1  0
  1 32  1  0
  1 33  1  0
  1 34  1  0
  2  3  1  0
  3 13  1  0
  3  4  1  0
  3 35  1  6
  4  5  1  0
  5  6  1  0
  5  7  1  0
  5 36  1  1
  6 37  1  0
  7 30  1  0
  7  8  1  0
  7 38  1  1
  8  9  1  0
  8 39  1  0
  8 40  1  0
  9 10  1  0
  9 41  1  0
  9 42  1  0
 10 11  1  0
 10 12  1  0
 10 43  1  6
 11 44  1  0
 12 29  1  0
 12 30  1  1
 12 13  1  0
 13 14  1  0
 13 45  1  6
 14 29  1  0
 14 15  1  0
 14 46  1  6
 15 16  1  0
 15 47  1  0
 15 48  1  0
 16 18  1  0
 16 17  1  0
 16 49  1  1
 18 17  1  1
 18 19  1  0
 18 30  1  0
 19 27  1  0
 19 20  1  0
 19 50  1  6
 20 21  1  0
 20 26  1  0
 20 51  1  1
 21 25  1  0
 21 22  1  0
 22 23  2  0
 22 52  1  0
 23 24  1  0
 23 53  1  0
 24 25  2  0
 26 27  1  0
 26 54  1  0
 26 55  1  0
 27 28  1  6
 27 29  1  0
 28 56  1  0
 28 57  1  0
 28 58  1  0
 29 59  1  6
 30 31  1  6
 31 60  1  0
 31 61  1  0
 31 62  1  0
M  END
>  <i_m_ct_stereo_status>  (64) 
1

>  <s_m_source_file>  (64) 
/var/tmp/pbs.5076255.sched01/tmpm7cr0ro2/0ctwvxj2z.sdf

>  <i_m_source_file_index>  (64) 
25

>  <i_lp_mmshare_version>  (64) 
48012

>  <i_f3d_flags>  (64) 
0

>  <s_epik_input>  (64) 
W0NIM11PW0NAQEhdMU9bQ0BASF0oW09IXSlbQ0BASF0oW0NIMl1bQ0gyXVtDQEhdMltPSF0pW0NAXTMoW0NIM10pW0NAXTQoW0NAQEhdKE80KVtDSDJdNSlbQ0BASF0oW0NAQF02KFtDSDNdKVtDQEBIXTdbQ0BIXTVbQ0BIXTFbQ0BdMjM3KVtDQEhdKFtDSDJdNiluOFtjSF1bY0hdbm44

>  <s_epik_cmdline>  (64) 
J2VwaWtfcHl0aG9uJywgJy1waHQnLCAnMi4wJywgJy1waCcsICc3LjAnLCAnLXRuJywgJzgnLCAnLW1hJywgJzIwMCcsICctaW1hZScsICc8aW5maWxlLm1hZT4nLCAnLW9tYWUnLCAnPG91dGZpbGUubWFlPic=

>  <r_lp_tautomer_probability>  (64) 
1

>  <r_epik_Ionization_Penalty>  (64) 
1.52811e-05

>  <r_epik_Ionization_Penalty_Charging>  (64) 
0

>  <r_epik_Ionization_Penalty_Neutral>  (64) 
1.52811e-05

>  <r_epik_State_Penalty>  (64) 
-0

>  <r_epik_Charging_Adjusted_Penalty>  (64) 
0

>  <i_epik_Tot_Q>  (64) 
0

>  <i_epik_Tot_abs_Q>  (64) 
0

>  <s_epik_Chemistry_Notes>  (64) 
This compound contains an acetal/aminal-like group ( X-CH(R)-Y where X, Y are N, S, or O) that may be acid/base labile, releasing an aldehyde.

>  <s_lp_Force_Field>  (64) 
OPLS3e

>  <r_lp_Energy>  (64) 
138.284

>  <b_lp_Chiralities_Consistent>  (64) 
1

>  <s_lp_Variant>  (64) 
16:0-1

>  <s_i_glide_gridfile>  (64) 
pfpi4k_grid

>  <i_i_glide_lignum>  (64) 
25

>  <i_i_glide_rotatable_bonds>  (64) 
4

>  <r_i_docking_score>  (64) 
-2.05743

>  <r_i_glide_ligand_efficiency>  (64) 
-0.0663686

>  <r_i_glide_ligand_efficiency_sa>  (64) 
-0.208489

>  <r_i_glide_ligand_efficiency_ln>  (64) 
-0.464013

>  <r_i_glide_gscore>  (64) 
-2.05743

>  <r_i_glide_lipo>  (64) 
-0.0647403

>  <r_i_glide_hbond>  (64) 
-0.0820379

>  <r_i_glide_metal>  (64) 
-0

>  <r_i_glide_rewards>  (64) 
-0.480618

>  <r_i_glide_evdw>  (64) 
-21.3581

>  <r_i_glide_ecoul>  (64) 
-2.76477

>  <r_i_glide_erotb>  (64) 
0.107726

>  <r_i_glide_esite>  (64) 
-0.055134

>  <r_i_glide_emodel>  (64) 
-26.805

>  <r_i_glide_energy>  (64) 
-24.1229

>  <r_i_glide_einternal>  (64) 
1.13298

>  <r_i_glide_intrahb_reward>  (64) 
-0

>  <i_i_glide_confnum>  (64) 
3

>  <i_i_glide_posenum>  (64) 
31

>  <r_i_glide_eff_state_penalty>  (64) 
0

>  <ligand_id>  (64) 
16

>  <original_smiles>  (64) 
COC1OC(O)C2CCC(O)C34C1C1CC5OC5(C5C(n6ccnn6)CC5(C)C13)C24C

>  <smiles>  (64) 
[H]OC1([H])OC([H])(OC([H])([H])[H])C2([H])C3([H])C([H])([H])C4([H])OC45C4([H])C([H])(n6nnc([H])c6[H])C([H])([H])C4(C([H])([H])[H])C3([H])C23C([H])(O[H])C([H])([H])C([H])([H])C1([H])C53C([H])([H])[H]

$$$$
17:0:0
     RDKit          3D

 50 54  0  0  1  0  0  0  0  0999 V2000
    2.9484    0.3784    1.8076 C   0  0  0  0  0  0  0  0  0  0  0  0
    3.7683   -0.9206    1.8612 C   0  0  1  0  0  0  0  0  0  0  0  0
    3.5211   -1.6905    3.3070 C   0  0  0  0  0  0  0  0  0  0  0  0
    4.4702   -2.9090    3.9415 C   0  0  0  0  0  0  0  0  0  0  0  0
    5.1861   -4.1967    3.1864 C   0  0  1  0  0  0  0  0  0  0  0  0
    5.7349   -5.0274    4.1944 O   0  0  0  0  0  0  0  0  0  0  0  0
    4.3080   -5.0153    2.1388 C   0  0  2  0  0  0  0  0  0  0  0  0
    3.6156   -6.1437    2.9706 C   0  0  0  0  0  0  0  0  0  0  0  0
    4.4494   -5.3708    0.5041 C   0  0  2  0  0  0  0  0  0  0  0  0
    5.0675   -4.6752   -0.8434 C   0  0  0  0  0  0  0  0  0  0  0  0
    4.8741   -3.1694   -1.4578 C   0  0  2  0  0  0  0  0  0  0  0  0
    4.2658   -1.8076   -0.8613 C   0  0  2  0  0  0  0  0  0  0  0  0
    3.5498   -1.7804    0.5291 C   0  0  1  0  0  0  0  0  0  0  0  0
    4.3917   -2.7600    1.1188 C   0  0  1  0  0  0  0  0  0  0  0  0
    5.5051   -2.0174    1.7126 O   0  0  0  0  0  0  0  0  0  0  0  0
    5.2281   -0.6558    1.8558 C   0  0  0  0  0  0  0  0  0  0  0  0
    3.4671   -3.9264    1.6004 C   0  0  1  0  0  0  0  0  0  0  0  0
    3.0154   -4.9198    0.5273 C   0  0  0  0  0  0  0  0  0  0  0  0
    1.9420   -5.2910    0.0546 O   0  0  0  0  0  0  0  0  0  0  0  0
    3.7081   -2.4798   -2.1288 C   0  0  0  0  0  0  0  0  0  0  0  0
    3.9963   -1.8186   -3.4695 C   0  0  0  0  0  0  0  0  0  0  0  0
    2.2967   -3.0295   -2.1885 C   0  0  0  0  0  0  0  0  0  0  0  0
    3.1762    1.0345    2.6490 H   0  0  0  0  0  0  0  0  0  0  0  0
    1.8788    0.1623    1.8351 H   0  0  0  0  0  0  0  0  0  0  0  0
    3.1471    0.9362    0.8914 H   0  0  0  0  0  0  0  0  0  0  0  0
    3.5565   -0.9101    4.0696 H   0  0  0  0  0  0  0  0  0  0  0  0
    2.4765   -2.0049    3.3383 H   0  0  0  0  0  0  0  0  0  0  0  0
    5.2982   -2.4006    4.4373 H   0  0  0  0  0  0  0  0  0  0  0  0
    3.8820   -3.3296    4.7582 H   0  0  0  0  0  0  0  0  0  0  0  0
    6.1161   -3.9171    2.6967 H   0  0  0  0  0  0  0  0  0  0  0  0
    6.2668   -5.6822    3.7694 H   0  0  0  0  0  0  0  0  0  0  0  0
    2.8548   -6.6988    2.4194 H   0  0  0  0  0  0  0  0  0  0  0  0
    3.1333   -5.7465    3.8661 H   0  0  0  0  0  0  0  0  0  0  0  0
    4.3397   -6.8935    3.2888 H   0  0  0  0  0  0  0  0  0  0  0  0
    4.5154   -6.4587    0.4197 H   0  0  0  0  0  0  0  0  0  0  0  0
    6.1443   -4.7257   -0.6878 H   0  0  0  0  0  0  0  0  0  0  0  0
    4.9316   -5.3558   -1.6799 H   0  0  0  0  0  0  0  0  0  0  0  0
    5.8002   -2.9801   -1.9970 H   0  0  0  0  0  0  0  0  0  0  0  0
    4.8551   -0.9105   -1.0460 H   0  0  0  0  0  0  0  0  0  0  0  0
    2.5001   -2.0501    0.4335 H   0  0  0  0  0  0  0  0  0  0  0  0
    5.3255   -3.1169    0.7300 H   0  0  0  0  0  0  0  0  0  0  0  0
    5.5629   -0.0613    1.0054 H   0  0  0  0  0  0  0  0  0  0  0  0
    5.6200   -0.2480    2.7885 H   0  0  0  0  0  0  0  0  0  0  0  0
    2.6301   -3.6793    2.2476 H   0  0  0  0  0  0  0  0  0  0  0  0
    3.2779   -1.0178   -3.6587 H   0  0  0  0  0  0  0  0  0  0  0  0
    3.9303   -2.5496   -4.2775 H   0  0  0  0  0  0  0  0  0  0  0  0
    4.9957   -1.3827   -3.4787 H   0  0  0  0  0  0  0  0  0  0  0  0
    1.6316   -2.2794   -2.6161 H   0  0  0  0  0  0  0  0  0  0  0  0
    1.9034   -3.2563   -1.2091 H   0  0  0  0  0  0  0  0  0  0  0  0
    2.2497   -3.9130   -2.8223 H   0  0  0  0  0  0  0  0  0  0  0  0
  2  1  1  6
  1 23  1  0
  1 24  1  0
  1 25  1  0
  2 13  1  0
  2 16  1  0
  2  3  1  0
  3  4  1  0
  3 26  1  0
  3 27  1  0
  4  5  1  0
  4 28  1  0
  4 29  1  0
  5  6  1  0
  5  7  1  0
  5 30  1  6
  6 31  1  0
  7 17  1  0
  7  8  1  1
  7  9  1  0
  8 32  1  0
  8 33  1  0
  8 34  1  0
  9 18  1  0
  9 10  1  0
  9 35  1  1
 10 11  1  0
 10 36  1  0
 10 37  1  0
 11 20  1  0
 11 12  1  0
 11 38  1  6
 12 13  1  0
 12 20  1  0
 12 39  1  6
 13 14  1  0
 13 40  1  6
 14 15  1  0
 14 17  1  0
 14 41  1  6
 15 16  1  0
 16 42  1  0
 16 43  1  0
 17 18  1  0
 17 44  1  1
 18 19  2  0
 20 21  1  0
 20 22  1  0
 21 45  1  0
 21 46  1  0
 21 47  1  0
 22 48  1  0
 22 49  1  0
 22 50  1  0
M  END
>  <i_m_ct_stereo_status>  (65) 
1

>  <s_m_source_file>  (65) 
/var/tmp/pbs.5076255.sched01/tmpm7cr0ro2/0ctwvxj2z.sdf

>  <i_m_source_file_index>  (65) 
26

>  <i_lp_mmshare_version>  (65) 
48012

>  <i_f3d_flags>  (65) 
0

>  <s_epik_input>  (65) 
W0NIM11bQ0BdMTJbQ0BIXTNbQ0BIXTRbQ0BIXShDNChbQ0gzXSlbQ0gzXSlbQ0gyXVtDQEhdNVtDQEBdKFtDSDNdKShbQ0BIXShbT0hdKVtDSDJdW0NIMl0xKVtDQEhdKEM1PU8pW0NIXTNPW0NIMl0y

>  <s_epik_cmdline>  (65) 
J2VwaWtfcHl0aG9uJywgJy1waHQnLCAnMi4wJywgJy1waCcsICc3LjAnLCAnLXRuJywgJzgnLCAnLW1hJywgJzIwMCcsICctaW1hZScsICc8aW5maWxlLm1hZT4nLCAnLW9tYWUnLCAnPG91dGZpbGUubWFlPic=

>  <r_lp_tautomer_probability>  (65) 
1

>  <r_epik_Ionization_Penalty>  (65) 
1.09231e-07

>  <r_epik_Ionization_Penalty_Charging>  (65) 
0

>  <r_epik_Ionization_Penalty_Neutral>  (65) 
1.09231e-07

>  <r_epik_State_Penalty>  (65) 
-0

>  <r_epik_Charging_Adjusted_Penalty>  (65) 
0

>  <i_epik_Tot_Q>  (65) 
0

>  <i_epik_Tot_abs_Q>  (65) 
0

>  <s_lp_Force_Field>  (65) 
OPLS3e

>  <r_lp_Energy>  (65) 
243.764

>  <b_lp_Chiralities_Consistent>  (65) 
1

>  <s_lp_Variant>  (65) 
17:0-1

>  <s_i_glide_gridfile>  (65) 
pfpi4k_grid

>  <i_i_glide_lignum>  (65) 
26

>  <i_i_glide_rotatable_bonds>  (65) 
1

>  <r_i_docking_score>  (65) 
-3.18595

>  <r_i_glide_ligand_efficiency>  (65) 
-0.144816

>  <r_i_glide_ligand_efficiency_sa>  (65) 
-0.405779

>  <r_i_glide_ligand_efficiency_ln>  (65) 
-0.778761

>  <r_i_glide_gscore>  (65) 
-3.18595

>  <r_i_glide_lipo>  (65) 
-0.573176

>  <r_i_glide_hbond>  (65) 
-0.0498097

>  <r_i_glide_metal>  (65) 
-0

>  <r_i_glide_rewards>  (65) 
-1.33347

>  <r_i_glide_evdw>  (65) 
-18.8682

>  <r_i_glide_ecoul>  (65) 
-1.75831

>  <r_i_glide_erotb>  (65) 
0

>  <r_i_glide_esite>  (65) 
-0.0223312

>  <r_i_glide_emodel>  (65) 
-24.4177

>  <r_i_glide_energy>  (65) 
-20.6265

>  <r_i_glide_einternal>  (65) 
0.333072

>  <r_i_glide_intrahb_reward>  (65) 
-0

>  <i_i_glide_confnum>  (65) 
2

>  <i_i_glide_posenum>  (65) 
17

>  <r_i_glide_eff_state_penalty>  (65) 
0

>  <ligand_id>  (65) 
17

>  <original_smiles>  (65) 
CC12CCC(O)C3(C)C4CC5C(C1C(OC2)C3C4=O)C5(C)C

>  <smiles>  (65) 
[H]OC1([H])C([H])([H])C([H])([H])C2(C([H])([H])[H])C([H])([H])OC3([H])C4([H])C(=O)C([H])(C([H])([H])C5([H])C([H])(C32[H])C5(C([H])([H])[H])C([H])([H])[H])C14C([H])([H])[H]

$$$$
17:0:1
     RDKit          3D

 50 54  0  0  1  0  0  0  0  0999 V2000
    2.7163    0.3699    1.7928 C   0  0  0  0  0  0  0  0  0  0  0  0
    3.5703   -0.9064    1.8731 C   0  0  1  0  0  0  0  0  0  0  0  0
    3.3113   -1.6715    3.3184 C   0  0  0  0  0  0  0  0  0  0  0  0
    4.2765   -2.8588    3.9835 C   0  0  0  0  0  0  0  0  0  0  0  0
    5.0443   -4.1338    3.2538 C   0  0  1  0  0  0  0  0  0  0  0  0
    5.6104   -4.9362    4.2744 O   0  0  0  0  0  0  0  0  0  0  0  0
    4.2094   -4.9827    2.1947 C   0  0  2  0  0  0  0  0  0  0  0  0
    3.5310   -6.1223    3.0209 C   0  0  0  0  0  0  0  0  0  0  0  0
    4.3973   -5.3483    0.5667 C   0  0  2  0  0  0  0  0  0  0  0  0
    5.0215   -4.6479   -0.7762 C   0  0  0  0  0  0  0  0  0  0  0  0
    4.8015   -3.1509   -1.4036 C   0  0  2  0  0  0  0  0  0  0  0  0
    4.1475   -1.8007   -0.8308 C   0  0  2  0  0  0  0  0  0  0  0  0
    3.4029   -1.7836    0.5444 C   0  0  1  0  0  0  0  0  0  0  0  0
    4.2584   -2.7349    1.1579 C   0  0  1  0  0  0  0  0  0  0  0  0
    5.3365   -1.9574    1.7706 O   0  0  0  0  0  0  0  0  0  0  0  0
    5.0212   -0.6028    1.8953 C   0  0  0  0  0  0  0  0  0  0  0  0
    3.3519   -3.9213    1.6293 C   0  0  1  0  0  0  0  0  0  0  0  0
    2.9519   -4.9351    0.5526 C   0  0  0  0  0  0  0  0  0  0  0  0
    1.8995   -5.3390    0.0557 O   0  0  0  0  0  0  0  0  0  0  0  0
    3.6334   -2.4929   -2.1055 C   0  0  0  0  0  0  0  0  0  0  0  0
    3.9333   -1.8362   -3.4450 C   0  0  0  0  0  0  0  0  0  0  0  0
    2.2362   -3.0735   -2.1909 C   0  0  0  0  0  0  0  0  0  0  0  0
    2.9081    1.0363    2.6354 H   0  0  0  0  0  0  0  0  0  0  0  0
    1.6530    0.1257    1.7991 H   0  0  0  0  0  0  0  0  0  0  0  0
    2.9180    0.9274    0.8776 H   0  0  0  0  0  0  0  0  0  0  0  0
    3.3099   -0.8832    4.0749 H   0  0  0  0  0  0  0  0  0  0  0  0
    2.2739   -2.0120    3.3290 H   0  0  0  0  0  0  0  0  0  0  0  0
    5.0814   -2.3234    4.4898 H   0  0  0  0  0  0  0  0  0  0  0  0
    3.6806   -3.2832    4.7933 H   0  0  0  0  0  0  0  0  0  0  0  0
    5.9732   -3.8291    2.7782 H   0  0  0  0  0  0  0  0  0  0  0  0
    4.9098   -5.3143    4.7796 H   0  0  0  0  0  0  0  0  0  0  0  0
    2.7991   -6.7033    2.4554 H   0  0  0  0  0  0  0  0  0  0  0  0
    3.0133   -5.7349    3.9004 H   0  0  0  0  0  0  0  0  0  0  0  0
    4.2705   -6.8490    3.3567 H   0  0  0  0  0  0  0  0  0  0  0  0
    4.4946   -6.4348    0.4948 H   0  0  0  0  0  0  0  0  0  0  0  0
    6.0978   -4.6756   -0.6045 H   0  0  0  0  0  0  0  0  0  0  0  0
    4.9097   -5.3383   -1.6076 H   0  0  0  0  0  0  0  0  0  0  0  0
    5.7350   -2.9410   -1.9259 H   0  0  0  0  0  0  0  0  0  0  0  0
    4.7171   -0.8897   -1.0103 H   0  0  0  0  0  0  0  0  0  0  0  0
    2.3637   -2.0856    0.4348 H   0  0  0  0  0  0  0  0  0  0  0  0
    5.2080   -3.0711    0.7909 H   0  0  0  0  0  0  0  0  0  0  0  0
    5.3584   -0.0072    1.0470 H   0  0  0  0  0  0  0  0  0  0  0  0
    5.3822   -0.1770    2.8325 H   0  0  0  0  0  0  0  0  0  0  0  0
    2.4950   -3.6918    2.2552 H   0  0  0  0  0  0  0  0  0  0  0  0
    3.1981   -1.0571   -3.6564 H   0  0  0  0  0  0  0  0  0  0  0  0
    3.9038   -2.5759   -4.2474 H   0  0  0  0  0  0  0  0  0  0  0  0
    4.9211   -1.3738   -3.4371 H   0  0  0  0  0  0  0  0  0  0  0  0
    1.5577   -2.3497   -2.6403 H   0  0  0  0  0  0  0  0  0  0  0  0
    1.8308   -3.3071   -1.2172 H   0  0  0  0  0  0  0  0  0  0  0  0
    2.2273   -3.9652   -2.8166 H   0  0  0  0  0  0  0  0  0  0  0  0
  2  1  1  6
  1 23  1  0
  1 24  1  0
  1 25  1  0
  2 13  1  0
  2 16  1  0
  2  3  1  0
  3  4  1  0
  3 26  1  0
  3 27  1  0
  4  5  1  0
  4 28  1  0
  4 29  1  0
  5  6  1  0
  5  7  1  0
  5 30  1  6
  6 31  1  0
  7 17  1  0
  7  8  1  1
  7  9  1  0
  8 32  1  0
  8 33  1  0
  8 34  1  0
  9 18  1  0
  9 10  1  0
  9 35  1  1
 10 11  1  0
 10 36  1  0
 10 37  1  0
 11 20  1  0
 11 12  1  0
 11 38  1  6
 12 13  1  0
 12 20  1  0
 12 39  1  6
 13 14  1  0
 13 40  1  6
 14 15  1  0
 14 17  1  0
 14 41  1  6
 15 16  1  0
 16 42  1  0
 16 43  1  0
 17 18  1  0
 17 44  1  1
 18 19  2  0
 20 21  1  0
 20 22  1  0
 21 45  1  0
 21 46  1  0
 21 47  1  0
 22 48  1  0
 22 49  1  0
 22 50  1  0
M  END
>  <i_m_ct_stereo_status>  (66) 
1

>  <s_m_source_file>  (66) 
/var/tmp/pbs.5076255.sched01/tmpm7cr0ro2/0ctwvxj2z.sdf

>  <i_m_source_file_index>  (66) 
26

>  <i_lp_mmshare_version>  (66) 
48012

>  <i_f3d_flags>  (66) 
0

>  <s_epik_input>  (66) 
W0NIM11bQ0BdMTJbQ0BIXTNbQ0BIXTRbQ0BIXShDNChbQ0gzXSlbQ0gzXSlbQ0gyXVtDQEhdNVtDQEBdKFtDSDNdKShbQ0BIXShbT0hdKVtDSDJdW0NIMl0xKVtDQEhdKEM1PU8pW0NIXTNPW0NIMl0y

>  <s_epik_cmdline>  (66) 
J2VwaWtfcHl0aG9uJywgJy1waHQnLCAnMi4wJywgJy1waCcsICc3LjAnLCAnLXRuJywgJzgnLCAnLW1hJywgJzIwMCcsICctaW1hZScsICc8aW5maWxlLm1hZT4nLCAnLW9tYWUnLCAnPG91dGZpbGUubWFlPic=

>  <r_lp_tautomer_probability>  (66) 
1

>  <r_epik_Ionization_Penalty>  (66) 
1.09231e-07

>  <r_epik_Ionization_Penalty_Charging>  (66) 
0

>  <r_epik_Ionization_Penalty_Neutral>  (66) 
1.09231e-07

>  <r_epik_State_Penalty>  (66) 
-0

>  <r_epik_Charging_Adjusted_Penalty>  (66) 
0

>  <i_epik_Tot_Q>  (66) 
0

>  <i_epik_Tot_abs_Q>  (66) 
0

>  <s_lp_Force_Field>  (66) 
OPLS3e

>  <r_lp_Energy>  (66) 
243.764

>  <b_lp_Chiralities_Consistent>  (66) 
1

>  <s_lp_Variant>  (66) 
17:0-1

>  <s_i_glide_gridfile>  (66) 
pfpi4k_grid

>  <i_i_glide_lignum>  (66) 
26

>  <i_i_glide_rotatable_bonds>  (66) 
1

>  <r_i_docking_score>  (66) 
-3.14947

>  <r_i_glide_ligand_efficiency>  (66) 
-0.143158

>  <r_i_glide_ligand_efficiency_sa>  (66) 
-0.401133

>  <r_i_glide_ligand_efficiency_ln>  (66) 
-0.769845

>  <r_i_glide_gscore>  (66) 
-3.14947

>  <r_i_glide_lipo>  (66) 
-0.516455

>  <r_i_glide_hbond>  (66) 
-0.0577756

>  <r_i_glide_metal>  (66) 
-0

>  <r_i_glide_rewards>  (66) 
-1.33347

>  <r_i_glide_evdw>  (66) 
-18.6951

>  <r_i_glide_ecoul>  (66) 
-1.88276

>  <r_i_glide_erotb>  (66) 
0

>  <r_i_glide_esite>  (66) 
-0.024594

>  <r_i_glide_emodel>  (66) 
-24.5091

>  <r_i_glide_energy>  (66) 
-20.5779

>  <r_i_glide_einternal>  (66) 
0.00865708

>  <r_i_glide_intrahb_reward>  (66) 
-0

>  <i_i_glide_confnum>  (66) 
2

>  <i_i_glide_posenum>  (66) 
8

>  <r_i_glide_eff_state_penalty>  (66) 
0

>  <ligand_id>  (66) 
17

>  <original_smiles>  (66) 
CC12CCC(O)C3(C)C4CC5C(C1C(OC2)C3C4=O)C5(C)C

>  <smiles>  (66) 
[H]OC1([H])C([H])([H])C([H])([H])C2(C([H])([H])[H])C([H])([H])OC3([H])C4([H])C(=O)C([H])(C([H])([H])C5([H])C([H])(C32[H])C5(C([H])([H])[H])C([H])([H])[H])C14C([H])([H])[H]

$$$$
17:0:2
     RDKit          3D

 50 54  0  0  1  0  0  0  0  0999 V2000
    8.1660   -3.8944    0.6281 C   0  0  0  0  0  0  0  0  0  0  0  0
    6.9126   -3.0646    0.3191 C   0  0  1  0  0  0  0  0  0  0  0  0
    6.6691   -3.0361   -1.3181 C   0  0  0  0  0  0  0  0  0  0  0  0
    5.6552   -2.0134   -2.1600 C   0  0  0  0  0  0  0  0  0  0  0  0
    4.1678   -1.4495   -1.7610 C   0  0  1  0  0  0  0  0  0  0  0  0
    3.6849   -0.7511   -2.8955 O   0  0  0  0  0  0  0  0  0  0  0  0
    3.1431   -2.5166   -1.1982 C   0  0  2  0  0  0  0  0  0  0  0  0
    2.3794   -3.0355   -2.4513 C   0  0  0  0  0  0  0  0  0  0  0  0
    2.3097   -2.6709    0.2354 C   0  0  2  0  0  0  0  0  0  0  0  0
    2.4366   -2.2861    1.8108 C   0  0  0  0  0  0  0  0  0  0  0  0
    3.6703   -2.5620    2.8325 C   0  0  2  0  0  0  0  0  0  0  0  0
    5.1697   -3.0619    2.6240 C   0  0  2  0  0  0  0  0  0  0  0  0
    5.6841   -3.5248    1.2322 C   0  0  1  0  0  0  0  0  0  0  0  0
    4.9195   -2.5887    0.4937 C   0  0  1  0  0  0  0  0  0  0  0  0
    5.7400   -1.3908    0.3433 O   0  0  0  0  0  0  0  0  0  0  0  0
    7.0709   -1.6292    0.6490 C   0  0  0  0  0  0  0  0  0  0  0  0
    4.0485   -3.4290   -0.4893 C   0  0  1  0  0  0  0  0  0  0  0  0
    2.8090   -4.0611    0.1455 C   0  0  0  0  0  0  0  0  0  0  0  0
    2.3227   -5.1592    0.3537 O   0  0  0  0  0  0  0  0  0  0  0  0
    4.1579   -3.8336    3.4925 C   0  0  0  0  0  0  0  0  0  0  0  0
    4.3184   -3.7959    5.0019 C   0  0  0  0  0  0  0  0  0  0  0  0
    3.6875   -5.2281    3.1408 C   0  0  0  0  0  0  0  0  0  0  0  0
    9.0422   -3.5196    0.0986 H   0  0  0  0  0  0  0  0  0  0  0  0
    8.0265   -4.9416    0.3508 H   0  0  0  0  0  0  0  0  0  0  0  0
    8.3973   -3.8794    1.6867 H   0  0  0  0  0  0  0  0  0  0  0  0
    7.6456   -2.8952   -1.7808 H   0  0  0  0  0  0  0  0  0  0  0  0
    6.4027   -4.0424   -1.6169 H   0  0  0  0  0  0  0  0  0  0  0  0
    6.2090   -1.0901   -2.2909 H   0  0  0  0  0  0  0  0  0  0  0  0
    5.5562   -2.4555   -3.1504 H   0  0  0  0  0  0  0  0  0  0  0  0
    4.2107   -0.6120   -1.0712 H   0  0  0  0  0  0  0  0  0  0  0  0
    2.8920   -0.3079   -2.6311 H   0  0  0  0  0  0  0  0  0  0  0  0
    1.7108   -3.8657   -2.2425 H   0  0  0  0  0  0  0  0  0  0  0  0
    3.0576   -3.3479   -3.2444 H   0  0  0  0  0  0  0  0  0  0  0  0
    1.7392   -2.2608   -2.8712 H   0  0  0  0  0  0  0  0  0  0  0  0
    1.2979   -2.6960   -0.0884 H   0  0  0  0  0  0  0  0  0  0  0  0
    2.3468   -1.1998    1.8434 H   0  0  0  0  0  0  0  0  0  0  0  0
    1.5289   -2.5950    2.3332 H   0  0  0  0  0  0  0  0  0  0  0  0
    3.6106   -1.7683    3.5627 H   0  0  0  0  0  0  0  0  0  0  0  0
    5.8884   -2.4952    3.1948 H   0  0  0  0  0  0  0  0  0  0  0  0
    5.4522   -4.5738    1.0589 H   0  0  0  0  0  0  0  0  0  0  0  0
    4.4073   -1.7389    0.9054 H   0  0  0  0  0  0  0  0  0  0  0  0
    7.2370   -1.4048    1.6827 H   0  0  0  0  0  0  0  0  0  0  0  0
    7.7688   -1.0874    0.0173 H   0  0  0  0  0  0  0  0  0  0  0  0
    4.5118   -4.1288   -1.1772 H   0  0  0  0  0  0  0  0  0  0  0  0
    5.0517   -4.5436    5.3209 H   0  0  0  0  0  0  0  0  0  0  0  0
    3.3635   -3.9983    5.4981 H   0  0  0  0  0  0  0  0  0  0  0  0
    4.6717   -2.8167    5.3207 H   0  0  0  0  0  0  0  0  0  0  0  0
    4.2854   -5.9764    3.6711 H   0  0  0  0  0  0  0  0  0  0  0  0
    3.8331   -5.4426    2.0988 H   0  0  0  0  0  0  0  0  0  0  0  0
    2.6322   -5.3611    3.4000 H   0  0  0  0  0  0  0  0  0  0  0  0
  2  1  1  6
  1 23  1  0
  1 24  1  0
  1 25  1  0
  2 13  1  0
  2 16  1  0
  2  3  1  0
  3  4  1  0
  3 26  1  0
  3 27  1  0
  4  5  1  0
  4 28  1  0
  4 29  1  0
  5  6  1  0
  5  7  1  0
  5 30  1  1
  6 31  1  0
  7 17  1  0
  7  8  1  6
  7  9  1  0
  8 32  1  0
  8 33  1  0
  8 34  1  0
  9 18  1  0
  9 10  1  0
  9 35  1  6
 10 11  1  0
 10 36  1  0
 10 37  1  0
 11 20  1  0
 11 12  1  0
 11 38  1  1
 12 13  1  0
 12 20  1  0
 12 39  1  1
 13 14  1  0
 13 40  1  6
 14 15  1  0
 14 17  1  0
 14 41  1  1
 15 16  1  0
 16 42  1  0
 16 43  1  0
 17 18  1  0
 17 44  1  6
 18 19  2  0
 20 21  1  0
 20 22  1  0
 21 45  1  0
 21 46  1  0
 21 47  1  0
 22 48  1  0
 22 49  1  0
 22 50  1  0
M  END
>  <i_m_ct_stereo_status>  (67) 
1

>  <s_m_source_file>  (67) 
/var/tmp/pbs.5076255.sched01/tmpm7cr0ro2/0ctwvxj2z.sdf

>  <i_m_source_file_index>  (67) 
26

>  <i_lp_mmshare_version>  (67) 
48012

>  <i_f3d_flags>  (67) 
0

>  <s_epik_input>  (67) 
W0NIM11bQ0BdMTJbQ0BIXTNbQ0BIXTRbQ0BIXShDNChbQ0gzXSlbQ0gzXSlbQ0gyXVtDQEhdNVtDQEBdKFtDSDNdKShbQ0BIXShbT0hdKVtDSDJdW0NIMl0xKVtDQEhdKEM1PU8pW0NIXTNPW0NIMl0y

>  <s_epik_cmdline>  (67) 
J2VwaWtfcHl0aG9uJywgJy1waHQnLCAnMi4wJywgJy1waCcsICc3LjAnLCAnLXRuJywgJzgnLCAnLW1hJywgJzIwMCcsICctaW1hZScsICc8aW5maWxlLm1hZT4nLCAnLW9tYWUnLCAnPG91dGZpbGUubWFlPic=

>  <r_lp_tautomer_probability>  (67) 
1

>  <r_epik_Ionization_Penalty>  (67) 
1.09231e-07

>  <r_epik_Ionization_Penalty_Charging>  (67) 
0

>  <r_epik_Ionization_Penalty_Neutral>  (67) 
1.09231e-07

>  <r_epik_State_Penalty>  (67) 
-0

>  <r_epik_Charging_Adjusted_Penalty>  (67) 
0

>  <i_epik_Tot_Q>  (67) 
0

>  <i_epik_Tot_abs_Q>  (67) 
0

>  <s_lp_Force_Field>  (67) 
OPLS3e

>  <r_lp_Energy>  (67) 
243.764

>  <b_lp_Chiralities_Consistent>  (67) 
1

>  <s_lp_Variant>  (67) 
17:0-1

>  <s_i_glide_gridfile>  (67) 
pfpi4k_grid

>  <i_i_glide_lignum>  (67) 
26

>  <i_i_glide_rotatable_bonds>  (67) 
1

>  <r_i_docking_score>  (67) 
-3.00494

>  <r_i_glide_ligand_efficiency>  (67) 
-0.136588

>  <r_i_glide_ligand_efficiency_sa>  (67) 
-0.382725

>  <r_i_glide_ligand_efficiency_ln>  (67) 
-0.734517

>  <r_i_glide_gscore>  (67) 
-3.00494

>  <r_i_glide_lipo>  (67) 
-0.554248

>  <r_i_glide_hbond>  (67) 
0

>  <r_i_glide_metal>  (67) 
-0

>  <r_i_glide_rewards>  (67) 
-1.33347

>  <r_i_glide_evdw>  (67) 
-16.3902

>  <r_i_glide_ecoul>  (67) 
-1.78821

>  <r_i_glide_erotb>  (67) 
0

>  <r_i_glide_esite>  (67) 
-0.0294744

>  <r_i_glide_emodel>  (67) 
-21.4704

>  <r_i_glide_energy>  (67) 
-18.1784

>  <r_i_glide_einternal>  (67) 
0.364761

>  <r_i_glide_intrahb_reward>  (67) 
-0

>  <i_i_glide_confnum>  (67) 
2

>  <i_i_glide_posenum>  (67) 
3

>  <r_i_glide_eff_state_penalty>  (67) 
0

>  <ligand_id>  (67) 
17

>  <original_smiles>  (67) 
CC12CCC(O)C3(C)C4CC5C(C1C(OC2)C3C4=O)C5(C)C

>  <smiles>  (67) 
[H]OC1([H])C([H])([H])C([H])([H])C2(C([H])([H])[H])C([H])([H])OC3([H])C4([H])C(=O)C([H])(C([H])([H])C5([H])C([H])(C32[H])C5(C([H])([H])[H])C([H])([H])[H])C14C([H])([H])[H]

$$$$
17:1:0
     RDKit          3D

 50 54  0  0  1  0  0  0  0  0999 V2000
    4.3406   -4.2339    2.9640 C   0  0  0  0  0  0  0  0  0  0  0  0
    3.8028   -4.6252    1.5122 C   0  0  1  0  0  0  0  0  0  0  0  0
    2.3573   -4.2534    1.6383 C   0  0  0  0  0  0  0  0  0  0  0  0
    2.2594   -2.6792    1.5594 C   0  0  0  0  0  0  0  0  0  0  0  0
    3.4483   -1.6016    1.7298 C   0  0  1  0  0  0  0  0  0  0  0  0
    3.0965   -0.9236    2.9193 O   0  0  0  0  0  0  0  0  0  0  0  0
    5.0697   -1.7195    1.5389 C   0  0  2  0  0  0  0  0  0  0  0  0
    5.7013   -1.0616    2.7927 C   0  0  0  0  0  0  0  0  0  0  0  0
    5.5757   -0.9670    0.2656 C   0  0  2  0  0  0  0  0  0  0  0  0
    4.8064   -0.8491   -1.0469 C   0  0  0  0  0  0  0  0  0  0  0  0
    3.7212   -1.8717   -1.3657 C   0  0  2  0  0  0  0  0  0  0  0  0
    3.5435   -3.3119   -0.9591 C   0  0  2  0  0  0  0  0  0  0  0  0
    4.2722   -4.2555    0.0403 C   0  0  1  0  0  0  0  0  0  0  0  0
    5.7051   -4.2331    0.2885 C   0  0  2  0  0  0  0  0  0  0  0  0
    5.7961   -5.4894    1.0255 O   0  0  0  0  0  0  0  0  0  0  0  0
    4.4821   -5.9887    1.4428 C   0  0  0  0  0  0  0  0  0  0  0  0
    6.0397   -2.9412    1.0842 C   0  0  1  0  0  0  0  0  0  0  0  0
    6.7358   -1.9543    0.1627 C   0  0  0  0  0  0  0  0  0  0  0  0
    7.8677   -1.8870   -0.3243 O   0  0  0  0  0  0  0  0  0  0  0  0
    3.9801   -2.9889   -2.3670 C   0  0  0  0  0  0  0  0  0  0  0  0
    2.9857   -3.2067   -3.5107 C   0  0  0  0  0  0  0  0  0  0  0  0
    5.3715   -3.2524   -2.8996 C   0  0  0  0  0  0  0  0  0  0  0  0
    3.9475   -4.9390    3.6982 H   0  0  0  0  0  0  0  0  0  0  0  0
    4.0068   -3.2960    3.3823 H   0  0  0  0  0  0  0  0  0  0  0  0
    5.4196   -4.2909    3.1056 H   0  0  0  0  0  0  0  0  0  0  0  0
    1.8060   -4.7378    0.8382 H   0  0  0  0  0  0  0  0  0  0  0  0
    1.9235   -4.6103    2.5702 H   0  0  0  0  0  0  0  0  0  0  0  0
    1.8184   -2.4451    0.6004 H   0  0  0  0  0  0  0  0  0  0  0  0
    1.4455   -2.4067    2.2296 H   0  0  0  0  0  0  0  0  0  0  0  0
    3.1468   -0.8317    1.0179 H   0  0  0  0  0  0  0  0  0  0  0  0
    2.2845   -0.4586    2.7615 H   0  0  0  0  0  0  0  0  0  0  0  0
    6.7792   -1.0265    2.7244 H   0  0  0  0  0  0  0  0  0  0  0  0
    5.4588   -1.5932    3.7090 H   0  0  0  0  0  0  0  0  0  0  0  0
    5.4036   -0.0208    2.9132 H   0  0  0  0  0  0  0  0  0  0  0  0
    5.9621    0.0101    0.5629 H   0  0  0  0  0  0  0  0  0  0  0  0
    4.2757    0.0966   -0.9816 H   0  0  0  0  0  0  0  0  0  0  0  0
    5.4544   -0.7144   -1.9139 H   0  0  0  0  0  0  0  0  0  0  0  0
    2.7824   -1.3543   -1.5501 H   0  0  0  0  0  0  0  0  0  0  0  0
    2.5146   -3.6476   -1.0053 H   0  0  0  0  0  0  0  0  0  0  0  0
    4.1355   -5.1295   -0.6004 H   0  0  0  0  0  0  0  0  0  0  0  0
    6.3045   -4.3503   -0.6167 H   0  0  0  0  0  0  0  0  0  0  0  0
    4.5377   -6.5495    2.3759 H   0  0  0  0  0  0  0  0  0  0  0  0
    4.0375   -6.6677    0.7137 H   0  0  0  0  0  0  0  0  0  0  0  0
    6.7261   -3.1802    1.8958 H   0  0  0  0  0  0  0  0  0  0  0  0
    3.0239   -4.2380   -3.8647 H   0  0  0  0  0  0  0  0  0  0  0  0
    3.2109   -2.5473   -4.3474 H   0  0  0  0  0  0  0  0  0  0  0  0
    1.9702   -2.9956   -3.1749 H   0  0  0  0  0  0  0  0  0  0  0  0
    5.5012   -4.3148   -3.0950 H   0  0  0  0  0  0  0  0  0  0  0  0
    6.1464   -2.9228   -2.2112 H   0  0  0  0  0  0  0  0  0  0  0  0
    5.5048   -2.6966   -3.8217 H   0  0  0  0  0  0  0  0  0  0  0  0
  2  1  1  1
  1 23  1  0
  1 24  1  0
  1 25  1  0
  2 13  1  0
  2 16  1  0
  2  3  1  0
  3  4  1  0
  3 26  1  0
  3 27  1  0
  4  5  1  0
  4 28  1  0
  4 29  1  0
  5  6  1  0
  5  7  1  0
  5 30  1  6
  6 31  1  0
  7 17  1  0
  7  8  1  1
  7  9  1  0
  8 32  1  0
  8 33  1  0
  8 34  1  0
  9 18  1  0
  9 10  1  0
  9 35  1  1
 10 11  1  0
 10 36  1  0
 10 37  1  0
 11 20  1  0
 11 12  1  0
 11 38  1  6
 12 13  1  0
 12 20  1  0
 12 39  1  6
 13 14  1  0
 13 40  1  6
 14 15  1  0
 14 17  1  0
 14 41  1  6
 15 16  1  0
 16 42  1  0
 16 43  1  0
 17 18  1  0
 17 44  1  1
 18 19  2  0
 20 21  1  0
 20 22  1  0
 21 45  1  0
 21 46  1  0
 21 47  1  0
 22 48  1  0
 22 49  1  0
 22 50  1  0
M  END
>  <i_m_ct_stereo_status>  (68) 
1

>  <s_m_source_file>  (68) 
/var/tmp/pbs.5076255.sched01/tmpm7cr0ro2/0ctwvxj2z.sdf

>  <i_m_source_file_index>  (68) 
27

>  <i_lp_mmshare_version>  (68) 
48012

>  <i_f3d_flags>  (68) 
0

>  <s_epik_input>  (68) 
W0NIM11bQ0BdMTJbQ0BIXTNbQ0BIXTRbQ0BIXShDNChbQ0gzXSlbQ0gzXSlbQ0gyXVtDQEhdNVtDQEBdKFtDSDNdKShbQ0BIXShbT0hdKVtDSDJdW0NIMl0xKVtDQEhdKEM1PU8pW0NIXTNPW0NIMl0y

>  <s_epik_cmdline>  (68) 
J2VwaWtfcHl0aG9uJywgJy1waHQnLCAnMi4wJywgJy1waCcsICc3LjAnLCAnLXRuJywgJzgnLCAnLW1hJywgJzIwMCcsICctaW1hZScsICc8aW5maWxlLm1hZT4nLCAnLW9tYWUnLCAnPG91dGZpbGUubWFlPic=

>  <r_lp_tautomer_probability>  (68) 
1

>  <r_epik_Ionization_Penalty>  (68) 
1.09231e-07

>  <r_epik_Ionization_Penalty_Charging>  (68) 
0

>  <r_epik_Ionization_Penalty_Neutral>  (68) 
1.09231e-07

>  <r_epik_State_Penalty>  (68) 
-0

>  <r_epik_Charging_Adjusted_Penalty>  (68) 
0

>  <i_epik_Tot_Q>  (68) 
0

>  <i_epik_Tot_abs_Q>  (68) 
0

>  <s_lp_Force_Field>  (68) 
OPLS3e

>  <r_lp_Energy>  (68) 
162.956

>  <b_lp_Chiralities_Consistent>  (68) 
1

>  <s_lp_Variant>  (68) 
17:0-2

>  <s_i_glide_gridfile>  (68) 
pfpi4k_grid

>  <i_i_glide_lignum>  (68) 
27

>  <i_i_glide_rotatable_bonds>  (68) 
1

>  <r_i_docking_score>  (68) 
-3.85687

>  <r_i_glide_ligand_efficiency>  (68) 
-0.175312

>  <r_i_glide_ligand_efficiency_sa>  (68) 
-0.491232

>  <r_i_glide_ligand_efficiency_ln>  (68) 
-0.94276

>  <r_i_glide_gscore>  (68) 
-3.85687

>  <r_i_glide_lipo>  (68) 
-0.94493

>  <r_i_glide_hbond>  (68) 
-0.136354

>  <r_i_glide_metal>  (68) 
-0

>  <r_i_glide_rewards>  (68) 
-1.33347

>  <r_i_glide_evdw>  (68) 
-19.2078

>  <r_i_glide_ecoul>  (68) 
-3.16658

>  <r_i_glide_erotb>  (68) 
0

>  <r_i_glide_esite>  (68) 
-0.00673359

>  <r_i_glide_emodel>  (68) 
-26.7397

>  <r_i_glide_energy>  (68) 
-22.3744

>  <r_i_glide_einternal>  (68) 
0.533897

>  <r_i_glide_intrahb_reward>  (68) 
-0

>  <i_i_glide_confnum>  (68) 
2

>  <i_i_glide_posenum>  (68) 
6

>  <r_i_glide_eff_state_penalty>  (68) 
0

>  <ligand_id>  (68) 
17

>  <original_smiles>  (68) 
CC12CCC(O)C3(C)C4CC5C(C1C(OC2)C3C4=O)C5(C)C

>  <smiles>  (68) 
[H]OC1([H])C([H])([H])C([H])([H])C2(C([H])([H])[H])C([H])([H])OC3([H])C4([H])C(=O)C([H])(C([H])([H])C5([H])C([H])(C32[H])C5(C([H])([H])[H])C([H])([H])[H])C14C([H])([H])[H]

$$$$
17:1:1
     RDKit          3D

 50 54  0  0  1  0  0  0  0  0999 V2000
    4.4069   -4.2017    2.9561 C   0  0  0  0  0  0  0  0  0  0  0  0
    3.8092   -4.5955    1.5311 C   0  0  1  0  0  0  0  0  0  0  0  0
    2.3748   -4.2119    1.7079 C   0  0  0  0  0  0  0  0  0  0  0  0
    2.2846   -2.6396    1.6250 C   0  0  0  0  0  0  0  0  0  0  0  0
    3.4771   -1.5696    1.7458 C   0  0  1  0  0  0  0  0  0  0  0  0
    3.1824   -0.9005    2.9567 O   0  0  0  0  0  0  0  0  0  0  0  0
    5.0906   -1.7029    1.4865 C   0  0  2  0  0  0  0  0  0  0  0  0
    5.7801   -1.0405    2.7128 C   0  0  0  0  0  0  0  0  0  0  0  0
    5.5591   -0.9638    0.1965 C   0  0  2  0  0  0  0  0  0  0  0  0
    4.7532   -0.8451   -1.0947 C   0  0  0  0  0  0  0  0  0  0  0  0
    3.6506   -1.8605   -1.3663 C   0  0  2  0  0  0  0  0  0  0  0  0
    3.4743   -3.3024   -0.9406 C   0  0  2  0  0  0  0  0  0  0  0  0
    4.2280   -4.2448    0.0373 C   0  0  1  0  0  0  0  0  0  0  0  0
    5.6664   -4.2279    0.2308 C   0  0  2  0  0  0  0  0  0  0  0  0
    5.7768   -5.4807    0.9714 O   0  0  0  0  0  0  0  0  0  0  0  0
    4.4782   -5.9646    1.4432 C   0  0  0  0  0  0  0  0  0  0  0  0
    6.0312   -2.9366    1.0119 C   0  0  1  0  0  0  0  0  0  0  0  0
    6.7063   -1.9664    0.0650 C   0  0  0  0  0  0  0  0  0  0  0  0
    7.8133   -1.9208   -0.4561 O   0  0  0  0  0  0  0  0  0  0  0  0
    3.8594   -2.9860   -2.3692 C   0  0  0  0  0  0  0  0  0  0  0  0
    2.8209   -3.1916   -3.4685 C   0  0  0  0  0  0  0  0  0  0  0  0
    5.2255   -3.2686   -2.9548 C   0  0  0  0  0  0  0  0  0  0  0  0
    4.0305   -4.8986    3.7072 H   0  0  0  0  0  0  0  0  0  0  0  0
    4.0940   -3.2586    3.3799 H   0  0  0  0  0  0  0  0  0  0  0  0
    5.4866   -4.2694    3.0586 H   0  0  0  0  0  0  0  0  0  0  0  0
    1.7908   -4.7032    0.9345 H   0  0  0  0  0  0  0  0  0  0  0  0
    1.9740   -4.5621    2.6600 H   0  0  0  0  0  0  0  0  0  0  0  0
    1.8062   -2.4062    0.6857 H   0  0  0  0  0  0  0  0  0  0  0  0
    1.5013   -2.3555    2.3248 H   0  0  0  0  0  0  0  0  0  0  0  0
    3.1479   -0.8038    1.0418 H   0  0  0  0  0  0  0  0  0  0  0  0
    3.5099   -0.0112    2.8817 H   0  0  0  0  0  0  0  0  0  0  0  0
    6.8571   -1.0200    2.5925 H   0  0  0  0  0  0  0  0  0  0  0  0
    5.5749   -1.5671    3.6428 H   0  0  0  0  0  0  0  0  0  0  0  0
    5.5042    0.0059    2.8397 H   0  0  0  0  0  0  0  0  0  0  0  0
    5.9613    0.0085    0.4813 H   0  0  0  0  0  0  0  0  0  0  0  0
    4.2288    0.1014   -1.0176 H   0  0  0  0  0  0  0  0  0  0  0  0
    5.3757   -0.7278   -1.9828 H   0  0  0  0  0  0  0  0  0  0  0  0
    2.7142   -1.3401   -1.5314 H   0  0  0  0  0  0  0  0  0  0  0  0
    2.4372   -3.6184   -0.9436 H   0  0  0  0  0  0  0  0  0  0  0  0
    4.0580   -5.1247   -0.5927 H   0  0  0  0  0  0  0  0  0  0  0  0
    6.2330   -4.3526   -0.6928 H   0  0  0  0  0  0  0  0  0  0  0  0
    4.5624   -6.5177    2.3783 H   0  0  0  0  0  0  0  0  0  0  0  0
    4.0023   -6.6450    0.7349 H   0  0  0  0  0  0  0  0  0  0  0  0
    6.7497   -3.1689    1.7938 H   0  0  0  0  0  0  0  0  0  0  0  0
    2.8371   -4.2274   -3.8234 H   0  0  0  0  0  0  0  0  0  0  0  0
    3.0203   -2.5407   -4.3188 H   0  0  0  0  0  0  0  0  0  0  0  0
    1.8189   -2.9766   -3.0944 H   0  0  0  0  0  0  0  0  0  0  0  0
    5.3425   -4.3369   -3.1383 H   0  0  0  0  0  0  0  0  0  0  0  0
    6.0240   -2.9362   -2.2986 H   0  0  0  0  0  0  0  0  0  0  0  0
    5.3356   -2.7240   -3.8908 H   0  0  0  0  0  0  0  0  0  0  0  0
  2  1  1  1
  1 23  1  0
  1 24  1  0
  1 25  1  0
  2 13  1  0
  2 16  1  0
  2  3  1  0
  3  4  1  0
  3 26  1  0
  3 27  1  0
  4  5  1  0
  4 28  1  0
  4 29  1  0
  5  6  1  0
  5  7  1  0
  5 30  1  6
  6 31  1  0
  7 17  1  0
  7  8  1  1
  7  9  1  0
  8 32  1  0
  8 33  1  0
  8 34  1  0
  9 18  1  0
  9 10  1  0
  9 35  1  1
 10 11  1  0
 10 36  1  0
 10 37  1  0
 11 20  1  0
 11 12  1  0
 11 38  1  6
 12 13  1  0
 12 20  1  0
 12 39  1  6
 13 14  1  0
 13 40  1  6
 14 15  1  0
 14 17  1  0
 14 41  1  6
 15 16  1  0
 16 42  1  0
 16 43  1  0
 17 18  1  0
 17 44  1  1
 18 19  2  0
 20 21  1  0
 20 22  1  0
 21 45  1  0
 21 46  1  0
 21 47  1  0
 22 48  1  0
 22 49  1  0
 22 50  1  0
M  END
>  <i_m_ct_stereo_status>  (69) 
1

>  <s_m_source_file>  (69) 
/var/tmp/pbs.5076255.sched01/tmpm7cr0ro2/0ctwvxj2z.sdf

>  <i_m_source_file_index>  (69) 
27

>  <i_lp_mmshare_version>  (69) 
48012

>  <i_f3d_flags>  (69) 
0

>  <s_epik_input>  (69) 
W0NIM11bQ0BdMTJbQ0BIXTNbQ0BIXTRbQ0BIXShDNChbQ0gzXSlbQ0gzXSlbQ0gyXVtDQEhdNVtDQEBdKFtDSDNdKShbQ0BIXShbT0hdKVtDSDJdW0NIMl0xKVtDQEhdKEM1PU8pW0NIXTNPW0NIMl0y

>  <s_epik_cmdline>  (69) 
J2VwaWtfcHl0aG9uJywgJy1waHQnLCAnMi4wJywgJy1waCcsICc3LjAnLCAnLXRuJywgJzgnLCAnLW1hJywgJzIwMCcsICctaW1hZScsICc8aW5maWxlLm1hZT4nLCAnLW9tYWUnLCAnPG91dGZpbGUubWFlPic=

>  <r_lp_tautomer_probability>  (69) 
1

>  <r_epik_Ionization_Penalty>  (69) 
1.09231e-07

>  <r_epik_Ionization_Penalty_Charging>  (69) 
0

>  <r_epik_Ionization_Penalty_Neutral>  (69) 
1.09231e-07

>  <r_epik_State_Penalty>  (69) 
-0

>  <r_epik_Charging_Adjusted_Penalty>  (69) 
0

>  <i_epik_Tot_Q>  (69) 
0

>  <i_epik_Tot_abs_Q>  (69) 
0

>  <s_lp_Force_Field>  (69) 
OPLS3e

>  <r_lp_Energy>  (69) 
162.956

>  <b_lp_Chiralities_Consistent>  (69) 
1

>  <s_lp_Variant>  (69) 
17:0-2

>  <s_i_glide_gridfile>  (69) 
pfpi4k_grid

>  <i_i_glide_lignum>  (69) 
27

>  <i_i_glide_rotatable_bonds>  (69) 
1

>  <r_i_docking_score>  (69) 
-3.83501

>  <r_i_glide_ligand_efficiency>  (69) 
-0.174319

>  <r_i_glide_ligand_efficiency_sa>  (69) 
-0.488448

>  <r_i_glide_ligand_efficiency_ln>  (69) 
-0.937417

>  <r_i_glide_gscore>  (69) 
-3.83501

>  <r_i_glide_lipo>  (69) 
-0.924664

>  <r_i_glide_hbond>  (69) 
-0.148851

>  <r_i_glide_metal>  (69) 
-0

>  <r_i_glide_rewards>  (69) 
-1.33347

>  <r_i_glide_evdw>  (69) 
-18.7692

>  <r_i_glide_ecoul>  (69) 
-3.17459

>  <r_i_glide_erotb>  (69) 
0

>  <r_i_glide_esite>  (69) 
-0.0133754

>  <r_i_glide_emodel>  (69) 
-26.3865

>  <r_i_glide_energy>  (69) 
-21.9438

>  <r_i_glide_einternal>  (69) 
0.406721

>  <r_i_glide_intrahb_reward>  (69) 
-0

>  <i_i_glide_confnum>  (69) 
1

>  <i_i_glide_posenum>  (69) 
8

>  <r_i_glide_eff_state_penalty>  (69) 
0

>  <ligand_id>  (69) 
17

>  <original_smiles>  (69) 
CC12CCC(O)C3(C)C4CC5C(C1C(OC2)C3C4=O)C5(C)C

>  <smiles>  (69) 
[H]OC1([H])C([H])([H])C([H])([H])C2(C([H])([H])[H])C([H])([H])OC3([H])C4([H])C(=O)C([H])(C([H])([H])C5([H])C([H])(C32[H])C5(C([H])([H])[H])C([H])([H])[H])C14C([H])([H])[H]

$$$$
17:1:2
     RDKit          3D

 50 54  0  0  1  0  0  0  0  0999 V2000
    4.3378   -4.3781    2.8684 C   0  0  0  0  0  0  0  0  0  0  0  0
    3.8522   -4.7436    1.3895 C   0  0  1  0  0  0  0  0  0  0  0  0
    2.3938   -4.4011    1.4770 C   0  0  0  0  0  0  0  0  0  0  0  0
    2.2710   -2.8274    1.4342 C   0  0  0  0  0  0  0  0  0  0  0  0
    3.4261   -1.7318    1.6697 C   0  0  1  0  0  0  0  0  0  0  0  0
    3.0193   -1.1095    2.8710 O   0  0  0  0  0  0  0  0  0  0  0  0
    5.0573   -1.8143    1.5299 C   0  0  2  0  0  0  0  0  0  0  0  0
    5.6266   -1.1566    2.8191 C   0  0  0  0  0  0  0  0  0  0  0  0
    5.5905   -1.0210    0.2966 C   0  0  2  0  0  0  0  0  0  0  0  0
    4.8722   -0.8902   -1.0448 C   0  0  0  0  0  0  0  0  0  0  0  0
    3.8188   -1.9259   -1.4122 C   0  0  2  0  0  0  0  0  0  0  0  0
    3.6562   -3.3780   -1.0481 C   0  0  2  0  0  0  0  0  0  0  0  0
    4.3715   -4.3338   -0.0532 C   0  0  1  0  0  0  0  0  0  0  0  0
    5.7906   -4.2844    0.2492 C   0  0  2  0  0  0  0  0  0  0  0  0
    5.8866   -5.5550    0.9599 O   0  0  0  0  0  0  0  0  0  0  0  0
    4.5687   -6.0923    1.3189 C   0  0  0  0  0  0  0  0  0  0  0  0
    6.0721   -3.0014    1.0871 C   0  0  1  0  0  0  0  0  0  0  0  0
    6.7758   -1.9844    0.2003 C   0  0  0  0  0  0  0  0  0  0  0  0
    7.9074   -1.8942   -0.2838 O   0  0  0  0  0  0  0  0  0  0  0  0
    4.1377   -3.0080   -2.4300 C   0  0  0  0  0  0  0  0  0  0  0  0
    3.1974   -3.2205   -3.6139 C   0  0  0  0  0  0  0  0  0  0  0  0
    5.5504   -3.2327   -2.9083 C   0  0  0  0  0  0  0  0  0  0  0  0
    3.9283   -5.1066    3.5721 H   0  0  0  0  0  0  0  0  0  0  0  0
    3.9735   -3.4576    3.2959 H   0  0  0  0  0  0  0  0  0  0  0  0
    5.4096   -4.4219    3.0490 H   0  0  0  0  0  0  0  0  0  0  0  0
    1.8467   -4.8664    0.6575 H   0  0  0  0  0  0  0  0  0  0  0  0
    1.9451   -4.7912    2.3900 H   0  0  0  0  0  0  0  0  0  0  0  0
    1.8262   -2.5901    0.4748 H   0  0  0  0  0  0  0  0  0  0  0  0
    1.4385   -2.5863    2.0914 H   0  0  0  0  0  0  0  0  0  0  0  0
    3.1277   -0.9427    0.9702 H   0  0  0  0  0  0  0  0  0  0  0  0
    3.1638   -1.7272    3.5849 H   0  0  0  0  0  0  0  0  0  0  0  0
    6.6981   -1.0508    2.7769 H   0  0  0  0  0  0  0  0  0  0  0  0
    5.3938   -1.7262    3.7130 H   0  0  0  0  0  0  0  0  0  0  0  0
    5.2773   -0.1360    2.9536 H   0  0  0  0  0  0  0  0  0  0  0  0
    5.9490   -0.0441    0.6297 H   0  0  0  0  0  0  0  0  0  0  0  0
    4.3215    0.0415   -0.9855 H   0  0  0  0  0  0  0  0  0  0  0  0
    5.5497   -0.7305   -1.8851 H   0  0  0  0  0  0  0  0  0  0  0  0
    2.8771   -1.4235   -1.6211 H   0  0  0  0  0  0  0  0  0  0  0  0
    2.6389   -3.7355   -1.1425 H   0  0  0  0  0  0  0  0  0  0  0  0
    4.2754   -5.2004   -0.7191 H   0  0  0  0  0  0  0  0  0  0  0  0
    6.4310   -4.3659   -0.6318 H   0  0  0  0  0  0  0  0  0  0  0  0
    4.6018   -6.6717    2.2442 H   0  0  0  0  0  0  0  0  0  0  0  0
    4.1665   -6.7669    0.5589 H   0  0  0  0  0  0  0  0  0  0  0  0
    6.7303   -3.2428    1.9200 H   0  0  0  0  0  0  0  0  0  0  0  0
    3.2772   -4.2514   -3.9691 H   0  0  0  0  0  0  0  0  0  0  0  0
    3.4414   -2.5394   -4.4298 H   0  0  0  0  0  0  0  0  0  0  0  0
    2.1665   -3.0374   -3.3155 H   0  0  0  0  0  0  0  0  0  0  0  0
    5.7111   -4.2823   -3.1274 H   0  0  0  0  0  0  0  0  0  0  0  0
    6.2973   -2.9067   -2.1932 H   0  0  0  0  0  0  0  0  0  0  0  0
    5.7064   -2.6577   -3.8094 H   0  0  0  0  0  0  0  0  0  0  0  0
  2  1  1  1
  1 23  1  0
  1 24  1  0
  1 25  1  0
  2 13  1  0
  2 16  1  0
  2  3  1  0
  3  4  1  0
  3 26  1  0
  3 27  1  0
  4  5  1  0
  4 28  1  0
  4 29  1  0
  5  6  1  0
  5  7  1  0
  5 30  1  6
  6 31  1  0
  7 17  1  0
  7  8  1  1
  7  9  1  0
  8 32  1  0
  8 33  1  0
  8 34  1  0
  9 18  1  0
  9 10  1  0
  9 35  1  1
 10 11  1  0
 10 36  1  0
 10 37  1  0
 11 20  1  0
 11 12  1  0
 11 38  1  6
 12 13  1  0
 12 20  1  0
 12 39  1  6
 13 14  1  0
 13 40  1  6
 14 15  1  0
 14 17  1  0
 14 41  1  6
 15 16  1  0
 16 42  1  0
 16 43  1  0
 17 18  1  0
 17 44  1  1
 18 19  2  0
 20 21  1  0
 20 22  1  0
 21 45  1  0
 21 46  1  0
 21 47  1  0
 22 48  1  0
 22 49  1  0
 22 50  1  0
M  END
>  <i_m_ct_stereo_status>  (70) 
1

>  <s_m_source_file>  (70) 
/var/tmp/pbs.5076255.sched01/tmpm7cr0ro2/0ctwvxj2z.sdf

>  <i_m_source_file_index>  (70) 
27

>  <i_lp_mmshare_version>  (70) 
48012

>  <i_f3d_flags>  (70) 
0

>  <s_epik_input>  (70) 
W0NIM11bQ0BdMTJbQ0BIXTNbQ0BIXTRbQ0BIXShDNChbQ0gzXSlbQ0gzXSlbQ0gyXVtDQEhdNVtDQEBdKFtDSDNdKShbQ0BIXShbT0hdKVtDSDJdW0NIMl0xKVtDQEhdKEM1PU8pW0NIXTNPW0NIMl0y

>  <s_epik_cmdline>  (70) 
J2VwaWtfcHl0aG9uJywgJy1waHQnLCAnMi4wJywgJy1waCcsICc3LjAnLCAnLXRuJywgJzgnLCAnLW1hJywgJzIwMCcsICctaW1hZScsICc8aW5maWxlLm1hZT4nLCAnLW9tYWUnLCAnPG91dGZpbGUubWFlPic=

>  <r_lp_tautomer_probability>  (70) 
1

>  <r_epik_Ionization_Penalty>  (70) 
1.09231e-07

>  <r_epik_Ionization_Penalty_Charging>  (70) 
0

>  <r_epik_Ionization_Penalty_Neutral>  (70) 
1.09231e-07

>  <r_epik_State_Penalty>  (70) 
-0

>  <r_epik_Charging_Adjusted_Penalty>  (70) 
0

>  <i_epik_Tot_Q>  (70) 
0

>  <i_epik_Tot_abs_Q>  (70) 
0

>  <s_lp_Force_Field>  (70) 
OPLS3e

>  <r_lp_Energy>  (70) 
162.956

>  <b_lp_Chiralities_Consistent>  (70) 
1

>  <s_lp_Variant>  (70) 
17:0-2

>  <s_i_glide_gridfile>  (70) 
pfpi4k_grid

>  <i_i_glide_lignum>  (70) 
27

>  <i_i_glide_rotatable_bonds>  (70) 
1

>  <r_i_docking_score>  (70) 
-3.72421

>  <r_i_glide_ligand_efficiency>  (70) 
-0.169282

>  <r_i_glide_ligand_efficiency_sa>  (70) 
-0.474335

>  <r_i_glide_ligand_efficiency_ln>  (70) 
-0.910332

>  <r_i_glide_gscore>  (70) 
-3.72421

>  <r_i_glide_lipo>  (70) 
-0.980193

>  <r_i_glide_hbond>  (70) 
-0.132721

>  <r_i_glide_metal>  (70) 
-0

>  <r_i_glide_rewards>  (70) 
-1.33347

>  <r_i_glide_evdw>  (70) 
-19.2516

>  <r_i_glide_ecoul>  (70) 
-2.0829

>  <r_i_glide_erotb>  (70) 
0

>  <r_i_glide_esite>  (70) 
-0.00280656

>  <r_i_glide_emodel>  (70) 
-25.8751

>  <r_i_glide_energy>  (70) 
-21.3345

>  <r_i_glide_einternal>  (70) 
0.000639496

>  <r_i_glide_intrahb_reward>  (70) 
-0

>  <i_i_glide_confnum>  (70) 
1

>  <i_i_glide_posenum>  (70) 
16

>  <r_i_glide_eff_state_penalty>  (70) 
0

>  <ligand_id>  (70) 
17

>  <original_smiles>  (70) 
CC12CCC(O)C3(C)C4CC5C(C1C(OC2)C3C4=O)C5(C)C

>  <smiles>  (70) 
[H]OC1([H])C([H])([H])C([H])([H])C2(C([H])([H])[H])C([H])([H])OC3([H])C4([H])C(=O)C([H])(C([H])([H])C5([H])C([H])(C32[H])C5(C([H])([H])[H])C([H])([H])[H])C14C([H])([H])[H]

$$$$
18:0:0
     RDKit          3D

 41 44  0  0  1  0  0  0  0  0999 V2000
    3.8676   -0.8142   -3.8048 C   0  0  0  0  0  0  0  0  0  0  0  0
    4.7414   -1.0488   -2.7099 O   0  0  0  0  0  0  0  0  0  0  0  0
    4.6713   -2.3575   -2.1415 C   0  0  2  0  0  0  0  0  0  0  0  0
    3.2835   -2.6260   -1.5308 C   0  0  0  0  0  0  0  0  0  0  0  0
    3.2166   -3.8089   -0.5451 C   0  0  2  0  0  0  0  0  0  0  0  0
    2.9348   -3.5297    0.9439 C   0  0  2  0  0  0  0  0  0  0  0  0
    2.3836   -4.7548    1.4635 O   0  0  0  0  0  0  0  0  0  0  0  0
    2.7738   -5.9776    0.8059 C   0  0  0  0  0  0  0  0  0  0  0  0
    4.0236   -5.9370    0.0979 O   0  0  0  0  0  0  0  0  0  0  0  0
    4.4691   -4.6873   -0.4755 C   0  0  1  0  0  0  0  0  0  0  0  0
    5.6421   -3.6929   -0.1479 C   0  0  1  0  0  0  0  0  0  0  0  0
    5.8437   -2.5406   -1.1552 C   0  0  2  0  0  0  0  0  0  0  0  0
    6.1010   -1.3492   -0.3860 O   0  0  0  0  0  0  0  0  0  0  0  0
    6.3779   -1.7129    0.9173 C   0  0  1  0  0  0  0  0  0  0  0  0
    6.2153   -0.6682    1.8513 O   0  0  0  0  0  0  0  0  0  0  0  0
    5.4433   -2.8792    1.1663 C   0  0  1  0  0  0  0  0  0  0  0  0
    3.9466   -2.4895    1.5188 C   0  0  1  0  0  0  0  0  0  0  0  0
    3.5705   -1.1619    1.1422 O   0  0  0  0  0  0  0  0  0  0  0  0
    2.6207   -0.4529    1.7899 C   0  0  0  0  0  0  0  0  0  0  0  0
    1.7025   -1.1789    2.7655 C   0  0  0  0  0  0  0  0  0  0  0  0
    2.4585    0.7624    1.5898 O   0  0  0  0  0  0  0  0  0  0  0  0
    3.9819    0.2100   -4.1585 H   0  0  0  0  0  0  0  0  0  0  0  0
    2.8186   -0.9350   -3.5356 H   0  0  0  0  0  0  0  0  0  0  0  0
    4.0990   -1.4881   -4.6302 H   0  0  0  0  0  0  0  0  0  0  0  0
    4.8328   -3.0961   -2.9322 H   0  0  0  0  0  0  0  0  0  0  0  0
    2.8969   -1.7188   -1.0850 H   0  0  0  0  0  0  0  0  0  0  0  0
    2.6002   -2.8582   -2.3528 H   0  0  0  0  0  0  0  0  0  0  0  0
    2.3779   -4.3663   -0.9495 H   0  0  0  0  0  0  0  0  0  0  0  0
    3.5606   -4.0496    1.6592 H   0  0  0  0  0  0  0  0  0  0  0  0
    2.8158   -6.7863    1.5301 H   0  0  0  0  0  0  0  0  0  0  0  0
    1.9926   -6.2437    0.0949 H   0  0  0  0  0  0  0  0  0  0  0  0
    4.8526   -4.9718    0.5053 H   0  0  0  0  0  0  0  0  0  0  0  0
    6.5898   -4.2378   -0.0606 H   0  0  0  0  0  0  0  0  0  0  0  0
    6.7396   -2.7533   -1.7311 H   0  0  0  0  0  0  0  0  0  0  0  0
    7.4100   -2.0350    0.9798 H   0  0  0  0  0  0  0  0  0  0  0  0
    6.8829   -0.0204    1.6893 H   0  0  0  0  0  0  0  0  0  0  0  0
    5.8287   -3.4558    2.0152 H   0  0  0  0  0  0  0  0  0  0  0  0
    3.9722   -2.4800    2.6089 H   0  0  0  0  0  0  0  0  0  0  0  0
    1.0510   -1.8604    2.2180 H   0  0  0  0  0  0  0  0  0  0  0  0
    1.0560   -0.4652    3.2845 H   0  0  0  0  0  0  0  0  0  0  0  0
    2.2487   -1.7429    3.5278 H   0  0  0  0  0  0  0  0  0  0  0  0
  1  2  1  0
  1 22  1  0
  1 23  1  0
  1 24  1  0
  2  3  1  0
  3 12  1  0
  3  4  1  0
  3 25  1  6
  4  5  1  0
  4 26  1  0
  4 27  1  0
  5 10  1  0
  5  6  1  0
  5 28  1  6
  6 17  1  0
  6  7  1  0
  6 29  1  6
  7  8  1  0
  8  9  1  0
  8 30  1  0
  8 31  1  0
  9 10  1  0
 10 11  1  0
 10 32  1  6
 11 16  1  0
 11 12  1  0
 11 33  1  1
 12 13  1  0
 12 34  1  6
 13 14  1  0
 14 15  1  0
 14 16  1  0
 14 35  1  6
 15 36  1  0
 16 17  1  0
 16 37  1  1
 17 18  1  0
 17 38  1  1
 18 19  1  0
 19 20  1  0
 19 21  2  0
 20 39  1  0
 20 40  1  0
 20 41  1  0
M  END
>  <i_m_ct_stereo_status>  (71) 
1

>  <s_m_source_file>  (71) 
/var/tmp/pbs.5076255.sched01/tmpm7cr0ro2/0ctwvxj2z.sdf

>  <i_m_source_file_index>  (71) 
28

>  <i_lp_mmshare_version>  (71) 
48012

>  <i_f3d_flags>  (71) 
0

>  <s_epik_input>  (71) 
W0NIM11DKD1PKU9bQ0BASF0xW0NAQEhdMltDQEhdKFtPSF0pT1tDQEhdKFtDQEBIXShbQ0gyXTMpT1tDSDNdKVtDQEBIXTJbQ0hdNE9bQ0gyXU9bQ0BIXTFbQ0hdMzQ=

>  <s_epik_cmdline>  (71) 
J2VwaWtfcHl0aG9uJywgJy1waHQnLCAnMi4wJywgJy1waCcsICc3LjAnLCAnLXRuJywgJzgnLCAnLW1hJywgJzIwMCcsICctaW1hZScsICc8aW5maWxlLm1hZT4nLCAnLW9tYWUnLCAnPG91dGZpbGUubWFlPic=

>  <r_lp_tautomer_probability>  (71) 
1

>  <r_epik_Ionization_Penalty>  (71) 
9.00279e-08

>  <r_epik_Ionization_Penalty_Charging>  (71) 
0

>  <r_epik_Ionization_Penalty_Neutral>  (71) 
9.00279e-08

>  <r_epik_State_Penalty>  (71) 
-0

>  <r_epik_Charging_Adjusted_Penalty>  (71) 
0

>  <i_epik_Tot_Q>  (71) 
0

>  <i_epik_Tot_abs_Q>  (71) 
0

>  <s_epik_Chemistry_Notes>  (71) 
This compound has an ester and may undergo hydrolysis at high or low pH. This compound contains an acetal/aminal-like group ( X-CH(R)-Y where X, Y are N, S, or O) that may be acid/base labile, releasing an aldehyde.

>  <s_lp_Force_Field>  (71) 
OPLS3e

>  <r_lp_Energy>  (71) 
151.539

>  <b_lp_Chiralities_Consistent>  (71) 
1

>  <s_lp_Variant>  (71) 
18:0-1

>  <s_i_glide_gridfile>  (71) 
pfpi4k_grid

>  <i_i_glide_lignum>  (71) 
28

>  <i_i_glide_rotatable_bonds>  (71) 
4

>  <r_i_docking_score>  (71) 
-3.52737

>  <r_i_glide_ligand_efficiency>  (71) 
-0.16797

>  <r_i_glide_ligand_efficiency_sa>  (71) 
-0.463416

>  <r_i_glide_ligand_efficiency_ln>  (71) 
-0.872134

>  <r_i_glide_gscore>  (71) 
-3.52737

>  <r_i_glide_lipo>  (71) 
-0.377336

>  <r_i_glide_hbond>  (71) 
-0.0503798

>  <r_i_glide_metal>  (71) 
-0

>  <r_i_glide_rewards>  (71) 
-1.48832

>  <r_i_glide_evdw>  (71) 
-21.1363

>  <r_i_glide_ecoul>  (71) 
-4.61735

>  <r_i_glide_erotb>  (71) 
0.203805

>  <r_i_glide_esite>  (71) 
-0.0657142

>  <r_i_glide_emodel>  (71) 
-27.9992

>  <r_i_glide_energy>  (71) 
-25.7537

>  <r_i_glide_einternal>  (71) 
6.49312

>  <r_i_glide_intrahb_reward>  (71) 
-0

>  <i_i_glide_confnum>  (71) 
3

>  <i_i_glide_posenum>  (71) 
14

>  <r_i_glide_eff_state_penalty>  (71) 
0

>  <ligand_id>  (71) 
18

>  <original_smiles>  (71) 
COC1CC2C3OCOC2C2C1OC(O)C2C3OC(C)=O

>  <smiles>  (71) 
[H]OC1([H])OC2([H])C([H])(OC([H])([H])[H])C([H])([H])C3([H])C4([H])OC([H])([H])OC3([H])C2([H])C1([H])C4([H])OC(=O)C([H])([H])[H]

$$$$
18:0:1
     RDKit          3D

 41 44  0  0  1  0  0  0  0  0999 V2000
    4.5894   -3.9286    3.0197 C   0  0  0  0  0  0  0  0  0  0  0  0
    3.3961   -3.2169    2.6921 O   0  0  0  0  0  0  0  0  0  0  0  0
    3.2089   -2.8168    1.3309 C   0  0  2  0  0  0  0  0  0  0  0  0
    3.3414   -3.9831    0.3299 C   0  0  0  0  0  0  0  0  0  0  0  0
    3.4667   -3.5654   -1.1548 C   0  0  2  0  0  0  0  0  0  0  0  0
    4.8267   -3.7516   -1.8829 C   0  0  2  0  0  0  0  0  0  0  0  0
    4.5337   -3.8164   -3.2940 O   0  0  0  0  0  0  0  0  0  0  0  0
    3.3116   -3.1869   -3.7152 C   0  0  0  0  0  0  0  0  0  0  0  0
    2.8709   -2.0838   -2.9078 O   0  0  0  0  0  0  0  0  0  0  0  0
    3.1455   -2.1029   -1.4793 C   0  0  1  0  0  0  0  0  0  0  0  0
    4.1195   -1.2897   -0.5456 C   0  0  1  0  0  0  0  0  0  0  0  0
    3.9498   -1.5048    0.9743 C   0  0  2  0  0  0  0  0  0  0  0  0
    5.2537   -1.4556    1.5326 O   0  0  0  0  0  0  0  0  0  0  0  0
    6.1448   -0.9912    0.5882 C   0  0  1  0  0  0  0  0  0  0  0  0
    7.4745   -1.3328    0.8606 O   0  0  0  0  0  0  0  0  0  0  0  0
    5.6307   -1.5760   -0.7223 C   0  0  1  0  0  0  0  0  0  0  0  0
    6.0007   -3.0880   -1.0777 C   0  0  1  0  0  0  0  0  0  0  0  0
    6.3358   -3.9088    0.0430 O   0  0  0  0  0  0  0  0  0  0  0  0
    7.5945   -4.3150    0.3023 C   0  0  0  0  0  0  0  0  0  0  0  0
    7.6727   -5.2461    1.5026 C   0  0  0  0  0  0  0  0  0  0  0  0
    8.6129   -4.0065   -0.3270 O   0  0  0  0  0  0  0  0  0  0  0  0
    4.6416   -4.0428    4.1075 H   0  0  0  0  0  0  0  0  0  0  0  0
    5.4945   -3.4031    2.7184 H   0  0  0  0  0  0  0  0  0  0  0  0
    4.5862   -4.9135    2.5528 H   0  0  0  0  0  0  0  0  0  0  0  0
    2.1558   -2.5126    1.2747 H   0  0  0  0  0  0  0  0  0  0  0  0
    4.1500   -4.6519    0.5615 H   0  0  0  0  0  0  0  0  0  0  0  0
    2.4354   -4.5867    0.4225 H   0  0  0  0  0  0  0  0  0  0  0  0
    2.7211   -4.2160   -1.6161 H   0  0  0  0  0  0  0  0  0  0  0  0
    5.1769   -2.9120   -2.4721 H   0  0  0  0  0  0  0  0  0  0  0  0
    3.4277   -2.8200   -4.7326 H   0  0  0  0  0  0  0  0  0  0  0  0
    2.5098   -3.9321   -3.7382 H   0  0  0  0  0  0  0  0  0  0  0  0
    3.8044   -1.5369   -2.1358 H   0  0  0  0  0  0  0  0  0  0  0  0
    3.9558   -0.2282   -0.7159 H   0  0  0  0  0  0  0  0  0  0  0  0
    3.3751   -0.6636    1.3736 H   0  0  0  0  0  0  0  0  0  0  0  0
    6.0921    0.1035    0.5581 H   0  0  0  0  0  0  0  0  0  0  0  0
    7.7704   -0.7772    1.5710 H   0  0  0  0  0  0  0  0  0  0  0  0
    5.9835   -0.9535   -1.5553 H   0  0  0  0  0  0  0  0  0  0  0  0
    6.8937   -3.0455   -1.7120 H   0  0  0  0  0  0  0  0  0  0  0  0
    7.4713   -4.6948    2.4185 H   0  0  0  0  0  0  0  0  0  0  0  0
    8.6652   -5.6934    1.5774 H   0  0  0  0  0  0  0  0  0  0  0  0
    6.9359   -6.0429    1.4059 H   0  0  0  0  0  0  0  0  0  0  0  0
  1  2  1  0
  1 22  1  0
  1 23  1  0
  1 24  1  0
  2  3  1  0
  3 12  1  0
  3  4  1  0
  3 25  1  1
  4  5  1  0
  4 26  1  0
  4 27  1  0
  5 10  1  0
  5  6  1  0
  5 28  1  6
  6 17  1  0
  6  7  1  0
  6 29  1  1
  7  8  1  0
  8  9  1  0
  8 30  1  0
  8 31  1  0
  9 10  1  0
 10 11  1  0
 10 32  1  1
 11 16  1  0
 11 12  1  0
 11 33  1  1
 12 13  1  0
 12 34  1  1
 13 14  1  0
 14 15  1  0
 14 16  1  0
 14 35  1  6
 15 36  1  0
 16 17  1  0
 16 37  1  6
 17 18  1  0
 17 38  1  6
 18 19  1  0
 19 20  1  0
 19 21  2  0
 20 39  1  0
 20 40  1  0
 20 41  1  0
M  END
>  <i_m_ct_stereo_status>  (72) 
1

>  <s_m_source_file>  (72) 
/var/tmp/pbs.5076255.sched01/tmpm7cr0ro2/0ctwvxj2z.sdf

>  <i_m_source_file_index>  (72) 
28

>  <i_lp_mmshare_version>  (72) 
48012

>  <i_f3d_flags>  (72) 
0

>  <s_epik_input>  (72) 
W0NIM11DKD1PKU9bQ0BASF0xW0NAQEhdMltDQEhdKFtPSF0pT1tDQEhdKFtDQEBIXShbQ0gyXTMpT1tDSDNdKVtDQEBIXTJbQ0hdNE9bQ0gyXU9bQ0BIXTFbQ0hdMzQ=

>  <s_epik_cmdline>  (72) 
J2VwaWtfcHl0aG9uJywgJy1waHQnLCAnMi4wJywgJy1waCcsICc3LjAnLCAnLXRuJywgJzgnLCAnLW1hJywgJzIwMCcsICctaW1hZScsICc8aW5maWxlLm1hZT4nLCAnLW9tYWUnLCAnPG91dGZpbGUubWFlPic=

>  <r_lp_tautomer_probability>  (72) 
1

>  <r_epik_Ionization_Penalty>  (72) 
9.00279e-08

>  <r_epik_Ionization_Penalty_Charging>  (72) 
0

>  <r_epik_Ionization_Penalty_Neutral>  (72) 
9.00279e-08

>  <r_epik_State_Penalty>  (72) 
-0

>  <r_epik_Charging_Adjusted_Penalty>  (72) 
0

>  <i_epik_Tot_Q>  (72) 
0

>  <i_epik_Tot_abs_Q>  (72) 
0

>  <s_epik_Chemistry_Notes>  (72) 
This compound has an ester and may undergo hydrolysis at high or low pH. This compound contains an acetal/aminal-like group ( X-CH(R)-Y where X, Y are N, S, or O) that may be acid/base labile, releasing an aldehyde.

>  <s_lp_Force_Field>  (72) 
OPLS3e

>  <r_lp_Energy>  (72) 
151.539

>  <b_lp_Chiralities_Consistent>  (72) 
1

>  <s_lp_Variant>  (72) 
18:0-1

>  <s_i_glide_gridfile>  (72) 
pfpi4k_grid

>  <i_i_glide_lignum>  (72) 
28

>  <i_i_glide_rotatable_bonds>  (72) 
4

>  <r_i_docking_score>  (72) 
-3.45497

>  <r_i_glide_ligand_efficiency>  (72) 
-0.164523

>  <r_i_glide_ligand_efficiency_sa>  (72) 
-0.453905

>  <r_i_glide_ligand_efficiency_ln>  (72) 
-0.854235

>  <r_i_glide_gscore>  (72) 
-3.45497

>  <r_i_glide_lipo>  (72) 
-0.200977

>  <r_i_glide_hbond>  (72) 
0

>  <r_i_glide_metal>  (72) 
-0

>  <r_i_glide_rewards>  (72) 
-1.98032

>  <r_i_glide_evdw>  (72) 
-20.8508

>  <r_i_glide_ecoul>  (72) 
-2.89957

>  <r_i_glide_erotb>  (72) 
0.203805

>  <r_i_glide_esite>  (72) 
0

>  <r_i_glide_emodel>  (72) 
-23.0081

>  <r_i_glide_energy>  (72) 
-23.7504

>  <r_i_glide_einternal>  (72) 
11.1295

>  <r_i_glide_intrahb_reward>  (72) 
-0

>  <i_i_glide_confnum>  (72) 
1

>  <i_i_glide_posenum>  (72) 
2

>  <r_i_glide_eff_state_penalty>  (72) 
0

>  <ligand_id>  (72) 
18

>  <original_smiles>  (72) 
COC1CC2C3OCOC2C2C1OC(O)C2C3OC(C)=O

>  <smiles>  (72) 
[H]OC1([H])OC2([H])C([H])(OC([H])([H])[H])C([H])([H])C3([H])C4([H])OC([H])([H])OC3([H])C2([H])C1([H])C4([H])OC(=O)C([H])([H])[H]

$$$$
18:0:2
     RDKit          3D

 41 44  0  0  1  0  0  0  0  0999 V2000
    8.7547   -2.4407   -0.1082 C   0  0  0  0  0  0  0  0  0  0  0  0
    7.5579   -2.7954   -0.7868 O   0  0  0  0  0  0  0  0  0  0  0  0
    6.6722   -3.6224   -0.0249 C   0  0  2  0  0  0  0  0  0  0  0  0
    5.4869   -4.0259   -0.9096 C   0  0  0  0  0  0  0  0  0  0  0  0
    4.2540   -4.5558   -0.1380 C   0  0  2  0  0  0  0  0  0  0  0  0
    2.9532   -3.7474   -0.1582 C   0  0  2  0  0  0  0  0  0  0  0  0
    1.9075   -4.7012    0.0898 O   0  0  0  0  0  0  0  0  0  0  0  0
    2.2341   -5.8327    0.8930 C   0  0  0  0  0  0  0  0  0  0  0  0
    3.3888   -5.7242    1.7205 O   0  0  0  0  0  0  0  0  0  0  0  0
    4.4493   -4.8132    1.3558 C   0  0  1  0  0  0  0  0  0  0  0  0
    4.9303   -3.4327    1.9146 C   0  0  1  0  0  0  0  0  0  0  0  0
    6.2316   -2.9231    1.2766 C   0  0  2  0  0  0  0  0  0  0  0  0
    6.0748   -1.5132    1.0438 O   0  0  0  0  0  0  0  0  0  0  0  0
    4.9933   -1.0750    1.7790 C   0  0  1  0  0  0  0  0  0  0  0  0
    4.4770    0.1417    1.3300 O   0  0  0  0  0  0  0  0  0  0  0  0
    3.9956   -2.2146    1.6429 C   0  0  1  0  0  0  0  0  0  0  0  0
    3.2029   -2.2520    0.2552 C   0  0  1  0  0  0  0  0  0  0  0  0
    3.8146   -1.4851   -0.8002 O   0  0  0  0  0  0  0  0  0  0  0  0
    3.4171   -1.5528   -2.1081 C   0  0  0  0  0  0  0  0  0  0  0  0
    4.1466   -0.5675   -2.9898 C   0  0  0  0  0  0  0  0  0  0  0  0
    2.6099   -2.3393   -2.6042 O   0  0  0  0  0  0  0  0  0  0  0  0
    9.4021   -1.9035   -0.7863 H   0  0  0  0  0  0  0  0  0  0  0  0
    9.2881   -3.3198    0.2491 H   0  0  0  0  0  0  0  0  0  0  0  0
    8.5739   -1.7638    0.7241 H   0  0  0  0  0  0  0  0  0  0  0  0
    7.1922   -4.5402    0.2539 H   0  0  0  0  0  0  0  0  0  0  0  0
    5.2677   -3.2346   -1.6144 H   0  0  0  0  0  0  0  0  0  0  0  0
    5.8047   -4.8435   -1.5505 H   0  0  0  0  0  0  0  0  0  0  0  0
    4.0591   -5.4832   -0.6719 H   0  0  0  0  0  0  0  0  0  0  0  0
    2.4538   -3.6096    0.7942 H   0  0  0  0  0  0  0  0  0  0  0  0
    1.3847   -6.1130    1.5125 H   0  0  0  0  0  0  0  0  0  0  0  0
    2.4157   -6.6552    0.2123 H   0  0  0  0  0  0  0  0  0  0  0  0
    3.6989   -4.4614    2.0587 H   0  0  0  0  0  0  0  0  0  0  0  0
    5.1320   -3.5183    2.9942 H   0  0  0  0  0  0  0  0  0  0  0  0
    7.0054   -3.0864    2.0178 H   0  0  0  0  0  0  0  0  0  0  0  0
    5.3072   -0.9601    2.8231 H   0  0  0  0  0  0  0  0  0  0  0  0
    4.2413    0.0178    0.4202 H   0  0  0  0  0  0  0  0  0  0  0  0
    3.2768   -2.1563    2.4616 H   0  0  0  0  0  0  0  0  0  0  0  0
    2.2648   -1.7453    0.4804 H   0  0  0  0  0  0  0  0  0  0  0  0
    3.7823    0.4437   -2.7988 H   0  0  0  0  0  0  0  0  0  0  0  0
    3.9655   -0.8261   -4.0350 H   0  0  0  0  0  0  0  0  0  0  0  0
    5.2107   -0.6351   -2.7638 H   0  0  0  0  0  0  0  0  0  0  0  0
  1  2  1  0
  1 22  1  0
  1 23  1  0
  1 24  1  0
  2  3  1  0
  3 12  1  0
  3  4  1  0
  3 25  1  1
  4  5  1  0
  4 26  1  0
  4 27  1  0
  5 10  1  0
  5  6  1  0
  5 28  1  6
  6 17  1  0
  6  7  1  0
  6 29  1  6
  7  8  1  0
  8  9  1  0
  8 30  1  0
  8 31  1  0
  9 10  1  0
 10 11  1  0
 10 32  1  6
 11 16  1  0
 11 12  1  0
 11 33  1  1
 12 13  1  0
 12 34  1  1
 13 14  1  0
 14 15  1  0
 14 16  1  0
 14 35  1  1
 15 36  1  0
 16 17  1  0
 16 37  1  1
 17 18  1  0
 17 38  1  1
 18 19  1  0
 19 20  1  0
 19 21  2  0
 20 39  1  0
 20 40  1  0
 20 41  1  0
M  END
>  <i_m_ct_stereo_status>  (73) 
1

>  <s_m_source_file>  (73) 
/var/tmp/pbs.5076255.sched01/tmpm7cr0ro2/0ctwvxj2z.sdf

>  <i_m_source_file_index>  (73) 
28

>  <i_lp_mmshare_version>  (73) 
48012

>  <i_f3d_flags>  (73) 
0

>  <s_epik_input>  (73) 
W0NIM11DKD1PKU9bQ0BASF0xW0NAQEhdMltDQEhdKFtPSF0pT1tDQEhdKFtDQEBIXShbQ0gyXTMpT1tDSDNdKVtDQEBIXTJbQ0hdNE9bQ0gyXU9bQ0BIXTFbQ0hdMzQ=

>  <s_epik_cmdline>  (73) 
J2VwaWtfcHl0aG9uJywgJy1waHQnLCAnMi4wJywgJy1waCcsICc3LjAnLCAnLXRuJywgJzgnLCAnLW1hJywgJzIwMCcsICctaW1hZScsICc8aW5maWxlLm1hZT4nLCAnLW9tYWUnLCAnPG91dGZpbGUubWFlPic=

>  <r_lp_tautomer_probability>  (73) 
1

>  <r_epik_Ionization_Penalty>  (73) 
9.00279e-08

>  <r_epik_Ionization_Penalty_Charging>  (73) 
0

>  <r_epik_Ionization_Penalty_Neutral>  (73) 
9.00279e-08

>  <r_epik_State_Penalty>  (73) 
-0

>  <r_epik_Charging_Adjusted_Penalty>  (73) 
0

>  <i_epik_Tot_Q>  (73) 
0

>  <i_epik_Tot_abs_Q>  (73) 
0

>  <s_epik_Chemistry_Notes>  (73) 
This compound has an ester and may undergo hydrolysis at high or low pH. This compound contains an acetal/aminal-like group ( X-CH(R)-Y where X, Y are N, S, or O) that may be acid/base labile, releasing an aldehyde.

>  <s_lp_Force_Field>  (73) 
OPLS3e

>  <r_lp_Energy>  (73) 
151.539

>  <b_lp_Chiralities_Consistent>  (73) 
1

>  <s_lp_Variant>  (73) 
18:0-1

>  <s_i_glide_gridfile>  (73) 
pfpi4k_grid

>  <i_i_glide_lignum>  (73) 
28

>  <i_i_glide_rotatable_bonds>  (73) 
4

>  <r_i_docking_score>  (73) 
-3.40928

>  <r_i_glide_ligand_efficiency>  (73) 
-0.162346

>  <r_i_glide_ligand_efficiency_sa>  (73) 
-0.447902

>  <r_i_glide_ligand_efficiency_ln>  (73) 
-0.842936

>  <r_i_glide_gscore>  (73) 
-3.40928

>  <r_i_glide_lipo>  (73) 
-0.478902

>  <r_i_glide_hbond>  (73) 
-0.0643995

>  <r_i_glide_metal>  (73) 
-0

>  <r_i_glide_rewards>  (73) 
-2.00219

>  <r_i_glide_evdw>  (73) 
-16.0078

>  <r_i_glide_ecoul>  (73) 
-1.02699

>  <r_i_glide_erotb>  (73) 
0.203805

>  <r_i_glide_esite>  (73) 
-0.113147

>  <r_i_glide_emodel>  (73) 
-24.4448

>  <r_i_glide_energy>  (73) 
-17.0348

>  <r_i_glide_einternal>  (73) 
3.71231

>  <r_i_glide_intrahb_reward>  (73) 
-0.5

>  <i_i_glide_confnum>  (73) 
1

>  <i_i_glide_posenum>  (73) 
4

>  <r_i_glide_eff_state_penalty>  (73) 
0

>  <ligand_id>  (73) 
18

>  <original_smiles>  (73) 
COC1CC2C3OCOC2C2C1OC(O)C2C3OC(C)=O

>  <smiles>  (73) 
[H]OC1([H])OC2([H])C([H])(OC([H])([H])[H])C([H])([H])C3([H])C4([H])OC([H])([H])OC3([H])C2([H])C1([H])C4([H])OC(=O)C([H])([H])[H]

$$$$
22:0:0
     RDKit          3D

 38 41  0  0  1  0  0  0  0  0999 V2000
   -2.3963    3.2671    3.2450 C   0  0  0  0  0  0  0  0  0  0  0  0
   -2.2853    4.5454    2.9147 N   0  0  0  0  0  0  0  0  0  0  0  0
   -1.0612    4.9159    3.4563 N   0  0  0  0  0  0  0  0  0  0  0  0
   -0.5029    3.9207    4.0793 N   0  0  0  0  0  0  0  0  0  0  0  0
   -1.3503    2.8642    3.9666 N   0  0  0  0  0  0  0  0  0  0  0  0
   -1.0340    1.5623    4.5229 C   0  0  0  0  0  0  0  0  0  0  0  0
   -0.4745    1.6467    5.9444 C   0  0  0  0  0  0  0  0  0  0  0  0
   -1.4271    2.2691    6.8117 O   0  0  0  0  0  0  0  0  0  0  0  0
   -0.9754    2.6275    8.1205 C   0  0  2  0  0  0  0  0  0  0  0  0
   -2.2310    3.0219    8.9446 C   0  0  0  0  0  0  0  0  0  0  0  0
   -1.8068    3.4178   10.3788 C   0  0  1  0  0  0  0  0  0  0  0  0
   -1.0988    2.2300   11.0624 C   0  0  0  0  0  0  0  0  0  0  0  0
    0.1425    1.8380   10.2437 C   0  0  2  0  0  0  0  0  0  0  0  0
    1.1149    3.0324   10.1587 C   0  0  0  0  0  0  0  0  0  0  0  0
    0.4019    4.2329    9.4988 C   0  0  2  0  0  0  0  0  0  0  0  0
   -0.8466    4.6228   10.3151 C   0  0  0  0  0  0  0  0  0  0  0  0
   -0.0193    3.8504    8.0663 C   0  0  0  0  0  0  0  0  0  0  0  0
   -0.2798    1.4331    8.8249 C   0  0  0  0  0  0  0  0  0  0  0  0
   -3.2260    2.6302    2.9774 H   0  0  0  0  0  0  0  0  0  0  0  0
   -1.9438    0.9572    4.5349 H   0  0  0  0  0  0  0  0  0  0  0  0
   -0.3140    1.0683    3.8668 H   0  0  0  0  0  0  0  0  0  0  0  0
   -0.2574    0.6347    6.2853 H   0  0  0  0  0  0  0  0  0  0  0  0
    0.4701    2.1928    5.9277 H   0  0  0  0  0  0  0  0  0  0  0  0
   -2.7587    3.8508    8.4669 H   0  0  0  0  0  0  0  0  0  0  0  0
   -2.9387    2.1919    8.9841 H   0  0  0  0  0  0  0  0  0  0  0  0
   -2.6860    3.6871   10.9634 H   0  0  0  0  0  0  0  0  0  0  0  0
   -0.8136    2.4954   12.0819 H   0  0  0  0  0  0  0  0  0  0  0  0
   -1.7808    1.3837   11.1518 H   0  0  0  0  0  0  0  0  0  0  0  0
    0.6396    0.9941   10.7202 H   0  0  0  0  0  0  0  0  0  0  0  0
    1.4744    3.2997   11.1521 H   0  0  0  0  0  0  0  0  0  0  0  0
    1.9950    2.7558    9.5762 H   0  0  0  0  0  0  0  0  0  0  0  0
    1.0860    5.0799    9.4593 H   0  0  0  0  0  0  0  0  0  0  0  0
   -1.3446    5.4770    9.8538 H   0  0  0  0  0  0  0  0  0  0  0  0
   -0.5647    4.9329   11.3218 H   0  0  0  0  0  0  0  0  0  0  0  0
    0.8813    3.6427    7.4894 H   0  0  0  0  0  0  0  0  0  0  0  0
   -0.5086    4.6947    7.5773 H   0  0  0  0  0  0  0  0  0  0  0  0
   -0.9493    0.5739    8.8577 H   0  0  0  0  0  0  0  0  0  0  0  0
    0.6205    1.1170    8.2980 H   0  0  0  0  0  0  0  0  0  0  0  0
  1  5  1  0
  1  2  2  0
  1 19  1  0
  2  3  1  0
  3  4  2  0
  4  5  1  0
  5  6  1  0
  6  7  1  0
  6 20  1  0
  6 21  1  0
  7  8  1  0
  7 22  1  0
  7 23  1  0
  9  8  1  6
  9 17  1  0
  9 18  1  0
  9 10  1  0
 10 11  1  0
 10 24  1  0
 10 25  1  0
 11 16  1  0
 11 12  1  0
 11 26  1  1
 12 13  1  0
 12 27  1  0
 12 28  1  0
 13 14  1  0
 13 18  1  0
 13 29  1  1
 14 15  1  0
 14 30  1  0
 14 31  1  0
 15 16  1  0
 15 17  1  0
 15 32  1  6
 16 33  1  0
 16 34  1  0
 17 35  1  0
 17 36  1  0
 18 37  1  0
 18 38  1  0
M  END
>  <i_m_ct_stereo_status>  (74) 
1

>  <s_m_source_file>  (74) 
/var/tmp/pbs.5076255.sched01/tmpm7cr0ro2/0ctwvxj2z.sdf

>  <i_m_source_file_index>  (74) 
32

>  <i_lp_mmshare_version>  (74) 
48012

>  <i_f3d_flags>  (74) 
0

>  <s_epik_input>  (74) 
bjFubltjSF1uMVtDSDJdW0NIMl1PQzIzW0NIMl1bQ0BIXTRbQ0gyXVtDQEBIXShbQ0gyXTMpW0NIMl1bQ0BIXShbQ0gyXTQpW0NIMl0y

>  <s_epik_cmdline>  (74) 
J2VwaWtfcHl0aG9uJywgJy1waHQnLCAnMi4wJywgJy1waCcsICc3LjAnLCAnLXRuJywgJzgnLCAnLW1hJywgJzIwMCcsICctaW1hZScsICc8aW5maWxlLm1hZT4nLCAnLW9tYWUnLCAnPG91dGZpbGUubWFlPic=

>  <r_lp_tautomer_probability>  (74) 
1

>  <r_epik_Ionization_Penalty>  (74) 
2.85178e-09

>  <r_epik_Ionization_Penalty_Charging>  (74) 
0

>  <r_epik_Ionization_Penalty_Neutral>  (74) 
2.85178e-09

>  <r_epik_State_Penalty>  (74) 
-0

>  <r_epik_Charging_Adjusted_Penalty>  (74) 
0

>  <i_epik_Tot_Q>  (74) 
0

>  <i_epik_Tot_abs_Q>  (74) 
0

>  <s_lp_Force_Field>  (74) 
OPLS3e

>  <r_lp_Energy>  (74) 
5.42468

>  <b_lp_Chiralities_Consistent>  (74) 
1

>  <s_lp_Variant>  (74) 
22:0-1

>  <s_i_glide_gridfile>  (74) 
pfpi4k_grid

>  <i_i_glide_lignum>  (74) 
32

>  <i_i_glide_rotatable_bonds>  (74) 
4

>  <r_i_docking_score>  (74) 
-2.71606

>  <r_i_glide_ligand_efficiency>  (74) 
-0.150892

>  <r_i_glide_ligand_efficiency_sa>  (74) 
-0.395449

>  <r_i_glide_ligand_efficiency_ln>  (74) 
-0.698149

>  <r_i_glide_gscore>  (74) 
-2.71606

>  <r_i_glide_lipo>  (74) 
0

>  <r_i_glide_hbond>  (74) 
0

>  <r_i_glide_metal>  (74) 
-0

>  <r_i_glide_rewards>  (74) 
-1.71597

>  <r_i_glide_evdw>  (74) 
-13.7086

>  <r_i_glide_ecoul>  (74) 
-3.44533

>  <r_i_glide_erotb>  (74) 
0.566492

>  <r_i_glide_esite>  (74) 
-0.364348

>  <r_i_glide_emodel>  (74) 
-20.5776

>  <r_i_glide_energy>  (74) 
-17.1539

>  <r_i_glide_einternal>  (74) 
0.605771

>  <r_i_glide_intrahb_reward>  (74) 
-0

>  <i_i_glide_confnum>  (74) 
5

>  <i_i_glide_posenum>  (74) 
16

>  <r_i_glide_eff_state_penalty>  (74) 
0

>  <ligand_id>  (74) 
22

>  <original_smiles>  (74) 
c1nnnn1CCOC12CC3CC(CC(C3)C1)C2

>  <smiles>  (74) 
[H]c1nnnn1C([H])([H])C([H])([H])OC12C([H])([H])C3([H])C([H])([H])C([H])(C([H])([H])C([H])(C3([H])[H])C1([H])[H])C2([H])[H]

$$$$
22:0:1
     RDKit          3D

 38 41  0  0  1  0  0  0  0  0999 V2000
   -0.0154   -4.6695    7.6106 C   0  0  0  0  0  0  0  0  0  0  0  0
   -0.8671   -3.8547    8.2095 N   0  0  0  0  0  0  0  0  0  0  0  0
   -0.9492   -4.3445    9.5025 N   0  0  0  0  0  0  0  0  0  0  0  0
   -0.1949   -5.3964    9.6459 N   0  0  0  0  0  0  0  0  0  0  0  0
    0.3811   -5.6404    8.4465 N   0  0  0  0  0  0  0  0  0  0  0  0
    1.2886   -6.7621    8.2600 C   0  0  0  0  0  0  0  0  0  0  0  0
    0.8746   -7.6674    7.0965 C   0  0  0  0  0  0  0  0  0  0  0  0
    0.8073   -6.8873    5.9001 O   0  0  0  0  0  0  0  0  0  0  0  0
    0.5590   -7.5644    4.6673 C   0  0  2  0  0  0  0  0  0  0  0  0
    1.6809   -8.5967    4.3932 C   0  0  0  0  0  0  0  0  0  0  0  0
    1.4587   -9.2542    3.0247 C   0  0  1  0  0  0  0  0  0  0  0  0
    0.0889   -9.9653    3.0281 C   0  0  0  0  0  0  0  0  0  0  0  0
   -1.0334   -8.9333    3.2734 C   0  0  2  0  0  0  0  0  0  0  0  0
   -1.0010   -7.8658    2.1658 C   0  0  0  0  0  0  0  0  0  0  0  0
    0.3703   -7.1583    2.1715 C   0  0  2  0  0  0  0  0  0  0  0  0
    1.5014   -8.1806    1.9235 C   0  0  0  0  0  0  0  0  0  0  0  0
    0.5852   -6.4849    3.5469 C   0  0  0  0  0  0  0  0  0  0  0  0
   -0.8282   -8.2575    4.6438 C   0  0  0  0  0  0  0  0  0  0  0  0
    0.2967   -4.5732    6.5777 H   0  0  0  0  0  0  0  0  0  0  0  0
    2.2872   -6.3676    8.0701 H   0  0  0  0  0  0  0  0  0  0  0  0
    1.3360   -7.3547    9.1720 H   0  0  0  0  0  0  0  0  0  0  0  0
    1.6282   -8.4493    7.0282 H   0  0  0  0  0  0  0  0  0  0  0  0
   -0.0922   -8.1336    7.3114 H   0  0  0  0  0  0  0  0  0  0  0  0
    2.6524   -8.1008    4.4321 H   0  0  0  0  0  0  0  0  0  0  0  0
    1.6948   -9.3948    5.1345 H   0  0  0  0  0  0  0  0  0  0  0  0
    2.2493   -9.9849    2.8531 H   0  0  0  0  0  0  0  0  0  0  0  0
   -0.0663  -10.4877    2.0837 H   0  0  0  0  0  0  0  0  0  0  0  0
    0.0650  -10.7245    3.8118 H   0  0  0  0  0  0  0  0  0  0  0  0
   -1.9973   -9.4445    3.2667 H   0  0  0  0  0  0  0  0  0  0  0  0
   -1.1835   -8.3278    1.1982 H   0  0  0  0  0  0  0  0  0  0  0  0
   -1.7997   -7.1429    2.3303 H   0  0  0  0  0  0  0  0  0  0  0  0
    0.3981   -6.4140    1.3768 H   0  0  0  0  0  0  0  0  0  0  0  0
    2.4708   -7.6795    1.9308 H   0  0  0  0  0  0  0  0  0  0  0  0
    1.4078   -8.6459    0.9426 H   0  0  0  0  0  0  0  0  0  0  0  0
   -0.1845   -5.7273    3.7205 H   0  0  0  0  0  0  0  0  0  0  0  0
    1.5381   -5.9539    3.5506 H   0  0  0  0  0  0  0  0  0  0  0  0
   -0.9163   -9.0223    5.4150 H   0  0  0  0  0  0  0  0  0  0  0  0
   -1.6256   -7.5356    4.8302 H   0  0  0  0  0  0  0  0  0  0  0  0
  1  5  1  0
  1  2  2  0
  1 19  1  0
  2  3  1  0
  3  4  2  0
  4  5  1  0
  5  6  1  0
  6  7  1  0
  6 20  1  0
  6 21  1  0
  7  8  1  0
  7 22  1  0
  7 23  1  0
  9  8  1  1
  9 17  1  0
  9 18  1  0
  9 10  1  0
 10 11  1  0
 10 24  1  0
 10 25  1  0
 11 16  1  0
 11 12  1  0
 11 26  1  6
 12 13  1  0
 12 27  1  0
 12 28  1  0
 13 14  1  0
 13 18  1  0
 13 29  1  1
 14 15  1  0
 14 30  1  0
 14 31  1  0
 15 16  1  0
 15 17  1  0
 15 32  1  6
 16 33  1  0
 16 34  1  0
 17 35  1  0
 17 36  1  0
 18 37  1  0
 18 38  1  0
M  END
>  <i_m_ct_stereo_status>  (75) 
1

>  <s_m_source_file>  (75) 
/var/tmp/pbs.5076255.sched01/tmpm7cr0ro2/0ctwvxj2z.sdf

>  <i_m_source_file_index>  (75) 
32

>  <i_lp_mmshare_version>  (75) 
48012

>  <i_f3d_flags>  (75) 
0

>  <s_epik_input>  (75) 
bjFubltjSF1uMVtDSDJdW0NIMl1PQzIzW0NIMl1bQ0BIXTRbQ0gyXVtDQEBIXShbQ0gyXTMpW0NIMl1bQ0BIXShbQ0gyXTQpW0NIMl0y

>  <s_epik_cmdline>  (75) 
J2VwaWtfcHl0aG9uJywgJy1waHQnLCAnMi4wJywgJy1waCcsICc3LjAnLCAnLXRuJywgJzgnLCAnLW1hJywgJzIwMCcsICctaW1hZScsICc8aW5maWxlLm1hZT4nLCAnLW9tYWUnLCAnPG91dGZpbGUubWFlPic=

>  <r_lp_tautomer_probability>  (75) 
1

>  <r_epik_Ionization_Penalty>  (75) 
2.85178e-09

>  <r_epik_Ionization_Penalty_Charging>  (75) 
0

>  <r_epik_Ionization_Penalty_Neutral>  (75) 
2.85178e-09

>  <r_epik_State_Penalty>  (75) 
-0

>  <r_epik_Charging_Adjusted_Penalty>  (75) 
0

>  <i_epik_Tot_Q>  (75) 
0

>  <i_epik_Tot_abs_Q>  (75) 
0

>  <s_lp_Force_Field>  (75) 
OPLS3e

>  <r_lp_Energy>  (75) 
5.42468

>  <b_lp_Chiralities_Consistent>  (75) 
1

>  <s_lp_Variant>  (75) 
22:0-1

>  <s_i_glide_gridfile>  (75) 
pfpi4k_grid

>  <i_i_glide_lignum>  (75) 
32

>  <i_i_glide_rotatable_bonds>  (75) 
4

>  <r_i_docking_score>  (75) 
-2.46082

>  <r_i_glide_ligand_efficiency>  (75) 
-0.136712

>  <r_i_glide_ligand_efficiency_sa>  (75) 
-0.358287

>  <r_i_glide_ligand_efficiency_ln>  (75) 
-0.63254

>  <r_i_glide_gscore>  (75) 
-2.46082

>  <r_i_glide_lipo>  (75) 
0

>  <r_i_glide_hbond>  (75) 
0

>  <r_i_glide_metal>  (75) 
-0

>  <r_i_glide_rewards>  (75) 
-1.71597

>  <r_i_glide_evdw>  (75) 
-17.1515

>  <r_i_glide_ecoul>  (75) 
-2.30873

>  <r_i_glide_erotb>  (75) 
0.566492

>  <r_i_glide_esite>  (75) 
-0.107455

>  <r_i_glide_emodel>  (75) 
-22.08

>  <r_i_glide_energy>  (75) 
-19.4602

>  <r_i_glide_einternal>  (75) 
1.22172

>  <r_i_glide_intrahb_reward>  (75) 
-0

>  <i_i_glide_confnum>  (75) 
4

>  <i_i_glide_posenum>  (75) 
1

>  <r_i_glide_eff_state_penalty>  (75) 
0

>  <ligand_id>  (75) 
22

>  <original_smiles>  (75) 
c1nnnn1CCOC12CC3CC(CC(C3)C1)C2

>  <smiles>  (75) 
[H]c1nnnn1C([H])([H])C([H])([H])OC12C([H])([H])C3([H])C([H])([H])C([H])(C([H])([H])C([H])(C3([H])[H])C1([H])[H])C2([H])[H]

$$$$
22:0:2
     RDKit          3D

 38 41  0  0  1  0  0  0  0  0999 V2000
    0.2310   -1.5796    4.5603 C   0  0  0  0  0  0  0  0  0  0  0  0
   -0.8892   -0.8781    4.4837 N   0  0  0  0  0  0  0  0  0  0  0  0
   -1.6969   -1.4367    5.4618 N   0  0  0  0  0  0  0  0  0  0  0  0
   -1.0781   -2.4037    6.0789 N   0  0  0  0  0  0  0  0  0  0  0  0
    0.1426   -2.5175    5.5070 N   0  0  0  0  0  0  0  0  0  0  0  0
    1.1078   -3.4901    5.9707 C   0  0  0  0  0  0  0  0  0  0  0  0
    0.6801   -4.9275    5.6783 C   0  0  0  0  0  0  0  0  0  0  0  0
    0.6467   -5.1424    4.2648 O   0  0  0  0  0  0  0  0  0  0  0  0
    0.5242   -6.4935    3.8071 C   0  0  2  0  0  0  0  0  0  0  0  0
    0.6109   -6.4569    2.2557 C   0  0  0  0  0  0  0  0  0  0  0  0
    0.5048   -7.8899    1.6889 C   0  0  1  0  0  0  0  0  0  0  0  0
    1.6600   -8.7591    2.2311 C   0  0  0  0  0  0  0  0  0  0  0  0
    1.5741   -8.7936    3.7676 C   0  0  2  0  0  0  0  0  0  0  0  0
    0.2238   -9.3927    4.2157 C   0  0  0  0  0  0  0  0  0  0  0  0
   -0.9339   -8.5452    3.6488 C   0  0  2  0  0  0  0  0  0  0  0  0
   -0.8479   -8.5077    2.1108 C   0  0  0  0  0  0  0  0  0  0  0  0
   -0.8412   -7.1129    4.2058 C   0  0  0  0  0  0  0  0  0  0  0  0
    1.6939   -7.3715    4.3330 C   0  0  0  0  0  0  0  0  0  0  0  0
    1.1079   -1.4170    3.9481 H   0  0  0  0  0  0  0  0  0  0  0  0
    2.0640   -3.3022    5.4828 H   0  0  0  0  0  0  0  0  0  0  0  0
    1.2508   -3.3588    7.0446 H   0  0  0  0  0  0  0  0  0  0  0  0
    1.4255   -5.5501    6.1691 H   0  0  0  0  0  0  0  0  0  0  0  0
   -0.2964   -5.1455    6.1216 H   0  0  0  0  0  0  0  0  0  0  0  0
   -0.1794   -5.8495    1.8277 H   0  0  0  0  0  0  0  0  0  0  0  0
    1.5482   -6.0007    1.9356 H   0  0  0  0  0  0  0  0  0  0  0  0
    0.5701   -7.8473    0.6020 H   0  0  0  0  0  0  0  0  0  0  0  0
    1.6017   -9.7723    1.8263 H   0  0  0  0  0  0  0  0  0  0  0  0
    2.6212   -8.3478    1.9171 H   0  0  0  0  0  0  0  0  0  0  0  0
    2.3910   -9.3950    4.1629 H   0  0  0  0  0  0  0  0  0  0  0  0
    0.1351  -10.4284    3.8883 H   0  0  0  0  0  0  0  0  0  0  0  0
    0.1654   -9.4111    5.3049 H   0  0  0  0  0  0  0  0  0  0  0  0
   -1.8823   -8.9912    3.9474 H   0  0  0  0  0  0  0  0  0  0  0  0
   -1.6718   -7.9227    1.7057 H   0  0  0  0  0  0  0  0  0  0  0  0
   -0.9591   -9.5129    1.7026 H   0  0  0  0  0  0  0  0  0  0  0  0
   -0.9597   -7.1508    5.2859 H   0  0  0  0  0  0  0  0  0  0  0  0
   -1.6706   -6.5160    3.8296 H   0  0  0  0  0  0  0  0  0  0  0  0
    2.6498   -6.9243    4.0517 H   0  0  0  0  0  0  0  0  0  0  0  0
    1.6894   -7.4736    5.4182 H   0  0  0  0  0  0  0  0  0  0  0  0
  1  5  1  0
  1  2  2  0
  1 19  1  0
  2  3  1  0
  3  4  2  0
  4  5  1  0
  5  6  1  0
  6  7  1  0
  6 20  1  0
  6 21  1  0
  7  8  1  0
  7 22  1  0
  7 23  1  0
  9  8  1  1
  9 17  1  0
  9 18  1  0
  9 10  1  0
 10 11  1  0
 10 24  1  0
 10 25  1  0
 11 16  1  0
 11 12  1  0
 11 26  1  6
 12 13  1  0
 12 27  1  0
 12 28  1  0
 13 14  1  0
 13 18  1  0
 13 29  1  1
 14 15  1  0
 14 30  1  0
 14 31  1  0
 15 16  1  0
 15 17  1  0
 15 32  1  6
 16 33  1  0
 16 34  1  0
 17 35  1  0
 17 36  1  0
 18 37  1  0
 18 38  1  0
M  END
>  <i_m_ct_stereo_status>  (76) 
1

>  <s_m_source_file>  (76) 
/var/tmp/pbs.5076255.sched01/tmpm7cr0ro2/0ctwvxj2z.sdf

>  <i_m_source_file_index>  (76) 
32

>  <i_lp_mmshare_version>  (76) 
48012

>  <i_f3d_flags>  (76) 
0

>  <s_epik_input>  (76) 
bjFubltjSF1uMVtDSDJdW0NIMl1PQzIzW0NIMl1bQ0BIXTRbQ0gyXVtDQEBIXShbQ0gyXTMpW0NIMl1bQ0BIXShbQ0gyXTQpW0NIMl0y

>  <s_epik_cmdline>  (76) 
J2VwaWtfcHl0aG9uJywgJy1waHQnLCAnMi4wJywgJy1waCcsICc3LjAnLCAnLXRuJywgJzgnLCAnLW1hJywgJzIwMCcsICctaW1hZScsICc8aW5maWxlLm1hZT4nLCAnLW9tYWUnLCAnPG91dGZpbGUubWFlPic=

>  <r_lp_tautomer_probability>  (76) 
1

>  <r_epik_Ionization_Penalty>  (76) 
2.85178e-09

>  <r_epik_Ionization_Penalty_Charging>  (76) 
0

>  <r_epik_Ionization_Penalty_Neutral>  (76) 
2.85178e-09

>  <r_epik_State_Penalty>  (76) 
-0

>  <r_epik_Charging_Adjusted_Penalty>  (76) 
0

>  <i_epik_Tot_Q>  (76) 
0

>  <i_epik_Tot_abs_Q>  (76) 
0

>  <s_lp_Force_Field>  (76) 
OPLS3e

>  <r_lp_Energy>  (76) 
5.42468

>  <b_lp_Chiralities_Consistent>  (76) 
1

>  <s_lp_Variant>  (76) 
22:0-1

>  <s_i_glide_gridfile>  (76) 
pfpi4k_grid

>  <i_i_glide_lignum>  (76) 
32

>  <i_i_glide_rotatable_bonds>  (76) 
4

>  <r_i_docking_score>  (76) 
-2.23919

>  <r_i_glide_ligand_efficiency>  (76) 
-0.1244

>  <r_i_glide_ligand_efficiency_sa>  (76) 
-0.326019

>  <r_i_glide_ligand_efficiency_ln>  (76) 
-0.575573

>  <r_i_glide_gscore>  (76) 
-2.23919

>  <r_i_glide_lipo>  (76) 
0

>  <r_i_glide_hbond>  (76) 
0

>  <r_i_glide_metal>  (76) 
-0

>  <r_i_glide_rewards>  (76) 
-1.71597

>  <r_i_glide_evdw>  (76) 
-17.6383

>  <r_i_glide_ecoul>  (76) 
-0.411058

>  <r_i_glide_erotb>  (76) 
0.566492

>  <r_i_glide_esite>  (76) 
-0.146139

>  <r_i_glide_emodel>  (76) 
-20.8136

>  <r_i_glide_energy>  (76) 
-18.0493

>  <r_i_glide_einternal>  (76) 
0.352171

>  <r_i_glide_intrahb_reward>  (76) 
-0

>  <i_i_glide_confnum>  (76) 
4

>  <i_i_glide_posenum>  (76) 
14

>  <r_i_glide_eff_state_penalty>  (76) 
0

>  <ligand_id>  (76) 
22

>  <original_smiles>  (76) 
c1nnnn1CCOC12CC3CC(CC(C3)C1)C2

>  <smiles>  (76) 
[H]c1nnnn1C([H])([H])C([H])([H])OC12C([H])([H])C3([H])C([H])([H])C([H])(C([H])([H])C([H])(C3([H])[H])C1([H])[H])C2([H])[H]

$$$$
23:0:0
     RDKit          3D

 52 57  0  0  1  0  0  0  0  0999 V2000
    7.9159   -6.2833    1.5252 C   0  0  0  0  0  0  0  0  0  0  0  0
    7.0684   -5.4348    0.5581 C   0  0  0  0  0  0  0  0  0  0  0  0
    6.3600   -4.2154    1.1935 C   0  0  2  0  0  0  0  0  0  0  0  0
    5.3227   -4.6647    2.2810 C   0  0  0  0  0  0  0  0  0  0  0  0
    4.7517   -3.4799    3.0461 C   0  0  0  0  0  0  0  0  0  0  0  0
    4.9792   -3.1505    4.4006 C   0  0  0  0  0  0  0  0  0  0  0  0
    4.9756   -1.7957    4.8059 C   0  0  0  0  0  0  0  0  0  0  0  0
    4.8935   -0.7545    3.8356 C   0  0  0  0  0  0  0  0  0  0  0  0
    5.0239    0.5479    4.2325 O   0  0  0  0  0  0  0  0  0  0  0  0
    4.7316   -1.0636    2.4755 C   0  0  0  0  0  0  0  0  0  0  0  0
    4.5381   -2.4098    2.1681 C   0  0  0  0  0  0  0  0  0  0  0  0
    4.4360   -2.5311    0.6779 C   0  0  2  0  0  0  0  0  0  0  0  0
    3.1727   -3.0061   -0.0705 C   0  0  0  0  0  0  0  0  0  0  0  0
    3.3741   -2.8186   -1.6189 C   0  0  0  0  0  0  0  0  0  0  0  0
    4.2891   -1.6875   -2.0604 N   0  0  1  0  0  0  0  0  0  0  0  0
    3.5217   -0.5877   -2.7132 C   0  0  0  0  0  0  0  0  0  0  0  0
    3.1027   -0.8943   -4.1298 C   0  0  0  0  0  0  0  0  0  0  0  0
    3.6541   -0.1122   -5.2993 C   0  0  0  0  0  0  0  0  0  0  0  0
    2.2377    0.1124   -4.8666 C   0  0  0  0  0  0  0  0  0  0  0  0
    5.2656   -1.1971   -1.0154 C   0  0  2  0  0  0  0  0  0  0  0  0
    6.3635   -2.2387   -0.6631 C   0  0  0  0  0  0  0  0  0  0  0  0
    5.6310   -3.3368    0.1224 C   0  0  1  0  0  0  0  0  0  0  0  0
    4.4711   -1.0459    0.2665 C   0  0  2  0  0  0  0  0  0  0  0  0
    4.9120   -0.2575    1.3754 O   0  0  0  0  0  0  0  0  0  0  0  0
    8.4602   -7.0682    0.9935 H   0  0  0  0  0  0  0  0  0  0  0  0
    7.3124   -6.7921    2.2773 H   0  0  0  0  0  0  0  0  0  0  0  0
    8.6548   -5.6748    2.0456 H   0  0  0  0  0  0  0  0  0  0  0  0
    7.7305   -5.0755   -0.2278 H   0  0  0  0  0  0  0  0  0  0  0  0
    6.3320   -6.0877    0.0859 H   0  0  0  0  0  0  0  0  0  0  0  0
    7.1291   -3.6134    1.6814 H   0  0  0  0  0  0  0  0  0  0  0  0
    4.5206   -5.2697    1.8562 H   0  0  0  0  0  0  0  0  0  0  0  0
    5.8266   -5.2778    3.0159 H   0  0  0  0  0  0  0  0  0  0  0  0
    5.2728   -3.9184    5.1136 H   0  0  0  0  0  0  0  0  0  0  0  0
    5.1645   -1.5404    5.8351 H   0  0  0  0  0  0  0  0  0  0  0  0
    4.8432    1.1599    3.5345 H   0  0  0  0  0  0  0  0  0  0  0  0
    2.9275   -4.0453    0.1450 H   0  0  0  0  0  0  0  0  0  0  0  0
    2.3128   -2.4209    0.2529 H   0  0  0  0  0  0  0  0  0  0  0  0
    3.7752   -3.7243   -2.0501 H   0  0  0  0  0  0  0  0  0  0  0  0
    2.4077   -2.7213   -2.0896 H   0  0  0  0  0  0  0  0  0  0  0  0
    2.6113   -0.4124   -2.1552 H   0  0  0  0  0  0  0  0  0  0  0  0
    4.0766    0.3449   -2.7284 H   0  0  0  0  0  0  0  0  0  0  0  0
    2.7908   -1.9218   -4.3055 H   0  0  0  0  0  0  0  0  0  0  0  0
    4.3653    0.6897   -5.1027 H   0  0  0  0  0  0  0  0  0  0  0  0
    3.8062   -0.6498   -6.2291 H   0  0  0  0  0  0  0  0  0  0  0  0
    1.4357   -0.2491   -5.5034 H   0  0  0  0  0  0  0  0  0  0  0  0
    1.9932    1.0495   -4.3846 H   0  0  0  0  0  0  0  0  0  0  0  0
    5.7097   -0.2589   -1.3203 H   0  0  0  0  0  0  0  0  0  0  0  0
    6.9388   -2.6238   -1.5112 H   0  0  0  0  0  0  0  0  0  0  0  0
    7.0625   -1.7609    0.0149 H   0  0  0  0  0  0  0  0  0  0  0  0
    5.2958   -4.0602   -0.6215 H   0  0  0  0  0  0  0  0  0  0  0  0
    3.4824   -0.6134    0.0670 H   0  0  0  0  0  0  0  0  0  0  0  0
    4.8661   -2.0566   -2.8063 H   0  0  0  0  0  0  0  0  0  0  0  0
  1  2  1  0
  1 25  1  0
  1 26  1  0
  1 27  1  0
  2  3  1  0
  2 28  1  0
  2 29  1  0
  3 22  1  0
  3  4  1  0
  3 30  1  1
  4  5  1  0
  4 31  1  0
  4 32  1  0
  5 11  2  0
  5  6  1  0
  6  7  2  0
  6 33  1  0
  7  8  1  0
  7 34  1  0
  8  9  1  0
  8 10  2  0
  9 35  1  0
 10 24  1  0
 10 11  1  0
 11 12  1  0
 12 22  1  0
 12 23  1  0
 12 13  1  1
 13 14  1  0
 13 36  1  0
 13 37  1  0
 14 15  1  0
 14 38  1  0
 14 39  1  0
 15 16  1  0
 15 20  1  0
 15 52  1  6
 16 17  1  0
 16 40  1  0
 16 41  1  0
 17 19  1  0
 17 18  1  0
 17 42  1  0
 18 19  1  0
 18 43  1  0
 18 44  1  0
 19 45  1  0
 19 46  1  0
 20 21  1  0
 20 23  1  0
 20 47  1  6
 21 22  1  0
 21 48  1  0
 21 49  1  0
 22 50  1  6
 23 24  1  0
 23 51  1  6
M  CHG  1  15   1
M  END
>  <i_m_ct_stereo_status>  (77) 
1

>  <s_m_source_file>  (77) 
/var/tmp/pbs.5076255.sched01/tmpm7cr0ro2/0ctwvxj2z.sdf

>  <i_m_source_file_index>  (77) 
33

>  <i_lp_mmshare_version>  (77) 
48012

>  <i_f3d_flags>  (77) 
0

>  <s_epik_input>  (77) 
W0NIM11bQ0gyXVtDQEhdKFtDSDJdMSlbQ0BASF0yW0NIMl1bQ0BASF0oTihbQ0gyXVtDSDJdMylbQ0gyXVtDSF00W0NIMl1bQ0gyXTQpW0NAQEhdNU9jNmMoW09IXSlbY0hdW2NIXWMxYzZbQ0BAXTIzNQ==

>  <s_epik_cmdline>  (77) 
J2VwaWtfcHl0aG9uJywgJy1waHQnLCAnMi4wJywgJy1waCcsICc3LjAnLCAnLXRuJywgJzgnLCAnLW1hJywgJzIwMCcsICctaW1hZScsICc8aW5maWxlLm1hZT4nLCAnLW9tYWUnLCAnPG91dGZpbGUubWFlPic=

>  <r_lp_tautomer_probability>  (77) 
1

>  <r_epik_Ionization_Penalty>  (77) 
0.0147346

>  <r_epik_Ionization_Penalty_Charging>  (77) 
0.0119119

>  <r_epik_Ionization_Penalty_Neutral>  (77) 
0.00282265

>  <r_epik_State_Penalty>  (77) 
0.00919304

>  <r_epik_Charging_Adjusted_Penalty>  (77) 
0.0211049

>  <i_epik_Tot_Q>  (77) 
1

>  <i_epik_Tot_abs_Q>  (77) 
1

>  <s_lp_Force_Field>  (77) 
OPLS3e

>  <r_lp_Energy>  (77) 
87.8936

>  <b_lp_Chiralities_Consistent>  (77) 
1

>  <s_lp_Variant>  (77) 
23:0-1

>  <s_i_glide_gridfile>  (77) 
pfpi4k_grid

>  <i_i_glide_lignum>  (77) 
33

>  <i_i_glide_rotatable_bonds>  (77) 
4

>  <r_i_docking_score>  (77) 
-3.4694

>  <r_i_glide_ligand_efficiency>  (77) 
-0.144558

>  <r_i_glide_ligand_efficiency_sa>  (77) 
-0.416979

>  <r_i_glide_ligand_efficiency_ln>  (77) 
-0.830387

>  <r_i_glide_gscore>  (77) 
-3.4694

>  <r_i_glide_lipo>  (77) 
-0.792429

>  <r_i_glide_hbond>  (77) 
-0.0499734

>  <r_i_glide_metal>  (77) 
-0

>  <r_i_glide_rewards>  (77) 
-1.18328

>  <r_i_glide_evdw>  (77) 
-22.0804

>  <r_i_glide_ecoul>  (77) 
-4.41613

>  <r_i_glide_erotb>  (77) 
0.35197

>  <r_i_glide_esite>  (77) 
-0.0292502

>  <r_i_glide_emodel>  (77) 
-33.4892

>  <r_i_glide_energy>  (77) 
-26.4966

>  <r_i_glide_einternal>  (77) 
0.87088

>  <r_i_glide_intrahb_reward>  (77) 
-0

>  <i_i_glide_confnum>  (77) 
2

>  <i_i_glide_posenum>  (77) 
2

>  <r_i_glide_eff_state_penalty>  (77) 
0

>  <ligand_id>  (77) 
23

>  <original_smiles>  (77) 
CCC1Cc2ccc(O)c3c2C24CCN(CC5CC5)C(CC12)C4O3

>  <smiles>  (77) 
[H]Oc1c([H])c([H])c2c3c1OC1([H])C34C([H])([H])C([H])([H])[N+]([H])(C([H])([H])C3([H])C([H])([H])C3([H])[H])C1([H])C([H])([H])C4([H])C([H])(C([H])([H])C([H])([H])[H])C2([H])[H]

$$$$
23:0:1
     RDKit          3D

 52 57  0  0  1  0  0  0  0  0999 V2000
    5.2887   -0.7887    2.8265 C   0  0  0  0  0  0  0  0  0  0  0  0
    5.7146   -2.2505    2.6857 C   0  0  0  0  0  0  0  0  0  0  0  0
    4.7211   -3.1948    1.9999 C   0  0  2  0  0  0  0  0  0  0  0  0
    5.2351   -4.6720    2.1333 C   0  0  0  0  0  0  0  0  0  0  0  0
    4.2189   -5.6866    1.6234 C   0  0  0  0  0  0  0  0  0  0  0  0
    3.4528   -6.6059    2.3679 C   0  0  0  0  0  0  0  0  0  0  0  0
    2.1409   -6.9594    1.9429 C   0  0  0  0  0  0  0  0  0  0  0  0
    1.5278   -6.2549    0.8802 C   0  0  0  0  0  0  0  0  0  0  0  0
    0.2181   -6.4951    0.5672 O   0  0  0  0  0  0  0  0  0  0  0  0
    2.2589   -5.2849    0.1470 C   0  0  0  0  0  0  0  0  0  0  0  0
    3.5998   -5.1511    0.4818 C   0  0  0  0  0  0  0  0  0  0  0  0
    4.1727   -4.0483   -0.3742 C   0  0  2  0  0  0  0  0  0  0  0  0
    5.2796   -4.2393   -1.4321 C   0  0  0  0  0  0  0  0  0  0  0  0
    5.4747   -2.9087   -2.2524 C   0  0  0  0  0  0  0  0  0  0  0  0
    4.2458   -2.0610   -2.4390 N   0  0  1  0  0  0  0  0  0  0  0  0
    3.6964   -2.0734   -3.8185 C   0  0  0  0  0  0  0  0  0  0  0  0
    4.0477   -0.8180   -4.5626 C   0  0  0  0  0  0  0  0  0  0  0  0
    3.5353    0.5492   -4.2032 C   0  0  0  0  0  0  0  0  0  0  0  0
    3.0771   -0.0898   -5.4695 C   0  0  0  0  0  0  0  0  0  0  0  0
    3.1556   -2.2644   -1.4414 C   0  0  2  0  0  0  0  0  0  0  0  0
    3.5226   -1.8006   -0.0051 C   0  0  0  0  0  0  0  0  0  0  0  0
    4.5543   -2.8398    0.4883 C   0  0  1  0  0  0  0  0  0  0  0  0
    2.9733   -3.7336   -1.2766 C   0  0  2  0  0  0  0  0  0  0  0  0
    1.8111   -4.3239   -0.7150 O   0  0  0  0  0  0  0  0  0  0  0  0
    6.0810   -0.1852    3.2804 H   0  0  0  0  0  0  0  0  0  0  0  0
    4.3975   -0.7047    3.4497 H   0  0  0  0  0  0  0  0  0  0  0  0
    5.0846   -0.3358    1.8604 H   0  0  0  0  0  0  0  0  0  0  0  0
    6.6484   -2.2933    2.1291 H   0  0  0  0  0  0  0  0  0  0  0  0
    5.8869   -2.6218    3.6934 H   0  0  0  0  0  0  0  0  0  0  0  0
    3.7683   -3.1320    2.5261 H   0  0  0  0  0  0  0  0  0  0  0  0
    6.1919   -4.8378    1.6353 H   0  0  0  0  0  0  0  0  0  0  0  0
    5.3895   -4.8939    3.1844 H   0  0  0  0  0  0  0  0  0  0  0  0
    3.8084   -6.9657    3.3271 H   0  0  0  0  0  0  0  0  0  0  0  0
    1.5669   -7.6617    2.5238 H   0  0  0  0  0  0  0  0  0  0  0  0
   -0.0778   -7.3332    0.8912 H   0  0  0  0  0  0  0  0  0  0  0  0
    6.2111   -4.5333   -0.9536 H   0  0  0  0  0  0  0  0  0  0  0  0
    4.9914   -5.0380   -2.1157 H   0  0  0  0  0  0  0  0  0  0  0  0
    6.2275   -2.3010   -1.7650 H   0  0  0  0  0  0  0  0  0  0  0  0
    5.9518   -3.1445   -3.1947 H   0  0  0  0  0  0  0  0  0  0  0  0
    4.0567   -2.9119   -4.4086 H   0  0  0  0  0  0  0  0  0  0  0  0
    2.6209   -2.1781   -3.8702 H   0  0  0  0  0  0  0  0  0  0  0  0
    5.0256   -0.8573   -4.9695 H   0  0  0  0  0  0  0  0  0  0  0  0
    2.8509    0.5400   -3.3692 H   0  0  0  0  0  0  0  0  0  0  0  0
    4.2069    1.4044   -4.2960 H   0  0  0  0  0  0  0  0  0  0  0  0
    3.4490    0.3402   -6.4033 H   0  0  0  0  0  0  0  0  0  0  0  0
    2.0299   -0.3610   -5.4670 H   0  0  0  0  0  0  0  0  0  0  0  0
    2.2504   -1.8626   -1.8763 H   0  0  0  0  0  0  0  0  0  0  0  0
    3.8558   -0.7613    0.0675 H   0  0  0  0  0  0  0  0  0  0  0  0
    2.6416   -1.9034    0.6279 H   0  0  0  0  0  0  0  0  0  0  0  0
    5.5322   -2.4612    0.1971 H   0  0  0  0  0  0  0  0  0  0  0  0
    2.9965   -4.1401   -2.2822 H   0  0  0  0  0  0  0  0  0  0  0  0
    4.5267   -1.0981   -2.2826 H   0  0  0  0  0  0  0  0  0  0  0  0
  1  2  1  0
  1 25  1  0
  1 26  1  0
  1 27  1  0
  2  3  1  0
  2 28  1  0
  2 29  1  0
  3 22  1  0
  3  4  1  0
  3 30  1  1
  4  5  1  0
  4 31  1  0
  4 32  1  0
  5 11  2  0
  5  6  1  0
  6  7  2  0
  6 33  1  0
  7  8  1  0
  7 34  1  0
  8  9  1  0
  8 10  2  0
  9 35  1  0
 10 24  1  0
 10 11  1  0
 11 12  1  0
 12 22  1  0
 12 23  1  0
 12 13  1  6
 13 14  1  0
 13 36  1  0
 13 37  1  0
 14 15  1  0
 14 38  1  0
 14 39  1  0
 15 16  1  0
 15 20  1  0
 15 52  1  1
 16 17  1  0
 16 40  1  0
 16 41  1  0
 17 19  1  0
 17 18  1  0
 17 42  1  0
 18 19  1  0
 18 43  1  0
 18 44  1  0
 19 45  1  0
 19 46  1  0
 20 21  1  0
 20 23  1  0
 20 47  1  6
 21 22  1  0
 21 48  1  0
 21 49  1  0
 22 50  1  6
 23 24  1  0
 23 51  1  6
M  CHG  1  15   1
M  END
>  <i_m_ct_stereo_status>  (78) 
1

>  <s_m_source_file>  (78) 
/var/tmp/pbs.5076255.sched01/tmpm7cr0ro2/0ctwvxj2z.sdf

>  <i_m_source_file_index>  (78) 
33

>  <i_lp_mmshare_version>  (78) 
48012

>  <i_f3d_flags>  (78) 
0

>  <s_epik_input>  (78) 
W0NIM11bQ0gyXVtDQEhdKFtDSDJdMSlbQ0BASF0yW0NIMl1bQ0BASF0oTihbQ0gyXVtDSDJdMylbQ0gyXVtDSF00W0NIMl1bQ0gyXTQpW0NAQEhdNU9jNmMoW09IXSlbY0hdW2NIXWMxYzZbQ0BAXTIzNQ==

>  <s_epik_cmdline>  (78) 
J2VwaWtfcHl0aG9uJywgJy1waHQnLCAnMi4wJywgJy1waCcsICc3LjAnLCAnLXRuJywgJzgnLCAnLW1hJywgJzIwMCcsICctaW1hZScsICc8aW5maWxlLm1hZT4nLCAnLW9tYWUnLCAnPG91dGZpbGUubWFlPic=

>  <r_lp_tautomer_probability>  (78) 
1

>  <r_epik_Ionization_Penalty>  (78) 
0.0147346

>  <r_epik_Ionization_Penalty_Charging>  (78) 
0.0119119

>  <r_epik_Ionization_Penalty_Neutral>  (78) 
0.00282265

>  <r_epik_State_Penalty>  (78) 
0.00919304

>  <r_epik_Charging_Adjusted_Penalty>  (78) 
0.0211049

>  <i_epik_Tot_Q>  (78) 
1

>  <i_epik_Tot_abs_Q>  (78) 
1

>  <s_lp_Force_Field>  (78) 
OPLS3e

>  <r_lp_Energy>  (78) 
87.8936

>  <b_lp_Chiralities_Consistent>  (78) 
1

>  <s_lp_Variant>  (78) 
23:0-1

>  <s_i_glide_gridfile>  (78) 
pfpi4k_grid

>  <i_i_glide_lignum>  (78) 
33

>  <i_i_glide_rotatable_bonds>  (78) 
4

>  <r_i_docking_score>  (78) 
-3.45999

>  <r_i_glide_ligand_efficiency>  (78) 
-0.144166

>  <r_i_glide_ligand_efficiency_sa>  (78) 
-0.415848

>  <r_i_glide_ligand_efficiency_ln>  (78) 
-0.828135

>  <r_i_glide_gscore>  (78) 
-3.45999

>  <r_i_glide_lipo>  (78) 
-0.617537

>  <r_i_glide_hbond>  (78) 
-0.000213494

>  <r_i_glide_metal>  (78) 
-0

>  <r_i_glide_rewards>  (78) 
-1.22494

>  <r_i_glide_evdw>  (78) 
-16.9893

>  <r_i_glide_ecoul>  (78) 
-7.46534

>  <r_i_glide_erotb>  (78) 
0.35197

>  <r_i_glide_esite>  (78) 
0

>  <r_i_glide_emodel>  (78) 
-28.2485

>  <r_i_glide_energy>  (78) 
-24.4547

>  <r_i_glide_einternal>  (78) 
6.03811

>  <r_i_glide_intrahb_reward>  (78) 
-0

>  <i_i_glide_confnum>  (78) 
2

>  <i_i_glide_posenum>  (78) 
3

>  <r_i_glide_eff_state_penalty>  (78) 
0

>  <ligand_id>  (78) 
23

>  <original_smiles>  (78) 
CCC1Cc2ccc(O)c3c2C24CCN(CC5CC5)C(CC12)C4O3

>  <smiles>  (78) 
[H]Oc1c([H])c([H])c2c3c1OC1([H])C34C([H])([H])C([H])([H])[N+]([H])(C([H])([H])C3([H])C([H])([H])C3([H])[H])C1([H])C([H])([H])C4([H])C([H])(C([H])([H])C([H])([H])[H])C2([H])[H]

$$$$
23:0:2
     RDKit          3D

 52 57  0  0  1  0  0  0  0  0999 V2000
    8.3805   -6.8130    2.8183 C   0  0  0  0  0  0  0  0  0  0  0  0
    7.8723   -6.7631    1.3588 C   0  0  0  0  0  0  0  0  0  0  0  0
    6.4889   -6.0862    1.1584 C   0  0  2  0  0  0  0  0  0  0  0  0
    6.4902   -4.6237    1.7013 C   0  0  0  0  0  0  0  0  0  0  0  0
    5.2213   -3.8849    1.3299 C   0  0  0  0  0  0  0  0  0  0  0  0
    5.1040   -2.7667    0.4734 C   0  0  0  0  0  0  0  0  0  0  0  0
    3.9056   -2.5785   -0.2596 C   0  0  0  0  0  0  0  0  0  0  0  0
    2.8923   -3.5670   -0.2597 C   0  0  0  0  0  0  0  0  0  0  0  0
    1.8134   -3.4554   -1.0861 O   0  0  0  0  0  0  0  0  0  0  0  0
    3.0207   -4.6982    0.5783 C   0  0  0  0  0  0  0  0  0  0  0  0
    4.1099   -4.7232    1.4345 C   0  0  0  0  0  0  0  0  0  0  0  0
    4.0870   -6.0283    2.1829 C   0  0  2  0  0  0  0  0  0  0  0  0
    3.9033   -6.1601    3.7093 C   0  0  0  0  0  0  0  0  0  0  0  0
    3.7288   -7.6902    4.0802 C   0  0  0  0  0  0  0  0  0  0  0  0
    3.1046   -8.5913    3.0197 N   0  0  1  0  0  0  0  0  0  0  0  0
    1.7476   -9.0371    3.4624 C   0  0  0  0  0  0  0  0  0  0  0  0
    1.0674  -10.0647    2.5645 C   0  0  0  0  0  0  0  0  0  0  0  0
   -0.4338  -10.2513    2.6487 C   0  0  0  0  0  0  0  0  0  0  0  0
    0.4971  -11.3268    3.1590 C   0  0  0  0  0  0  0  0  0  0  0  0
    3.1767   -8.0649    1.6006 C   0  0  2  0  0  0  0  0  0  0  0  0
    4.6231   -8.0263    1.0246 C   0  0  0  0  0  0  0  0  0  0  0  0
    5.3068   -6.8883    1.7853 C   0  0  1  0  0  0  0  0  0  0  0  0
    2.7598   -6.6125    1.6740 C   0  0  2  0  0  0  0  0  0  0  0  0
    2.3022   -5.8603    0.5512 O   0  0  0  0  0  0  0  0  0  0  0  0
    9.3923   -7.2180    2.8768 H   0  0  0  0  0  0  0  0  0  0  0  0
    7.7564   -7.4452    3.4484 H   0  0  0  0  0  0  0  0  0  0  0  0
    8.4273   -5.8234    3.2720 H   0  0  0  0  0  0  0  0  0  0  0  0
    8.6152   -6.2264    0.7668 H   0  0  0  0  0  0  0  0  0  0  0  0
    7.8600   -7.7743    0.9488 H   0  0  0  0  0  0  0  0  0  0  0  0
    6.3232   -6.0212    0.0819 H   0  0  0  0  0  0  0  0  0  0  0  0
    6.5864   -4.6086    2.7854 H   0  0  0  0  0  0  0  0  0  0  0  0
    7.3380   -4.0888    1.2757 H   0  0  0  0  0  0  0  0  0  0  0  0
    5.9559   -2.1345    0.2826 H   0  0  0  0  0  0  0  0  0  0  0  0
    3.8238   -1.7378   -0.9307 H   0  0  0  0  0  0  0  0  0  0  0  0
    1.5991   -2.5391   -1.2589 H   0  0  0  0  0  0  0  0  0  0  0  0
    4.7426   -5.7298    4.2613 H   0  0  0  0  0  0  0  0  0  0  0  0
    3.0201   -5.6082    4.0383 H   0  0  0  0  0  0  0  0  0  0  0  0
    4.7008   -8.1131    4.3268 H   0  0  0  0  0  0  0  0  0  0  0  0
    3.1919   -7.7656    5.0247 H   0  0  0  0  0  0  0  0  0  0  0  0
    1.8394   -9.4818    4.4548 H   0  0  0  0  0  0  0  0  0  0  0  0
    1.0858   -8.1821    3.5931 H   0  0  0  0  0  0  0  0  0  0  0  0
    1.4861  -10.2063    1.5725 H   0  0  0  0  0  0  0  0  0  0  0  0
   -0.9946   -9.6828    3.3840 H   0  0  0  0  0  0  0  0  0  0  0  0
   -0.9598  -10.4521    1.7151 H   0  0  0  0  0  0  0  0  0  0  0  0
    0.6042  -12.2252    2.5535 H   0  0  0  0  0  0  0  0  0  0  0  0
    0.5518  -11.4740    4.2360 H   0  0  0  0  0  0  0  0  0  0  0  0
    2.5449   -8.5955    0.8934 H   0  0  0  0  0  0  0  0  0  0  0  0
    5.1557   -8.9788    1.0814 H   0  0  0  0  0  0  0  0  0  0  0  0
    4.5517   -7.7557   -0.0282 H   0  0  0  0  0  0  0  0  0  0  0  0
    5.7340   -7.3628    2.6612 H   0  0  0  0  0  0  0  0  0  0  0  0
    1.9242   -6.4838    2.3697 H   0  0  0  0  0  0  0  0  0  0  0  0
    3.6463   -9.4451    3.0309 H   0  0  0  0  0  0  0  0  0  0  0  0
  1  2  1  0
  1 25  1  0
  1 26  1  0
  1 27  1  0
  2  3  1  0
  2 28  1  0
  2 29  1  0
  3 22  1  0
  3  4  1  0
  3 30  1  6
  4  5  1  0
  4 31  1  0
  4 32  1  0
  5 11  2  0
  5  6  1  0
  6  7  2  0
  6 33  1  0
  7  8  1  0
  7 34  1  0
  8  9  1  0
  8 10  2  0
  9 35  1  0
 10 24  1  0
 10 11  1  0
 11 12  1  0
 12 22  1  0
 12 23  1  0
 12 13  1  1
 13 14  1  0
 13 36  1  0
 13 37  1  0
 14 15  1  0
 14 38  1  0
 14 39  1  0
 15 16  1  0
 15 20  1  0
 15 52  1  6
 16 17  1  0
 16 40  1  0
 16 41  1  0
 17 19  1  0
 17 18  1  0
 17 42  1  0
 18 19  1  0
 18 43  1  0
 18 44  1  0
 19 45  1  0
 19 46  1  0
 20 21  1  0
 20 23  1  0
 20 47  1  6
 21 22  1  0
 21 48  1  0
 21 49  1  0
 22 50  1  1
 23 24  1  0
 23 51  1  1
M  CHG  1  15   1
M  END
>  <i_m_ct_stereo_status>  (79) 
1

>  <s_m_source_file>  (79) 
/var/tmp/pbs.5076255.sched01/tmpm7cr0ro2/0ctwvxj2z.sdf

>  <i_m_source_file_index>  (79) 
33

>  <i_lp_mmshare_version>  (79) 
48012

>  <i_f3d_flags>  (79) 
0

>  <s_epik_input>  (79) 
W0NIM11bQ0gyXVtDQEhdKFtDSDJdMSlbQ0BASF0yW0NIMl1bQ0BASF0oTihbQ0gyXVtDSDJdMylbQ0gyXVtDSF00W0NIMl1bQ0gyXTQpW0NAQEhdNU9jNmMoW09IXSlbY0hdW2NIXWMxYzZbQ0BAXTIzNQ==

>  <s_epik_cmdline>  (79) 
J2VwaWtfcHl0aG9uJywgJy1waHQnLCAnMi4wJywgJy1waCcsICc3LjAnLCAnLXRuJywgJzgnLCAnLW1hJywgJzIwMCcsICctaW1hZScsICc8aW5maWxlLm1hZT4nLCAnLW9tYWUnLCAnPG91dGZpbGUubWFlPic=

>  <r_lp_tautomer_probability>  (79) 
1

>  <r_epik_Ionization_Penalty>  (79) 
0.0147346

>  <r_epik_Ionization_Penalty_Charging>  (79) 
0.0119119

>  <r_epik_Ionization_Penalty_Neutral>  (79) 
0.00282265

>  <r_epik_State_Penalty>  (79) 
0.00919304

>  <r_epik_Charging_Adjusted_Penalty>  (79) 
0.0211049

>  <i_epik_Tot_Q>  (79) 
1

>  <i_epik_Tot_abs_Q>  (79) 
1

>  <s_lp_Force_Field>  (79) 
OPLS3e

>  <r_lp_Energy>  (79) 
87.8936

>  <b_lp_Chiralities_Consistent>  (79) 
1

>  <s_lp_Variant>  (79) 
23:0-1

>  <s_i_glide_gridfile>  (79) 
pfpi4k_grid

>  <i_i_glide_lignum>  (79) 
33

>  <i_i_glide_rotatable_bonds>  (79) 
4

>  <r_i_docking_score>  (79) 
-3.19017

>  <r_i_glide_ligand_efficiency>  (79) 
-0.132924

>  <r_i_glide_ligand_efficiency_sa>  (79) 
-0.383418

>  <r_i_glide_ligand_efficiency_ln>  (79) 
-0.763553

>  <r_i_glide_gscore>  (79) 
-3.19017

>  <r_i_glide_lipo>  (79) 
-0.568836

>  <r_i_glide_hbond>  (79) 
0

>  <r_i_glide_metal>  (79) 
-0

>  <r_i_glide_rewards>  (79) 
-1.18328

>  <r_i_glide_evdw>  (79) 
-20.1518

>  <r_i_glide_ecoul>  (79) 
-4.47189

>  <r_i_glide_erotb>  (79) 
0.246379

>  <r_i_glide_esite>  (79) 
-0.00605601

>  <r_i_glide_emodel>  (79) 
-29.4622

>  <r_i_glide_energy>  (79) 
-24.6237

>  <r_i_glide_einternal>  (79) 
3.12056

>  <r_i_glide_intrahb_reward>  (79) 
-0

>  <i_i_glide_confnum>  (79) 
6

>  <i_i_glide_posenum>  (79) 
9

>  <r_i_glide_eff_state_penalty>  (79) 
0

>  <ligand_id>  (79) 
23

>  <original_smiles>  (79) 
CCC1Cc2ccc(O)c3c2C24CCN(CC5CC5)C(CC12)C4O3

>  <smiles>  (79) 
[H]Oc1c([H])c([H])c2c3c1OC1([H])C34C([H])([H])C([H])([H])[N+]([H])(C([H])([H])C3([H])C([H])([H])C3([H])[H])C1([H])C([H])([H])C4([H])C([H])(C([H])([H])C([H])([H])[H])C2([H])[H]

$$$$
23:1:0
     RDKit          3D

 51 56  0  0  1  0  0  0  0  0999 V2000
    8.1979   -7.1288    2.0871 C   0  0  0  0  0  0  0  0  0  0  0  0
    6.7375   -7.3913    2.5007 C   0  0  0  0  0  0  0  0  0  0  0  0
    5.7114   -6.3743    1.9407 C   0  0  2  0  0  0  0  0  0  0  0  0
    5.9339   -4.9560    2.5506 C   0  0  0  0  0  0  0  0  0  0  0  0
    5.0450   -3.9300    1.8727 C   0  0  0  0  0  0  0  0  0  0  0  0
    5.4450   -2.8353    1.0686 C   0  0  0  0  0  0  0  0  0  0  0  0
    4.5745   -2.3609    0.0619 C   0  0  0  0  0  0  0  0  0  0  0  0
    3.3700   -3.0388   -0.2303 C   0  0  0  0  0  0  0  0  0  0  0  0
    2.6175   -2.6548   -1.3053 O   0  0  0  0  0  0  0  0  0  0  0  0
    2.9770   -4.1501    0.5481 C   0  0  0  0  0  0  0  0  0  0  0  0
    3.7614   -4.4394    1.6484 C   0  0  0  0  0  0  0  0  0  0  0  0
    3.2150   -5.6850    2.2976 C   0  0  2  0  0  0  0  0  0  0  0  0
    2.6299   -5.7179    3.7244 C   0  0  0  0  0  0  0  0  0  0  0  0
    1.7297   -7.0045    3.8995 C   0  0  0  0  0  0  0  0  0  0  0  0
    1.6237   -7.9288    2.7351 N   0  0  0  0  0  0  0  0  0  0  0  0
    0.4394   -8.7805    2.7790 C   0  0  0  0  0  0  0  0  0  0  0  0
   -0.8627   -8.0414    2.5162 C   0  0  0  0  0  0  0  0  0  0  0  0
   -1.9132   -7.9657    3.6035 C   0  0  0  0  0  0  0  0  0  0  0  0
   -2.1463   -8.8358    2.4007 C   0  0  0  0  0  0  0  0  0  0  0  0
    2.0233   -7.4537    1.3870 C   0  0  2  0  0  0  0  0  0  0  0  0
    3.5363   -7.7487    1.1756 C   0  0  0  0  0  0  0  0  0  0  0  0
    4.2386   -6.8384    2.1910 C   0  0  1  0  0  0  0  0  0  0  0  0
    1.9604   -5.9328    1.4384 C   0  0  2  0  0  0  0  0  0  0  0  0
    2.0195   -5.0940    0.2775 O   0  0  0  0  0  0  0  0  0  0  0  0
    8.8460   -7.9252    2.4617 H   0  0  0  0  0  0  0  0  0  0  0  0
    8.5888   -6.1954    2.4947 H   0  0  0  0  0  0  0  0  0  0  0  0
    8.3029   -7.0922    1.0015 H   0  0  0  0  0  0  0  0  0  0  0  0
    6.4689   -8.3974    2.1778 H   0  0  0  0  0  0  0  0  0  0  0  0
    6.6849   -7.4070    3.5900 H   0  0  0  0  0  0  0  0  0  0  0  0
    5.8742   -6.3016    0.8630 H   0  0  0  0  0  0  0  0  0  0  0  0
    5.7869   -4.9449    3.6331 H   0  0  0  0  0  0  0  0  0  0  0  0
    6.9617   -4.6578    2.3590 H   0  0  0  0  0  0  0  0  0  0  0  0
    6.4522   -2.4501    1.1289 H   0  0  0  0  0  0  0  0  0  0  0  0
    4.8836   -1.5544   -0.5812 H   0  0  0  0  0  0  0  0  0  0  0  0
    1.9497   -1.9897   -1.1191 H   0  0  0  0  0  0  0  0  0  0  0  0
    3.4085   -5.6652    4.4901 H   0  0  0  0  0  0  0  0  0  0  0  0
    1.9958   -4.8462    3.8857 H   0  0  0  0  0  0  0  0  0  0  0  0
    2.0996   -7.5947    4.7311 H   0  0  0  0  0  0  0  0  0  0  0  0
    0.7259   -6.6958    4.1885 H   0  0  0  0  0  0  0  0  0  0  0  0
    0.5442   -9.5823    2.0503 H   0  0  0  0  0  0  0  0  0  0  0  0
    0.3957   -9.2683    3.7546 H   0  0  0  0  0  0  0  0  0  0  0  0
   -0.7956   -7.2097    1.8129 H   0  0  0  0  0  0  0  0  0  0  0  0
   -1.7049   -8.4724    4.5435 H   0  0  0  0  0  0  0  0  0  0  0  0
   -2.4972   -7.0540    3.6821 H   0  0  0  0  0  0  0  0  0  0  0  0
   -2.9037   -8.5090    1.7000 H   0  0  0  0  0  0  0  0  0  0  0  0
   -2.0916   -9.9126    2.5405 H   0  0  0  0  0  0  0  0  0  0  0  0
    1.3816   -7.8677    0.6101 H   0  0  0  0  0  0  0  0  0  0  0  0
    3.7900   -8.8044    1.2914 H   0  0  0  0  0  0  0  0  0  0  0  0
    3.8264   -7.4372    0.1685 H   0  0  0  0  0  0  0  0  0  0  0  0
    4.2535   -7.3940    3.1320 H   0  0  0  0  0  0  0  0  0  0  0  0
    1.0428   -5.5979    1.9257 H   0  0  0  0  0  0  0  0  0  0  0  0
  1  2  1  0
  1 25  1  0
  1 26  1  0
  1 27  1  0
  2  3  1  0
  2 28  1  0
  2 29  1  0
  3 22  1  0
  3  4  1  0
  3 30  1  6
  4  5  1  0
  4 31  1  0
  4 32  1  0
  5 11  2  0
  5  6  1  0
  6  7  2  0
  6 33  1  0
  7  8  1  0
  7 34  1  0
  8  9  1  0
  8 10  2  0
  9 35  1  0
 10 24  1  0
 10 11  1  0
 11 12  1  0
 12 22  1  0
 12 23  1  0
 12 13  1  1
 13 14  1  0
 13 36  1  0
 13 37  1  0
 14 15  1  0
 14 38  1  0
 14 39  1  0
 15 16  1  0
 15 20  1  0
 16 17  1  0
 16 40  1  0
 16 41  1  0
 17 19  1  0
 17 18  1  0
 17 42  1  0
 18 19  1  0
 18 43  1  0
 18 44  1  0
 19 45  1  0
 19 46  1  0
 20 21  1  0
 20 23  1  0
 20 47  1  6
 21 22  1  0
 21 48  1  0
 21 49  1  0
 22 50  1  1
 23 24  1  0
 23 51  1  1
M  END
>  <i_m_ct_stereo_status>  (80) 
1

>  <s_m_source_file>  (80) 
/var/tmp/pbs.5076255.sched01/tmpm7cr0ro2/0ctwvxj2z.sdf

>  <i_m_source_file_index>  (80) 
34

>  <i_lp_mmshare_version>  (80) 
48012

>  <i_f3d_flags>  (80) 
0

>  <s_epik_input>  (80) 
W0NIM11bQ0gyXVtDQEhdKFtDSDJdMSlbQ0BASF0yW0NIMl1bQ0BASF0oTihbQ0gyXVtDSDJdMylbQ0gyXVtDSF00W0NIMl1bQ0gyXTQpW0NAQEhdNU9jNmMoW09IXSlbY0hdW2NIXWMxYzZbQ0BAXTIzNQ==

>  <s_epik_cmdline>  (80) 
J2VwaWtfcHl0aG9uJywgJy1waHQnLCAnMi4wJywgJy1waCcsICc3LjAnLCAnLXRuJywgJzgnLCAnLW1hJywgJzIwMCcsICctaW1hZScsICc8aW5maWxlLm1hZT4nLCAnLW9tYWUnLCAnPG91dGZpbGUubWFlPic=

>  <r_lp_tautomer_probability>  (80) 
1

>  <r_epik_Ionization_Penalty>  (80) 
2.32247

>  <r_epik_Ionization_Penalty_Charging>  (80) 
0

>  <r_epik_Ionization_Penalty_Neutral>  (80) 
2.32247

>  <r_epik_State_Penalty>  (80) 
2.47282

>  <r_epik_Charging_Adjusted_Penalty>  (80) 
2.47282

>  <i_epik_Tot_Q>  (80) 
0

>  <i_epik_Tot_abs_Q>  (80) 
0

>  <s_lp_Force_Field>  (80) 
OPLS3e

>  <r_lp_Energy>  (80) 
93.2567

>  <b_lp_Chiralities_Consistent>  (80) 
1

>  <s_lp_Variant>  (80) 
23:0-2

>  <s_i_glide_gridfile>  (80) 
pfpi4k_grid

>  <i_i_glide_lignum>  (80) 
34

>  <i_i_glide_rotatable_bonds>  (80) 
4

>  <r_i_docking_score>  (80) 
-2.95191

>  <r_i_glide_ligand_efficiency>  (80) 
-0.122996

>  <r_i_glide_ligand_efficiency_sa>  (80) 
-0.354782

>  <r_i_glide_ligand_efficiency_ln>  (80) 
-0.706527

>  <r_i_glide_gscore>  (80) 
-2.95191

>  <r_i_glide_lipo>  (80) 
-0.439308

>  <r_i_glide_hbond>  (80) 
-0.0475114

>  <r_i_glide_metal>  (80) 
-0

>  <r_i_glide_rewards>  (80) 
-1.19015

>  <r_i_glide_evdw>  (80) 
-19.2972

>  <r_i_glide_ecoul>  (80) 
-4.42651

>  <r_i_glide_erotb>  (80) 
0.353896

>  <r_i_glide_esite>  (80) 
0

>  <r_i_glide_emodel>  (80) 
-26.2804

>  <r_i_glide_energy>  (80) 
-23.7237

>  <r_i_glide_einternal>  (80) 
4.17268

>  <r_i_glide_intrahb_reward>  (80) 
-0

>  <i_i_glide_confnum>  (80) 
6

>  <i_i_glide_posenum>  (80) 
22

>  <r_i_glide_eff_state_penalty>  (80) 
0

>  <ligand_id>  (80) 
23

>  <original_smiles>  (80) 
CCC1Cc2ccc(O)c3c2C24CCN(CC5CC5)C(CC12)C4O3

>  <smiles>  (80) 
[H]Oc1c([H])c([H])c2c3c1OC1([H])C4([H])N(C([H])([H])C5([H])C([H])([H])C5([H])[H])C([H])([H])C([H])([H])C31C([H])(C4([H])[H])C([H])(C([H])([H])C([H])([H])[H])C2([H])[H]

$$$$
23:1:1
     RDKit          3D

 51 56  0  0  1  0  0  0  0  0999 V2000
    8.1920   -6.3333    2.2543 C   0  0  0  0  0  0  0  0  0  0  0  0
    6.7555   -6.6464    2.7196 C   0  0  0  0  0  0  0  0  0  0  0  0
    5.6447   -5.9129    1.9249 C   0  0  2  0  0  0  0  0  0  0  0  0
    5.6829   -4.3751    2.1919 C   0  0  0  0  0  0  0  0  0  0  0  0
    4.7086   -3.6477    1.2882 C   0  0  0  0  0  0  0  0  0  0  0  0
    5.0115   -2.7225    0.2610 C   0  0  0  0  0  0  0  0  0  0  0  0
    4.1305   -2.5872   -0.8394 C   0  0  0  0  0  0  0  0  0  0  0  0
    3.0235   -3.4578   -0.9841 C   0  0  0  0  0  0  0  0  0  0  0  0
    2.3111   -3.4549   -2.1451 O   0  0  0  0  0  0  0  0  0  0  0  0
    2.7108   -4.3843    0.0390 C   0  0  0  0  0  0  0  0  0  0  0  0
    3.4971   -4.3348    1.1782 C   0  0  0  0  0  0  0  0  0  0  0  0
    3.0682   -5.4586    2.0804 C   0  0  2  0  0  0  0  0  0  0  0  0
    2.4297   -5.2419    3.4667 C   0  0  0  0  0  0  0  0  0  0  0  0
    1.6777   -6.5566    3.9209 C   0  0  0  0  0  0  0  0  0  0  0  0
    1.7246   -7.7227    2.9903 N   0  0  0  0  0  0  0  0  0  0  0  0
    0.6369   -8.6740    3.2104 C   0  0  0  0  0  0  0  0  0  0  0  0
   -0.7263   -8.1940    2.7292 C   0  0  0  0  0  0  0  0  0  0  0  0
   -1.9111   -8.2496    3.6675 C   0  0  0  0  0  0  0  0  0  0  0  0
   -1.8349   -9.2003    2.5056 C   0  0  0  0  0  0  0  0  0  0  0  0
    2.1214   -7.5179    1.5720 C   0  0  2  0  0  0  0  0  0  0  0  0
    3.6635   -7.6721    1.4549 C   0  0  0  0  0  0  0  0  0  0  0  0
    4.2190   -6.4798    2.2457 C   0  0  1  0  0  0  0  0  0  0  0  0
    1.8781   -6.0396    1.2881 C   0  0  2  0  0  0  0  0  0  0  0  0
    1.8566   -5.4578   -0.0170 O   0  0  0  0  0  0  0  0  0  0  0  0
    8.9194   -6.9476    2.7920 H   0  0  0  0  0  0  0  0  0  0  0  0
    8.4713   -5.2939    2.4312 H   0  0  0  0  0  0  0  0  0  0  0  0
    8.3206   -6.5424    1.1923 H   0  0  0  0  0  0  0  0  0  0  0  0
    6.6051   -7.7213    2.6448 H   0  0  0  0  0  0  0  0  0  0  0  0
    6.6720   -6.4071    3.7800 H   0  0  0  0  0  0  0  0  0  0  0  0
    5.8424   -6.0704    0.8631 H   0  0  0  0  0  0  0  0  0  0  0  0
    5.4861   -4.1324    3.2366 H   0  0  0  0  0  0  0  0  0  0  0  0
    6.6736   -3.9878    1.9566 H   0  0  0  0  0  0  0  0  0  0  0  0
    5.9667   -2.2168    0.2423 H   0  0  0  0  0  0  0  0  0  0  0  0
    4.3760   -1.9197   -1.6496 H   0  0  0  0  0  0  0  0  0  0  0  0
    1.9703   -4.3240   -2.3433 H   0  0  0  0  0  0  0  0  0  0  0  0
    3.1649   -4.9234    4.2076 H   0  0  0  0  0  0  0  0  0  0  0  0
    1.6942   -4.4385    3.4148 H   0  0  0  0  0  0  0  0  0  0  0  0
    2.0721   -6.8904    4.8764 H   0  0  0  0  0  0  0  0  0  0  0  0
    0.6328   -6.3091    4.1112 H   0  0  0  0  0  0  0  0  0  0  0  0
    0.8727   -9.6153    2.7135 H   0  0  0  0  0  0  0  0  0  0  0  0
    0.5801   -8.9021    4.2774 H   0  0  0  0  0  0  0  0  0  0  0  0
   -0.7094   -7.3804    2.0015 H   0  0  0  0  0  0  0  0  0  0  0  0
   -1.7461   -8.6560    4.6639 H   0  0  0  0  0  0  0  0  0  0  0  0
   -2.6405   -7.4468    3.6122 H   0  0  0  0  0  0  0  0  0  0  0  0
   -2.5269   -9.0337    1.6844 H   0  0  0  0  0  0  0  0  0  0  0  0
   -1.6133  -10.2432    2.7173 H   0  0  0  0  0  0  0  0  0  0  0  0
    1.5750   -8.1773    0.8951 H   0  0  0  0  0  0  0  0  0  0  0  0
    4.0274   -8.6335    1.8186 H   0  0  0  0  0  0  0  0  0  0  0  0
    3.9509   -7.5792    0.4067 H   0  0  0  0  0  0  0  0  0  0  0  0
    4.2582   -6.8042    3.2890 H   0  0  0  0  0  0  0  0  0  0  0  0
    0.9072   -5.7308    1.6757 H   0  0  0  0  0  0  0  0  0  0  0  0
  1  2  1  0
  1 25  1  0
  1 26  1  0
  1 27  1  0
  2  3  1  0
  2 28  1  0
  2 29  1  0
  3 22  1  0
  3  4  1  0
  3 30  1  6
  4  5  1  0
  4 31  1  0
  4 32  1  0
  5 11  2  0
  5  6  1  0
  6  7  2  0
  6 33  1  0
  7  8  1  0
  7 34  1  0
  8  9  1  0
  8 10  2  0
  9 35  1  0
 10 24  1  0
 10 11  1  0
 11 12  1  0
 12 22  1  0
 12 23  1  0
 12 13  1  1
 13 14  1  0
 13 36  1  0
 13 37  1  0
 14 15  1  0
 14 38  1  0
 14 39  1  0
 15 16  1  0
 15 20  1  0
 16 17  1  0
 16 40  1  0
 16 41  1  0
 17 19  1  0
 17 18  1  0
 17 42  1  0
 18 19  1  0
 18 43  1  0
 18 44  1  0
 19 45  1  0
 19 46  1  0
 20 21  1  0
 20 23  1  0
 20 47  1  6
 21 22  1  0
 21 48  1  0
 21 49  1  0
 22 50  1  1
 23 24  1  0
 23 51  1  1
M  END
>  <i_m_ct_stereo_status>  (81) 
1

>  <s_m_source_file>  (81) 
/var/tmp/pbs.5076255.sched01/tmpm7cr0ro2/0ctwvxj2z.sdf

>  <i_m_source_file_index>  (81) 
34

>  <i_lp_mmshare_version>  (81) 
48012

>  <i_f3d_flags>  (81) 
0

>  <s_epik_input>  (81) 
W0NIM11bQ0gyXVtDQEhdKFtDSDJdMSlbQ0BASF0yW0NIMl1bQ0BASF0oTihbQ0gyXVtDSDJdMylbQ0gyXVtDSF00W0NIMl1bQ0gyXTQpW0NAQEhdNU9jNmMoW09IXSlbY0hdW2NIXWMxYzZbQ0BAXTIzNQ==

>  <s_epik_cmdline>  (81) 
J2VwaWtfcHl0aG9uJywgJy1waHQnLCAnMi4wJywgJy1waCcsICc3LjAnLCAnLXRuJywgJzgnLCAnLW1hJywgJzIwMCcsICctaW1hZScsICc8aW5maWxlLm1hZT4nLCAnLW9tYWUnLCAnPG91dGZpbGUubWFlPic=

>  <r_lp_tautomer_probability>  (81) 
1

>  <r_epik_Ionization_Penalty>  (81) 
2.32247

>  <r_epik_Ionization_Penalty_Charging>  (81) 
0

>  <r_epik_Ionization_Penalty_Neutral>  (81) 
2.32247

>  <r_epik_State_Penalty>  (81) 
2.47282

>  <r_epik_Charging_Adjusted_Penalty>  (81) 
2.47282

>  <i_epik_Tot_Q>  (81) 
0

>  <i_epik_Tot_abs_Q>  (81) 
0

>  <s_lp_Force_Field>  (81) 
OPLS3e

>  <r_lp_Energy>  (81) 
93.2567

>  <b_lp_Chiralities_Consistent>  (81) 
1

>  <s_lp_Variant>  (81) 
23:0-2

>  <s_i_glide_gridfile>  (81) 
pfpi4k_grid

>  <i_i_glide_lignum>  (81) 
34

>  <i_i_glide_rotatable_bonds>  (81) 
4

>  <r_i_docking_score>  (81) 
-2.83616

>  <r_i_glide_ligand_efficiency>  (81) 
-0.118173

>  <r_i_glide_ligand_efficiency_sa>  (81) 
-0.340871

>  <r_i_glide_ligand_efficiency_ln>  (81) 
-0.678823

>  <r_i_glide_gscore>  (81) 
-2.83616

>  <r_i_glide_lipo>  (81) 
-0.478197

>  <r_i_glide_hbond>  (81) 
-0.0566771

>  <r_i_glide_metal>  (81) 
-0

>  <r_i_glide_rewards>  (81) 
-1.19015

>  <r_i_glide_evdw>  (81) 
-22.9757

>  <r_i_glide_ecoul>  (81) 
-2.10829

>  <r_i_glide_erotb>  (81) 
0.353896

>  <r_i_glide_esite>  (81) 
0

>  <r_i_glide_emodel>  (81) 
-28.122

>  <r_i_glide_energy>  (81) 
-25.084

>  <r_i_glide_einternal>  (81) 
2.11509

>  <r_i_glide_intrahb_reward>  (81) 
-0

>  <i_i_glide_confnum>  (81) 
6

>  <i_i_glide_posenum>  (81) 
20

>  <r_i_glide_eff_state_penalty>  (81) 
0

>  <ligand_id>  (81) 
23

>  <original_smiles>  (81) 
CCC1Cc2ccc(O)c3c2C24CCN(CC5CC5)C(CC12)C4O3

>  <smiles>  (81) 
[H]Oc1c([H])c([H])c2c3c1OC1([H])C4([H])N(C([H])([H])C5([H])C([H])([H])C5([H])[H])C([H])([H])C([H])([H])C31C([H])(C4([H])[H])C([H])(C([H])([H])C([H])([H])[H])C2([H])[H]

$$$$
23:1:2
     RDKit          3D

 51 56  0  0  1  0  0  0  0  0999 V2000
    0.6204  -11.4000    3.5516 C   0  0  0  0  0  0  0  0  0  0  0  0
    2.0755  -10.9112    3.5608 C   0  0  0  0  0  0  0  0  0  0  0  0
    2.2893   -9.4910    2.9842 C   0  0  2  0  0  0  0  0  0  0  0  0
    3.8177   -9.2099    2.8309 C   0  0  0  0  0  0  0  0  0  0  0  0
    4.0548   -7.8862    2.1291 C   0  0  0  0  0  0  0  0  0  0  0  0
    4.6456   -7.6723    0.8684 C   0  0  0  0  0  0  0  0  0  0  0  0
    4.2816   -6.5405    0.0956 C   0  0  0  0  0  0  0  0  0  0  0  0
    3.2292   -5.6927    0.5172 C   0  0  0  0  0  0  0  0  0  0  0  0
    2.7533   -4.7210   -0.3164 O   0  0  0  0  0  0  0  0  0  0  0  0
    2.6251   -5.8996    1.7748 C   0  0  0  0  0  0  0  0  0  0  0  0
    3.1701   -6.8951    2.5731 C   0  0  0  0  0  0  0  0  0  0  0  0
    2.3273   -7.0066    3.8112 C   0  0  2  0  0  0  0  0  0  0  0  0
    2.8570   -6.7012    5.2271 C   0  0  0  0  0  0  0  0  0  0  0  0
    1.6433   -6.4506    6.2035 C   0  0  0  0  0  0  0  0  0  0  0  0
    0.2709   -6.5460    5.6275 N   0  0  0  0  0  0  0  0  0  0  0  0
   -0.7337   -5.8240    6.3990 C   0  0  0  0  0  0  0  0  0  0  0  0
   -0.5508   -4.3192    6.4416 C   0  0  0  0  0  0  0  0  0  0  0  0
   -0.6278   -3.6008    7.7709 C   0  0  0  0  0  0  0  0  0  0  0  0
   -1.7368   -3.4352    6.7684 C   0  0  0  0  0  0  0  0  0  0  0  0
    0.0911   -6.5127    4.1553 C   0  0  2  0  0  0  0  0  0  0  0  0
    0.1674   -7.9582    3.5979 C   0  0  0  0  0  0  0  0  0  0  0  0
    1.6201   -8.3791    3.8573 C   0  0  1  0  0  0  0  0  0  0  0  0
    1.3338   -5.8460    3.5917 C   0  0  2  0  0  0  0  0  0  0  0  0
    1.4332   -5.4112    2.2322 O   0  0  0  0  0  0  0  0  0  0  0  0
    0.5341  -12.3800    4.0291 H   0  0  0  0  0  0  0  0  0  0  0  0
    0.2389  -11.4801    2.5313 H   0  0  0  0  0  0  0  0  0  0  0  0
   -0.0335  -10.7310    4.1086 H   0  0  0  0  0  0  0  0  0  0  0  0
    2.4648  -10.9678    4.5812 H   0  0  0  0  0  0  0  0  0  0  0  0
    2.6619  -11.6358    2.9886 H   0  0  0  0  0  0  0  0  0  0  0  0
    1.8607   -9.4730    1.9793 H   0  0  0  0  0  0  0  0  0  0  0  0
    4.3363   -9.2260    3.7916 H   0  0  0  0  0  0  0  0  0  0  0  0
    4.2623   -9.9960    2.2175 H   0  0  0  0  0  0  0  0  0  0  0  0
    5.2731   -8.4390    0.4387 H   0  0  0  0  0  0  0  0  0  0  0  0
    4.6948   -6.4113   -0.8853 H   0  0  0  0  0  0  0  0  0  0  0  0
    2.9860   -4.9007   -1.2202 H   0  0  0  0  0  0  0  0  0  0  0  0
    3.5142   -7.4925    5.5950 H   0  0  0  0  0  0  0  0  0  0  0  0
    3.4631   -5.7957    5.2049 H   0  0  0  0  0  0  0  0  0  0  0  0
    1.6958   -7.1417    7.0373 H   0  0  0  0  0  0  0  0  0  0  0  0
    1.7678   -5.4610    6.6410 H   0  0  0  0  0  0  0  0  0  0  0  0
   -1.7184   -6.0256    5.9837 H   0  0  0  0  0  0  0  0  0  0  0  0
   -0.7184   -6.2159    7.4184 H   0  0  0  0  0  0  0  0  0  0  0  0
    0.1328   -3.9082    5.6967 H   0  0  0  0  0  0  0  0  0  0  0  0
   -0.8339   -4.2029    8.6563 H   0  0  0  0  0  0  0  0  0  0  0  0
    0.0549   -2.7683    7.9183 H   0  0  0  0  0  0  0  0  0  0  0  0
   -1.8004   -2.4798    6.2530 H   0  0  0  0  0  0  0  0  0  0  0  0
   -2.6935   -3.9148    6.9798 H   0  0  0  0  0  0  0  0  0  0  0  0
   -0.8293   -6.0091    3.8674 H   0  0  0  0  0  0  0  0  0  0  0  0
   -0.5713   -8.6095    4.0665 H   0  0  0  0  0  0  0  0  0  0  0  0
   -0.0244   -7.9478    2.5210 H   0  0  0  0  0  0  0  0  0  0  0  0
    1.6476   -8.7553    4.8804 H   0  0  0  0  0  0  0  0  0  0  0  0
    1.5915   -4.9421    4.1497 H   0  0  0  0  0  0  0  0  0  0  0  0
  1  2  1  0
  1 25  1  0
  1 26  1  0
  1 27  1  0
  2  3  1  0
  2 28  1  0
  2 29  1  0
  3 22  1  0
  3  4  1  0
  3 30  1  6
  4  5  1  0
  4 31  1  0
  4 32  1  0
  5 11  2  0
  5  6  1  0
  6  7  2  0
  6 33  1  0
  7  8  1  0
  7 34  1  0
  8  9  1  0
  8 10  2  0
  9 35  1  0
 10 24  1  0
 10 11  1  0
 11 12  1  0
 12 22  1  0
 12 23  1  0
 12 13  1  1
 13 14  1  0
 13 36  1  0
 13 37  1  0
 14 15  1  0
 14 38  1  0
 14 39  1  0
 15 16  1  0
 15 20  1  0
 16 17  1  0
 16 40  1  0
 16 41  1  0
 17 19  1  0
 17 18  1  0
 17 42  1  0
 18 19  1  0
 18 43  1  0
 18 44  1  0
 19 45  1  0
 19 46  1  0
 20 21  1  0
 20 23  1  0
 20 47  1  1
 21 22  1  0
 21 48  1  0
 21 49  1  0
 22 50  1  1
 23 24  1  0
 23 51  1  1
M  END
>  <i_m_ct_stereo_status>  (82) 
1

>  <s_m_source_file>  (82) 
/var/tmp/pbs.5076255.sched01/tmpm7cr0ro2/0ctwvxj2z.sdf

>  <i_m_source_file_index>  (82) 
34

>  <i_lp_mmshare_version>  (82) 
48012

>  <i_f3d_flags>  (82) 
0

>  <s_epik_input>  (82) 
W0NIM11bQ0gyXVtDQEhdKFtDSDJdMSlbQ0BASF0yW0NIMl1bQ0BASF0oTihbQ0gyXVtDSDJdMylbQ0gyXVtDSF00W0NIMl1bQ0gyXTQpW0NAQEhdNU9jNmMoW09IXSlbY0hdW2NIXWMxYzZbQ0BAXTIzNQ==

>  <s_epik_cmdline>  (82) 
J2VwaWtfcHl0aG9uJywgJy1waHQnLCAnMi4wJywgJy1waCcsICc3LjAnLCAnLXRuJywgJzgnLCAnLW1hJywgJzIwMCcsICctaW1hZScsICc8aW5maWxlLm1hZT4nLCAnLW9tYWUnLCAnPG91dGZpbGUubWFlPic=

>  <r_lp_tautomer_probability>  (82) 
1

>  <r_epik_Ionization_Penalty>  (82) 
2.32247

>  <r_epik_Ionization_Penalty_Charging>  (82) 
0

>  <r_epik_Ionization_Penalty_Neutral>  (82) 
2.32247

>  <r_epik_State_Penalty>  (82) 
2.47282

>  <r_epik_Charging_Adjusted_Penalty>  (82) 
2.47282

>  <i_epik_Tot_Q>  (82) 
0

>  <i_epik_Tot_abs_Q>  (82) 
0

>  <s_lp_Force_Field>  (82) 
OPLS3e

>  <r_lp_Energy>  (82) 
93.2567

>  <b_lp_Chiralities_Consistent>  (82) 
1

>  <s_lp_Variant>  (82) 
23:0-2

>  <s_i_glide_gridfile>  (82) 
pfpi4k_grid

>  <i_i_glide_lignum>  (82) 
34

>  <i_i_glide_rotatable_bonds>  (82) 
4

>  <r_i_docking_score>  (82) 
-2.7657

>  <r_i_glide_ligand_efficiency>  (82) 
-0.115237

>  <r_i_glide_ligand_efficiency_sa>  (82) 
-0.332402

>  <r_i_glide_ligand_efficiency_ln>  (82) 
-0.661959

>  <r_i_glide_gscore>  (82) 
-2.7657

>  <r_i_glide_lipo>  (82) 
-0.329713

>  <r_i_glide_hbond>  (82) 
-0.0326648

>  <r_i_glide_metal>  (82) 
-0

>  <r_i_glide_rewards>  (82) 
-1.19015

>  <r_i_glide_evdw>  (82) 
-18.1384

>  <r_i_glide_ecoul>  (82) 
-4.40097

>  <r_i_glide_erotb>  (82) 
0.353896

>  <r_i_glide_esite>  (82) 
0

>  <r_i_glide_emodel>  (82) 
-26.0083

>  <r_i_glide_energy>  (82) 
-22.5394

>  <r_i_glide_einternal>  (82) 
1.57063

>  <r_i_glide_intrahb_reward>  (82) 
-0

>  <i_i_glide_confnum>  (82) 
6

>  <i_i_glide_posenum>  (82) 
9

>  <r_i_glide_eff_state_penalty>  (82) 
0

>  <ligand_id>  (82) 
23

>  <original_smiles>  (82) 
CCC1Cc2ccc(O)c3c2C24CCN(CC5CC5)C(CC12)C4O3

>  <smiles>  (82) 
[H]Oc1c([H])c([H])c2c3c1OC1([H])C4([H])N(C([H])([H])C5([H])C([H])([H])C5([H])[H])C([H])([H])C([H])([H])C31C([H])(C4([H])[H])C([H])(C([H])([H])C([H])([H])[H])C2([H])[H]

$$$$
24:0:0
     RDKit          3D

 37 42  0  0  1  0  0  0  0  0999 V2000
    2.7817   -1.9532   -3.8566 N   0  0  0  0  0  0  0  0  0  0  0  0
    3.6059   -2.2622   -2.8316 C   0  0  0  0  0  0  0  0  0  0  0  0
    4.2127   -3.4690   -2.8313 N   0  0  0  0  0  0  0  0  0  0  0  0
    5.0921   -3.8509   -1.7326 C   0  0  1  0  0  0  0  0  0  0  0  0
    6.4571   -3.0797   -1.8609 C   0  0  0  0  0  0  0  0  0  0  0  0
    7.3168   -2.7415   -0.5957 C   0  0  2  0  0  0  0  0  0  0  0  0
    7.8249   -3.8383   -0.0253 F   0  0  0  0  0  0  0  0  0  0  0  0
    6.7130   -1.7903    0.4587 C   0  0  1  0  0  0  0  0  0  0  0  0
    5.2924   -1.2939    0.3797 C   0  0  1  0  0  0  0  0  0  0  0  0
    4.1971   -1.9376   -0.3811 C   0  0  1  0  0  0  0  0  0  0  0  0
    3.8420   -1.2720   -1.7338 C   0  0  0  0  0  0  0  0  0  0  0  0
    4.4172   -3.4867   -0.4152 C   0  0  1  0  0  0  0  0  0  0  0  0
    3.1696   -4.1218    0.1731 C   0  0  0  0  0  0  0  0  0  0  0  0
    3.7448   -4.2474    1.5700 C   0  0  2  0  0  0  0  0  0  0  0  0
    3.2902   -3.7295    2.7880 O   0  0  0  0  0  0  0  0  0  0  0  0
    4.6469   -3.9015    3.2102 C   0  0  0  0  0  0  0  0  0  0  0  0
    5.1340   -3.5190    1.7909 C   0  0  1  0  0  0  0  0  0  0  0  0
    5.3190   -4.1226    0.5290 O   0  0  0  0  0  0  0  0  0  0  0  0
    5.6710   -2.1014    1.5753 C   0  0  1  0  0  0  0  0  0  0  0  0
    2.5261   -2.6088   -4.5790 H   0  0  0  0  0  0  0  0  0  0  0  0
    2.2835   -1.0712   -3.8217 H   0  0  0  0  0  0  0  0  0  0  0  0
    5.2534   -4.9299   -1.7613 H   0  0  0  0  0  0  0  0  0  0  0  0
    7.0905   -3.6833   -2.5224 H   0  0  0  0  0  0  0  0  0  0  0  0
    6.3000   -2.1632   -2.4140 H   0  0  0  0  0  0  0  0  0  0  0  0
    8.2196   -2.2565   -0.9680 H   0  0  0  0  0  0  0  0  0  0  0  0
    7.4491   -1.0480    0.7800 H   0  0  0  0  0  0  0  0  0  0  0  0
    5.1554   -0.2231    0.5433 H   0  0  0  0  0  0  0  0  0  0  0  0
    3.3270   -1.7278    0.2522 H   0  0  0  0  0  0  0  0  0  0  0  0
    4.6272   -0.5853   -2.0387 H   0  0  0  0  0  0  0  0  0  0  0  0
    2.9511   -0.6604   -1.6092 H   0  0  0  0  0  0  0  0  0  0  0  0
    2.2544   -3.5404    0.1058 H   0  0  0  0  0  0  0  0  0  0  0  0
    2.9983   -5.1033   -0.2798 H   0  0  0  0  0  0  0  0  0  0  0  0
    3.8458   -5.3411    1.6943 H   0  0  0  0  0  0  0  0  0  0  0  0
    4.9714   -3.1578    3.9587 H   0  0  0  0  0  0  0  0  0  0  0  0
    4.9185   -4.9083    3.5442 H   0  0  0  0  0  0  0  0  0  0  0  0
    5.7848   -1.5241    2.4977 H   0  0  0  0  0  0  0  0  0  0  0  0
    4.0488   -4.1675   -3.5341 H   0  0  0  0  0  0  0  0  0  0  0  0
  1  2  1  0
  1 20  1  0
  1 21  1  0
  2 11  1  0
  2  3  2  0
  3  4  1  0
  3 37  1  0
  4 12  1  0
  4  5  1  0
  4 22  1  1
  5  6  1  0
  5 23  1  0
  5 24  1  0
  6  7  1  0
  6  8  1  0
  6 25  1  6
  8 19  1  0
  8  9  1  0
  8 26  1  1
  9 19  1  0
  9 10  1  0
  9 27  1  1
 10 11  1  0
 10 12  1  0
 10 28  1  1
 11 29  1  0
 11 30  1  0
 12 18  1  0
 12 13  1  6
 13 14  1  0
 13 31  1  0
 13 32  1  0
 14 17  1  0
 14 15  1  0
 14 33  1  1
 15 16  1  0
 17 16  1  1
 16 34  1  0
 16 35  1  0
 17 18  1  0
 17 19  1  0
 19 36  1  1
M  CHG  1   3   1
M  END
>  <i_m_ct_stereo_status>  (83) 
1

>  <s_m_source_file>  (83) 
/var/tmp/pbs.5076255.sched01/tmpm7cr0ro2/0ctwvxj2z.sdf

>  <i_m_source_file_index>  (83) 
35

>  <i_lp_mmshare_version>  (83) 
48012

>  <i_f3d_flags>  (83) 
0

>  <s_epik_input>  (83) 
W0NAXTEyM1tDSF00Tj1DKFtOSDJdKVtDSDJdW0NAQEhdMVtDQEBIXTVbQ0BIXShbQ0BASF0oRilbQ0gyXTQpW0NAQEhdNVtDQF02KE8zKVtDQEhdKFtDSDJdMilPW0NIMl02

>  <s_epik_cmdline>  (83) 
J2VwaWtfcHl0aG9uJywgJy1waHQnLCAnMi4wJywgJy1waCcsICc3LjAnLCAnLXRuJywgJzgnLCAnLW1hJywgJzIwMCcsICctaW1hZScsICc8aW5maWxlLm1hZT4nLCAnLW9tYWUnLCAnPG91dGZpbGUubWFlPic=

>  <r_lp_tautomer_probability>  (83) 
1

>  <r_epik_Ionization_Penalty>  (83) 
3.58654e-05

>  <r_epik_Ionization_Penalty_Charging>  (83) 
3.58654e-05

>  <r_epik_Ionization_Penalty_Neutral>  (83) 
2.85021e-12

>  <r_epik_State_Penalty>  (83) 
-0

>  <r_epik_Charging_Adjusted_Penalty>  (83) 
3.58654e-05

>  <i_epik_Tot_Q>  (83) 
1

>  <i_epik_Tot_abs_Q>  (83) 
1

>  <s_epik_Chemistry_Notes>  (83) 
This compound has an imine and may undergo hydrolysis.

>  <s_lp_Force_Field>  (83) 
OPLS3e

>  <r_lp_Energy>  (83) 
115.672

>  <b_lp_Chiralities_Consistent>  (83) 
1

>  <s_lp_Variant>  (83) 
24:0-1

>  <s_i_glide_gridfile>  (83) 
pfpi4k_grid

>  <i_i_glide_lignum>  (83) 
35

>  <i_i_glide_rotatable_bonds>  (83) 
0

>  <r_i_docking_score>  (83) 
-3.76079

>  <r_i_glide_ligand_efficiency>  (83) 
-0.197936

>  <r_i_glide_ligand_efficiency_sa>  (83) 
-0.528173

>  <r_i_glide_ligand_efficiency_ln>  (83) 
-0.95344

>  <r_i_glide_gscore>  (83) 
-3.76079

>  <r_i_glide_lipo>  (83) 
-0.35594

>  <r_i_glide_hbond>  (83) 
0

>  <r_i_glide_metal>  (83) 
-0

>  <r_i_glide_rewards>  (83) 
-1.8601

>  <r_i_glide_evdw>  (83) 
-19.772

>  <r_i_glide_ecoul>  (83) 
-3.60296

>  <r_i_glide_erotb>  (83) 
0

>  <r_i_glide_esite>  (83) 
-0.0157075

>  <r_i_glide_emodel>  (83) 
-29.7109

>  <r_i_glide_energy>  (83) 
-23.3749

>  <r_i_glide_einternal>  (83) 
0

>  <r_i_glide_intrahb_reward>  (83) 
-0

>  <i_i_glide_confnum>  (83) 
1

>  <i_i_glide_posenum>  (83) 
1

>  <r_i_glide_eff_state_penalty>  (83) 
0

>  <ligand_id>  (83) 
24

>  <original_smiles>  (83) 
NC1=NC2CC(F)C3C4C(C1)C21CC2OCC2(O1)C34

>  <smiles>  (83) 
[H]N([H])C1=[N+]([H])C2([H])C([H])([H])C([H])(F)C3([H])C4([H])C3([H])C35OC2(C([H])([H])C3([H])OC5([H])[H])C4([H])C1([H])[H]

$$$$
24:0:1
     RDKit          3D

 37 42  0  0  1  0  0  0  0  0999 V2000
    3.2371   -2.2516   -3.9354 N   0  0  0  0  0  0  0  0  0  0  0  0
    3.8056   -2.4511   -2.7403 C   0  0  0  0  0  0  0  0  0  0  0  0
    4.5341   -3.5601   -2.5242 N   0  0  0  0  0  0  0  0  0  0  0  0
    5.1336   -3.8224   -1.2190 C   0  0  1  0  0  0  0  0  0  0  0  0
    6.3843   -2.8920   -1.0338 C   0  0  0  0  0  0  0  0  0  0  0  0
    6.8139   -2.4281    0.3996 C   0  0  2  0  0  0  0  0  0  0  0  0
    7.2739   -3.4528    1.1191 F   0  0  0  0  0  0  0  0  0  0  0  0
    5.8407   -1.5396    1.2266 C   0  0  1  0  0  0  0  0  0  0  0  0
    4.4484   -1.2289    0.7546 C   0  0  1  0  0  0  0  0  0  0  0  0
    3.6787   -2.0267   -0.2364 C   0  0  1  0  0  0  0  0  0  0  0  0
    3.6208   -1.4183   -1.6617 C   0  0  0  0  0  0  0  0  0  0  0  0
    4.0854   -3.5313   -0.1518 C   0  0  1  0  0  0  0  0  0  0  0  0
    2.8173   -4.3165    0.1173 C   0  0  0  0  0  0  0  0  0  0  0  0
    3.0099   -4.3520    1.6139 C   0  0  2  0  0  0  0  0  0  0  0  0
    2.1685   -3.8892    2.6627 O   0  0  0  0  0  0  0  0  0  0  0  0
    3.4073   -3.8720    3.4351 C   0  0  0  0  0  0  0  0  0  0  0  0
    4.1904   -3.4574    2.1625 C   0  0  1  0  0  0  0  0  0  0  0  0
    4.7720   -4.0410    1.0301 O   0  0  0  0  0  0  0  0  0  0  0  0
    4.5857   -1.9705    2.0454 C   0  0  1  0  0  0  0  0  0  0  0  0
    3.2476   -2.9722   -4.6430 H   0  0  0  0  0  0  0  0  0  0  0  0
    2.6520   -1.4398   -4.0930 H   0  0  0  0  0  0  0  0  0  0  0  0
    5.4170   -4.8736   -1.1624 H   0  0  0  0  0  0  0  0  0  0  0  0
    7.2359   -3.4237   -1.4619 H   0  0  0  0  0  0  0  0  0  0  0  0
    6.2763   -2.0016   -1.6512 H   0  0  0  0  0  0  0  0  0  0  0  0
    7.7120   -1.8238    0.2656 H   0  0  0  0  0  0  0  0  0  0  0  0
    6.3721   -0.7081    1.6851 H   0  0  0  0  0  0  0  0  0  0  0  0
    4.1398   -0.1901    0.8285 H   0  0  0  0  0  0  0  0  0  0  0  0
    2.6571   -1.9190    0.1362 H   0  0  0  0  0  0  0  0  0  0  0  0
    4.3680   -0.6382   -1.7823 H   0  0  0  0  0  0  0  0  0  0  0  0
    2.6586   -0.9334   -1.8174 H   0  0  0  0  0  0  0  0  0  0  0  0
    1.8931   -3.8556   -0.2195 H   0  0  0  0  0  0  0  0  0  0  0  0
    2.8860   -5.3192   -0.3077 H   0  0  0  0  0  0  0  0  0  0  0  0
    3.2008   -5.4199    1.8148 H   0  0  0  0  0  0  0  0  0  0  0  0
    3.4090   -3.0958    4.2039 H   0  0  0  0  0  0  0  0  0  0  0  0
    3.6822   -4.8423    3.8610 H   0  0  0  0  0  0  0  0  0  0  0  0
    4.3784   -1.3812    2.9356 H   0  0  0  0  0  0  0  0  0  0  0  0
    4.6668   -4.2686   -3.2341 H   0  0  0  0  0  0  0  0  0  0  0  0
  1  2  1  0
  1 20  1  0
  1 21  1  0
  2 11  1  0
  2  3  2  0
  3  4  1  0
  3 37  1  0
  4 12  1  0
  4  5  1  0
  4 22  1  6
  5  6  1  0
  5 23  1  0
  5 24  1  0
  6  7  1  0
  6  8  1  0
  6 25  1  6
  8 19  1  0
  8  9  1  0
  8 26  1  1
  9 19  1  0
  9 10  1  0
  9 27  1  1
 10 11  1  0
 10 12  1  0
 10 28  1  1
 11 29  1  0
 11 30  1  0
 12 18  1  0
 12 13  1  6
 13 14  1  0
 13 31  1  0
 13 32  1  0
 14 17  1  0
 14 15  1  0
 14 33  1  1
 15 16  1  0
 17 16  1  1
 16 34  1  0
 16 35  1  0
 17 18  1  0
 17 19  1  0
 19 36  1  1
M  CHG  1   3   1
M  END
>  <i_m_ct_stereo_status>  (84) 
1

>  <s_m_source_file>  (84) 
/var/tmp/pbs.5076255.sched01/tmpm7cr0ro2/0ctwvxj2z.sdf

>  <i_m_source_file_index>  (84) 
35

>  <i_lp_mmshare_version>  (84) 
48012

>  <i_f3d_flags>  (84) 
0

>  <s_epik_input>  (84) 
W0NAXTEyM1tDSF00Tj1DKFtOSDJdKVtDSDJdW0NAQEhdMVtDQEBIXTVbQ0BIXShbQ0BASF0oRilbQ0gyXTQpW0NAQEhdNVtDQF02KE8zKVtDQEhdKFtDSDJdMilPW0NIMl02

>  <s_epik_cmdline>  (84) 
J2VwaWtfcHl0aG9uJywgJy1waHQnLCAnMi4wJywgJy1waCcsICc3LjAnLCAnLXRuJywgJzgnLCAnLW1hJywgJzIwMCcsICctaW1hZScsICc8aW5maWxlLm1hZT4nLCAnLW9tYWUnLCAnPG91dGZpbGUubWFlPic=

>  <r_lp_tautomer_probability>  (84) 
1

>  <r_epik_Ionization_Penalty>  (84) 
3.58654e-05

>  <r_epik_Ionization_Penalty_Charging>  (84) 
3.58654e-05

>  <r_epik_Ionization_Penalty_Neutral>  (84) 
2.85021e-12

>  <r_epik_State_Penalty>  (84) 
-0

>  <r_epik_Charging_Adjusted_Penalty>  (84) 
3.58654e-05

>  <i_epik_Tot_Q>  (84) 
1

>  <i_epik_Tot_abs_Q>  (84) 
1

>  <s_epik_Chemistry_Notes>  (84) 
This compound has an imine and may undergo hydrolysis.

>  <s_lp_Force_Field>  (84) 
OPLS3e

>  <r_lp_Energy>  (84) 
115.672

>  <b_lp_Chiralities_Consistent>  (84) 
1

>  <s_lp_Variant>  (84) 
24:0-1

>  <s_i_glide_gridfile>  (84) 
pfpi4k_grid

>  <i_i_glide_lignum>  (84) 
35

>  <i_i_glide_rotatable_bonds>  (84) 
0

>  <r_i_docking_score>  (84) 
-3.22522

>  <r_i_glide_ligand_efficiency>  (84) 
-0.169748

>  <r_i_glide_ligand_efficiency_sa>  (84) 
-0.452957

>  <r_i_glide_ligand_efficiency_ln>  (84) 
-0.817663

>  <r_i_glide_gscore>  (84) 
-3.22522

>  <r_i_glide_lipo>  (84) 
-0.358826

>  <r_i_glide_hbond>  (84) 
0

>  <r_i_glide_metal>  (84) 
-0

>  <r_i_glide_rewards>  (84) 
-1.74957

>  <r_i_glide_evdw>  (84) 
-17.8003

>  <r_i_glide_ecoul>  (84) 
-1.44969

>  <r_i_glide_erotb>  (84) 
0

>  <r_i_glide_esite>  (84) 
-0.0093574

>  <r_i_glide_emodel>  (84) 
-24.682

>  <r_i_glide_energy>  (84) 
-19.25

>  <r_i_glide_einternal>  (84) 
0

>  <r_i_glide_intrahb_reward>  (84) 
-0

>  <i_i_glide_confnum>  (84) 
2

>  <i_i_glide_posenum>  (84) 
3

>  <r_i_glide_eff_state_penalty>  (84) 
0

>  <ligand_id>  (84) 
24

>  <original_smiles>  (84) 
NC1=NC2CC(F)C3C4C(C1)C21CC2OCC2(O1)C34

>  <smiles>  (84) 
[H]N([H])C1=[N+]([H])C2([H])C([H])([H])C([H])(F)C3([H])C4([H])C3([H])C35OC2(C([H])([H])C3([H])OC5([H])[H])C4([H])C1([H])[H]

$$$$
25:0:0
     RDKit          3D

 41 44  0  0  1  0  0  0  0  0999 V2000
    1.0300    0.6042    2.2143 C   0  0  0  0  0  0  0  0  0  0  0  0
    2.1850   -0.3493    1.9767 C   0  0  0  0  0  0  0  0  0  0  0  0
    2.1227   -1.7037    2.3695 C   0  0  0  0  0  0  0  0  0  0  0  0
    3.1144   -2.6123    2.1718 N   0  0  0  0  0  0  0  0  0  0  0  0
    4.2259   -2.1765    1.5477 C   0  0  0  0  0  0  0  0  0  0  0  0
    5.4360   -2.8434    1.1842 C   0  0  0  0  0  0  0  0  0  0  0  0
    5.8084   -4.2554    1.4001 C   0  0  0  0  0  0  0  0  0  0  0  0
    4.8567   -5.2703    1.6376 C   0  0  0  0  0  0  0  0  0  0  0  0
    5.3432   -6.5815    1.8379 C   0  0  0  0  0  0  0  0  0  0  0  0
    4.4675   -7.6798    1.9764 N   0  0  0  0  0  0  0  0  0  0  0  0
    3.0194   -7.5336    1.9555 C   0  0  0  0  0  0  0  0  0  0  0  0
    2.4607   -8.8627    2.4596 C   0  0  0  0  0  0  0  0  0  0  0  0
    3.5633   -9.8631    2.1326 C   0  0  0  0  0  0  0  0  0  0  0  0
    4.8791   -9.0673    2.2174 C   0  0  1  0  0  0  0  0  0  0  0  0
    5.9312   -9.6048    1.2077 C   0  0  0  0  0  0  0  0  0  0  0  0
    6.2102  -10.9854    1.3676 O   0  0  0  0  0  0  0  0  0  0  0  0
    6.6668   -6.8248    1.8416 N   0  0  0  0  0  0  0  0  0  0  0  0
    7.4801   -5.8129    1.6036 C   0  0  0  0  0  0  0  0  0  0  0  0
    7.1310   -4.5548    1.3662 N   0  0  0  0  0  0  0  0  0  0  0  0
    6.2622   -1.9954    0.5702 N   0  0  0  0  0  0  0  0  0  0  0  0
    5.6089   -0.8036    0.5378 N   0  0  0  0  0  0  0  0  0  0  0  0
    4.3581   -0.8373    1.1200 C   0  0  0  0  0  0  0  0  0  0  0  0
    3.3438    0.0949    1.3259 C   0  0  0  0  0  0  0  0  0  0  0  0
    6.0484    0.0023    0.1237 H   0  0  0  0  0  0  0  0  0  0  0  0
    0.0970    0.0728    2.4099 H   0  0  0  0  0  0  0  0  0  0  0  0
    0.8691    1.2408    1.3424 H   0  0  0  0  0  0  0  0  0  0  0  0
    1.2383    1.2521    3.0663 H   0  0  0  0  0  0  0  0  0  0  0  0
    1.2382   -2.0815    2.8632 H   0  0  0  0  0  0  0  0  0  0  0  0
    3.8016   -5.0409    1.6331 H   0  0  0  0  0  0  0  0  0  0  0  0
    2.6718   -6.7135    2.5809 H   0  0  0  0  0  0  0  0  0  0  0  0
    2.7035   -7.3434    0.9299 H   0  0  0  0  0  0  0  0  0  0  0  0
    2.3087   -8.8221    3.5374 H   0  0  0  0  0  0  0  0  0  0  0  0
    1.5074   -9.1236    1.9963 H   0  0  0  0  0  0  0  0  0  0  0  0
    3.5506  -10.7389    2.7831 H   0  0  0  0  0  0  0  0  0  0  0  0
    3.3986  -10.2164    1.1167 H   0  0  0  0  0  0  0  0  0  0  0  0
    5.2682   -9.1283    3.2347 H   0  0  0  0  0  0  0  0  0  0  0  0
    5.5437   -9.4146    0.2080 H   0  0  0  0  0  0  0  0  0  0  0  0
    6.8955   -9.1070    1.2756 H   0  0  0  0  0  0  0  0  0  0  0  0
    5.4589  -11.4792    1.0501 H   0  0  0  0  0  0  0  0  0  0  0  0
    8.5362   -6.0269    1.5526 H   0  0  0  0  0  0  0  0  0  0  0  0
    3.4426    1.1125    0.9992 H   0  0  0  0  0  0  0  0  0  0  0  0
  1 25  1  0
  1 26  1  0
  1 27  1  0
  1  2  1  0
  2 23  2  0
  2  3  1  0
  3 28  1  0
  3  4  2  0
  4  5  1  0
  5  6  1  0
  5 22  2  0
  6  7  1  0
  6 20  2  0
  7 19  1  0
  7  8  2  0
  8  9  1  0
  8 29  1  0
  9 10  1  0
  9 17  2  0
 10 14  1  0
 10 11  1  0
 11 12  1  0
 11 30  1  0
 11 31  1  0
 12 13  1  0
 12 32  1  0
 12 33  1  0
 13 14  1  0
 13 34  1  0
 13 35  1  0
 14 15  1  0
 14 36  1  1
 15 16  1  0
 15 37  1  0
 15 38  1  0
 16 39  1  0
 17 18  1  0
 18 19  2  0
 18 40  1  0
 20 21  1  0
 21 24  1  0
 21 22  1  0
 22 23  1  0
 23 41  1  0
M  END
>  <i_m_ct_stereo_status>  (85) 
1

>  <s_m_source_file>  (85) 
/var/tmp/pbs.5076255.sched01/tmpm7cr0ro2/0ctwvxj2z.sdf

>  <i_m_source_file_index>  (85) 
36

>  <i_lp_mmshare_version>  (85) 
48012

>  <i_f3d_flags>  (85) 
0

>  <s_epik_input>  (85) 
bjFbY0hdYyhbQ0gzXSlbY0hdYyhjMTIpbltuSF1jMi1jM1tjSF1jKG5bY0hdbjMpTjRbQ0gyXVtDSDJdW0NIMl1bQ0BIXTRbQ0gyXVtPSF0=

>  <s_epik_cmdline>  (85) 
J2VwaWtfcHl0aG9uJywgJy1waHQnLCAnMi4wJywgJy1waCcsICc3LjAnLCAnLXRuJywgJzgnLCAnLW1hJywgJzIwMCcsICctaW1hZScsICc8aW5maWxlLm1hZT4nLCAnLW9tYWUnLCAnPG91dGZpbGUubWFlPic=

>  <r_lp_tautomer_probability>  (85) 
0.97908

>  <r_epik_Ionization_Penalty>  (85) 
0.0113325

>  <r_epik_Ionization_Penalty_Charging>  (85) 
0

>  <r_epik_Ionization_Penalty_Neutral>  (85) 
0.0113325

>  <r_epik_State_Penalty>  (85) 
0.0170109

>  <r_epik_Charging_Adjusted_Penalty>  (85) 
0.0170109

>  <i_epik_Tot_Q>  (85) 
0

>  <i_epik_Tot_abs_Q>  (85) 
0

>  <s_lp_Force_Field>  (85) 
OPLS3e

>  <r_lp_Energy>  (85) 
27.5406

>  <b_lp_Chiralities_Consistent>  (85) 
1

>  <s_lp_Variant>  (85) 
25:0-1

>  <s_i_glide_gridfile>  (85) 
pfpi4k_grid

>  <i_i_glide_lignum>  (85) 
36

>  <i_i_glide_rotatable_bonds>  (85) 
4

>  <r_i_docking_score>  (85) 
-3.52338

>  <r_i_glide_ligand_efficiency>  (85) 
-0.15319

>  <r_i_glide_ligand_efficiency_sa>  (85) 
-0.435653

>  <r_i_glide_ligand_efficiency_ln>  (85) 
-0.851985

>  <r_i_glide_gscore>  (85) 
-3.52338

>  <r_i_glide_lipo>  (85) 
-0.305514

>  <r_i_glide_hbond>  (85) 
-0.192474

>  <r_i_glide_metal>  (85) 
-0

>  <r_i_glide_rewards>  (85) 
-1.39144

>  <r_i_glide_evdw>  (85) 
-22.0469

>  <r_i_glide_ecoul>  (85) 
-7.39157

>  <r_i_glide_erotb>  (85) 
0.577128

>  <r_i_glide_esite>  (85) 
0

>  <r_i_glide_emodel>  (85) 
-34.8763

>  <r_i_glide_energy>  (85) 
-29.4384

>  <r_i_glide_einternal>  (85) 
3.24328

>  <r_i_glide_intrahb_reward>  (85) 
-0

>  <i_i_glide_confnum>  (85) 
2

>  <i_i_glide_posenum>  (85) 
3

>  <r_i_glide_eff_state_penalty>  (85) 
0

>  <ligand_id>  (85) 
25

>  <original_smiles>  (85) 
Cc1cnc2c(-c3cc(N4CCCC4CO)ncn3)[nH]nc2c1

>  <smiles>  (85) 
[H]OC([H])([H])C1([H])N(c2nc([H])nc(-c3nn([H])c4c([H])c(C([H])([H])[H])c([H])nc34)c2[H])C([H])([H])C([H])([H])C1([H])[H]

$$$$
25:0:1
     RDKit          3D

 41 44  0  0  1  0  0  0  0  0999 V2000
   -2.4598    3.1262    5.6986 C   0  0  0  0  0  0  0  0  0  0  0  0
   -1.5159    2.2286    4.9254 C   0  0  0  0  0  0  0  0  0  0  0  0
   -1.3131    0.8785    5.2934 C   0  0  0  0  0  0  0  0  0  0  0  0
   -0.4891    0.0132    4.6525 N   0  0  0  0  0  0  0  0  0  0  0  0
    0.1958    0.4887    3.5940 C   0  0  0  0  0  0  0  0  0  0  0  0
    1.1403   -0.1345    2.7218 C   0  0  0  0  0  0  0  0  0  0  0  0
    1.6475   -1.5268    2.7436 C   0  0  0  0  0  0  0  0  0  0  0  0
    2.6189   -1.9579    1.8135 C   0  0  0  0  0  0  0  0  0  0  0  0
    3.0778   -3.2859    1.9102 C   0  0  0  0  0  0  0  0  0  0  0  0
    4.0290   -3.8149    1.0173 N   0  0  0  0  0  0  0  0  0  0  0  0
    4.9940   -4.8286    1.4073 C   0  0  0  0  0  0  0  0  0  0  0  0
    6.0333   -4.8456    0.2836 C   0  0  0  0  0  0  0  0  0  0  0  0
    5.2677   -4.3240   -0.9301 C   0  0  0  0  0  0  0  0  0  0  0  0
    4.2272   -3.3530   -0.3525 C   0  0  1  0  0  0  0  0  0  0  0  0
    2.9162   -3.3686   -1.1597 C   0  0  0  0  0  0  0  0  0  0  0  0
    3.1564   -3.0620   -2.5153 O   0  0  0  0  0  0  0  0  0  0  0  0
    2.5988   -4.1096    2.8632 N   0  0  0  0  0  0  0  0  0  0  0  0
    1.6765   -3.6150    3.6860 C   0  0  0  0  0  0  0  0  0  0  0  0
    1.1737   -2.3835    3.6749 N   0  0  0  0  0  0  0  0  0  0  0  0
    1.5758    0.7390    1.8176 N   0  0  0  0  0  0  0  0  0  0  0  0
    0.9047    1.9026    2.0801 N   0  0  0  0  0  0  0  0  0  0  0  0
    0.0516    1.8279    3.1645 C   0  0  0  0  0  0  0  0  0  0  0  0
   -0.8113    2.7173    3.8134 C   0  0  0  0  0  0  0  0  0  0  0  0
    1.0026    2.7213    1.4829 H   0  0  0  0  0  0  0  0  0  0  0  0
   -3.1637    2.5523    6.3009 H   0  0  0  0  0  0  0  0  0  0  0  0
   -3.0184    3.7411    5.0010 H   0  0  0  0  0  0  0  0  0  0  0  0
   -1.9042    3.7865    6.3622 H   0  0  0  0  0  0  0  0  0  0  0  0
   -1.8327    0.4705    6.1446 H   0  0  0  0  0  0  0  0  0  0  0  0
    2.9836   -1.2802    1.0585 H   0  0  0  0  0  0  0  0  0  0  0  0
    5.4543   -4.6019    2.3687 H   0  0  0  0  0  0  0  0  0  0  0  0
    4.4870   -5.7902    1.4890 H   0  0  0  0  0  0  0  0  0  0  0  0
    6.8536   -4.1673    0.5152 H   0  0  0  0  0  0  0  0  0  0  0  0
    6.4528   -5.8359    0.1140 H   0  0  0  0  0  0  0  0  0  0  0  0
    5.9076   -3.8544   -1.6781 H   0  0  0  0  0  0  0  0  0  0  0  0
    4.7640   -5.1602   -1.4112 H   0  0  0  0  0  0  0  0  0  0  0  0
    4.6546   -2.3494   -0.3155 H   0  0  0  0  0  0  0  0  0  0  0  0
    2.4291   -4.3406   -1.0952 H   0  0  0  0  0  0  0  0  0  0  0  0
    2.2109   -2.6468   -0.7712 H   0  0  0  0  0  0  0  0  0  0  0  0
    3.3649   -3.8814   -2.9445 H   0  0  0  0  0  0  0  0  0  0  0  0
    1.2815   -4.2947    4.4264 H   0  0  0  0  0  0  0  0  0  0  0  0
   -0.9178    3.7384    3.4780 H   0  0  0  0  0  0  0  0  0  0  0  0
  1 25  1  0
  1 26  1  0
  1 27  1  0
  1  2  1  0
  2 23  2  0
  2  3  1  0
  3 28  1  0
  3  4  2  0
  4  5  1  0
  5  6  1  0
  5 22  2  0
  6  7  1  0
  6 20  2  0
  7 19  1  0
  7  8  2  0
  8  9  1  0
  8 29  1  0
  9 10  1  0
  9 17  2  0
 10 14  1  0
 10 11  1  0
 11 12  1  0
 11 30  1  0
 11 31  1  0
 12 13  1  0
 12 32  1  0
 12 33  1  0
 13 14  1  0
 13 34  1  0
 13 35  1  0
 14 15  1  0
 14 36  1  1
 15 16  1  0
 15 37  1  0
 15 38  1  0
 16 39  1  0
 17 18  1  0
 18 19  2  0
 18 40  1  0
 20 21  1  0
 21 24  1  0
 21 22  1  0
 22 23  1  0
 23 41  1  0
M  END
>  <i_m_ct_stereo_status>  (86) 
1

>  <s_m_source_file>  (86) 
/var/tmp/pbs.5076255.sched01/tmpm7cr0ro2/0ctwvxj2z.sdf

>  <i_m_source_file_index>  (86) 
36

>  <i_lp_mmshare_version>  (86) 
48012

>  <i_f3d_flags>  (86) 
0

>  <s_epik_input>  (86) 
bjFbY0hdYyhbQ0gzXSlbY0hdYyhjMTIpbltuSF1jMi1jM1tjSF1jKG5bY0hdbjMpTjRbQ0gyXVtDSDJdW0NIMl1bQ0BIXTRbQ0gyXVtPSF0=

>  <s_epik_cmdline>  (86) 
J2VwaWtfcHl0aG9uJywgJy1waHQnLCAnMi4wJywgJy1waCcsICc3LjAnLCAnLXRuJywgJzgnLCAnLW1hJywgJzIwMCcsICctaW1hZScsICc8aW5maWxlLm1hZT4nLCAnLW9tYWUnLCAnPG91dGZpbGUubWFlPic=

>  <r_lp_tautomer_probability>  (86) 
0.97908

>  <r_epik_Ionization_Penalty>  (86) 
0.0113325

>  <r_epik_Ionization_Penalty_Charging>  (86) 
0

>  <r_epik_Ionization_Penalty_Neutral>  (86) 
0.0113325

>  <r_epik_State_Penalty>  (86) 
0.0170109

>  <r_epik_Charging_Adjusted_Penalty>  (86) 
0.0170109

>  <i_epik_Tot_Q>  (86) 
0

>  <i_epik_Tot_abs_Q>  (86) 
0

>  <s_lp_Force_Field>  (86) 
OPLS3e

>  <r_lp_Energy>  (86) 
27.5406

>  <b_lp_Chiralities_Consistent>  (86) 
1

>  <s_lp_Variant>  (86) 
25:0-1

>  <s_i_glide_gridfile>  (86) 
pfpi4k_grid

>  <i_i_glide_lignum>  (86) 
36

>  <i_i_glide_rotatable_bonds>  (86) 
4

>  <r_i_docking_score>  (86) 
-3.04902

>  <r_i_glide_ligand_efficiency>  (86) 
-0.132566

>  <r_i_glide_ligand_efficiency_sa>  (86) 
-0.377001

>  <r_i_glide_ligand_efficiency_ln>  (86) 
-0.737282

>  <r_i_glide_gscore>  (86) 
-3.04902

>  <r_i_glide_lipo>  (86) 
-0.300762

>  <r_i_glide_hbond>  (86) 
-0.244629

>  <r_i_glide_metal>  (86) 
-0

>  <r_i_glide_rewards>  (86) 
-1.33001

>  <r_i_glide_evdw>  (86) 
-24.7422

>  <r_i_glide_ecoul>  (86) 
-2.93054

>  <r_i_glide_erotb>  (86) 
0.577128

>  <r_i_glide_esite>  (86) 
-0.074058

>  <r_i_glide_emodel>  (86) 
-33.0406

>  <r_i_glide_energy>  (86) 
-27.6727

>  <r_i_glide_einternal>  (86) 
1.74081

>  <r_i_glide_intrahb_reward>  (86) 
-0

>  <i_i_glide_confnum>  (86) 
5

>  <i_i_glide_posenum>  (86) 
27

>  <r_i_glide_eff_state_penalty>  (86) 
0

>  <ligand_id>  (86) 
25

>  <original_smiles>  (86) 
Cc1cnc2c(-c3cc(N4CCCC4CO)ncn3)[nH]nc2c1

>  <smiles>  (86) 
[H]OC([H])([H])C1([H])N(c2nc([H])nc(-c3nn([H])c4c([H])c(C([H])([H])[H])c([H])nc34)c2[H])C([H])([H])C([H])([H])C1([H])[H]

$$$$
25:0:2
     RDKit          3D

 41 44  0  0  1  0  0  0  0  0999 V2000
   -2.7021    2.9994    5.8808 C   0  0  0  0  0  0  0  0  0  0  0  0
   -1.7172    2.2090    5.0505 C   0  0  0  0  0  0  0  0  0  0  0  0
   -1.3646    0.8864    5.4034 C   0  0  0  0  0  0  0  0  0  0  0  0
   -0.4968    0.1094    4.7064 N   0  0  0  0  0  0  0  0  0  0  0  0
    0.0708    0.6518    3.6208 C   0  0  0  0  0  0  0  0  0  0  0  0
    1.0244    0.1263    2.6927 C   0  0  0  0  0  0  0  0  0  0  0  0
    1.6740   -1.2093    2.7032 C   0  0  0  0  0  0  0  0  0  0  0  0
    2.8081   -1.4517    1.8985 C   0  0  0  0  0  0  0  0  0  0  0  0
    3.3574   -2.7512    1.9001 C   0  0  0  0  0  0  0  0  0  0  0  0
    4.4385   -3.1074    1.0641 N   0  0  0  0  0  0  0  0  0  0  0  0
    5.2541   -4.2903    1.2987 C   0  0  0  0  0  0  0  0  0  0  0  0
    6.5007   -4.1042    0.4320 C   0  0  0  0  0  0  0  0  0  0  0  0
    6.0310   -3.1730   -0.6859 C   0  0  0  0  0  0  0  0  0  0  0  0
    4.9374   -2.3030   -0.0480 C   0  0  1  0  0  0  0  0  0  0  0  0
    3.8425   -1.9506   -1.0762 C   0  0  0  0  0  0  0  0  0  0  0  0
    4.3397   -1.0882   -2.0736 O   0  0  0  0  0  0  0  0  0  0  0  0
    2.8420   -3.7080    2.7040 N   0  0  0  0  0  0  0  0  0  0  0  0
    1.8024   -3.3739    3.4659 C   0  0  0  0  0  0  0  0  0  0  0  0
    1.1835   -2.1943    3.4971 N   0  0  0  0  0  0  0  0  0  0  0  0
    1.3217    1.0544    1.7860 N   0  0  0  0  0  0  0  0  0  0  0  0
    0.5735    2.1389    2.0873 N   0  0  0  0  0  0  0  0  0  0  0  0
   -0.2152    1.9755    3.2108 C   0  0  0  0  0  0  0  0  0  0  0  0
   -1.1261    2.7679    3.9059 C   0  0  0  0  0  0  0  0  0  0  0  0
    0.5884    2.9910    1.5018 H   0  0  0  0  0  0  0  0  0  0  0  0
   -3.3091    2.3600    6.5241 H   0  0  0  0  0  0  0  0  0  0  0  0
   -3.3811    3.5451    5.2282 H   0  0  0  0  0  0  0  0  0  0  0  0
   -2.1845    3.7211    6.5138 H   0  0  0  0  0  0  0  0  0  0  0  0
   -1.7950    0.4238    6.2783 H   0  0  0  0  0  0  0  0  0  0  0  0
    3.2034   -0.6613    1.2905 H   0  0  0  0  0  0  0  0  0  0  0  0
    5.5252   -4.4156    2.3462 H   0  0  0  0  0  0  0  0  0  0  0  0
    4.6978   -5.1739    0.9882 H   0  0  0  0  0  0  0  0  0  0  0  0
    7.2927   -3.6183    1.0016 H   0  0  0  0  0  0  0  0  0  0  0  0
    6.8966   -5.0489    0.0592 H   0  0  0  0  0  0  0  0  0  0  0  0
    6.8379   -2.5854   -1.1265 H   0  0  0  0  0  0  0  0  0  0  0  0
    5.5994   -3.7729   -1.4864 H   0  0  0  0  0  0  0  0  0  0  0  0
    5.3879   -1.4057    0.3794 H   0  0  0  0  0  0  0  0  0  0  0  0
    3.4378   -2.8552   -1.5308 H   0  0  0  0  0  0  0  0  0  0  0  0
    3.0100   -1.4129   -0.6365 H   0  0  0  0  0  0  0  0  0  0  0  0
    3.5960   -0.7409   -2.5414 H   0  0  0  0  0  0  0  0  0  0  0  0
    1.4051   -4.1530    4.1163 H   0  0  0  0  0  0  0  0  0  0  0  0
   -1.3517    3.7723    3.5906 H   0  0  0  0  0  0  0  0  0  0  0  0
  1 25  1  0
  1 26  1  0
  1 27  1  0
  1  2  1  0
  2 23  2  0
  2  3  1  0
  3 28  1  0
  3  4  2  0
  4  5  1  0
  5  6  1  0
  5 22  2  0
  6  7  1  0
  6 20  2  0
  7 19  1  0
  7  8  2  0
  8  9  1  0
  8 29  1  0
  9 10  1  0
  9 17  2  0
 10 14  1  0
 10 11  1  0
 11 12  1  0
 11 30  1  0
 11 31  1  0
 12 13  1  0
 12 32  1  0
 12 33  1  0
 13 14  1  0
 13 34  1  0
 13 35  1  0
 14 15  1  0
 14 36  1  1
 15 16  1  0
 15 37  1  0
 15 38  1  0
 16 39  1  0
 17 18  1  0
 18 19  2  0
 18 40  1  0
 20 21  1  0
 21 24  1  0
 21 22  1  0
 22 23  1  0
 23 41  1  0
M  END
>  <i_m_ct_stereo_status>  (87) 
1

>  <s_m_source_file>  (87) 
/var/tmp/pbs.5076255.sched01/tmpm7cr0ro2/0ctwvxj2z.sdf

>  <i_m_source_file_index>  (87) 
36

>  <i_lp_mmshare_version>  (87) 
48012

>  <i_f3d_flags>  (87) 
0

>  <s_epik_input>  (87) 
bjFbY0hdYyhbQ0gzXSlbY0hdYyhjMTIpbltuSF1jMi1jM1tjSF1jKG5bY0hdbjMpTjRbQ0gyXVtDSDJdW0NIMl1bQ0BIXTRbQ0gyXVtPSF0=

>  <s_epik_cmdline>  (87) 
J2VwaWtfcHl0aG9uJywgJy1waHQnLCAnMi4wJywgJy1waCcsICc3LjAnLCAnLXRuJywgJzgnLCAnLW1hJywgJzIwMCcsICctaW1hZScsICc8aW5maWxlLm1hZT4nLCAnLW9tYWUnLCAnPG91dGZpbGUubWFlPic=

>  <r_lp_tautomer_probability>  (87) 
0.97908

>  <r_epik_Ionization_Penalty>  (87) 
0.0113325

>  <r_epik_Ionization_Penalty_Charging>  (87) 
0

>  <r_epik_Ionization_Penalty_Neutral>  (87) 
0.0113325

>  <r_epik_State_Penalty>  (87) 
0.0170109

>  <r_epik_Charging_Adjusted_Penalty>  (87) 
0.0170109

>  <i_epik_Tot_Q>  (87) 
0

>  <i_epik_Tot_abs_Q>  (87) 
0

>  <s_lp_Force_Field>  (87) 
OPLS3e

>  <r_lp_Energy>  (87) 
27.5406

>  <b_lp_Chiralities_Consistent>  (87) 
1

>  <s_lp_Variant>  (87) 
25:0-1

>  <s_i_glide_gridfile>  (87) 
pfpi4k_grid

>  <i_i_glide_lignum>  (87) 
36

>  <i_i_glide_rotatable_bonds>  (87) 
4

>  <r_i_docking_score>  (87) 
-3.03958

>  <r_i_glide_ligand_efficiency>  (87) 
-0.132156

>  <r_i_glide_ligand_efficiency_sa>  (87) 
-0.375833

>  <r_i_glide_ligand_efficiency_ln>  (87) 
-0.734997

>  <r_i_glide_gscore>  (87) 
-3.03958

>  <r_i_glide_lipo>  (87) 
-0.279692

>  <r_i_glide_hbond>  (87) 
-0.16

>  <r_i_glide_metal>  (87) 
-0

>  <r_i_glide_rewards>  (87) 
-1.34077

>  <r_i_glide_evdw>  (87) 
-23.5294

>  <r_i_glide_ecoul>  (87) 
-3.78646

>  <r_i_glide_erotb>  (87) 
0.577128

>  <r_i_glide_esite>  (87) 
-0.091804

>  <r_i_glide_emodel>  (87) 
-33.1408

>  <r_i_glide_energy>  (87) 
-27.3159

>  <r_i_glide_einternal>  (87) 
0.896476

>  <r_i_glide_intrahb_reward>  (87) 
-0

>  <i_i_glide_confnum>  (87) 
5

>  <i_i_glide_posenum>  (87) 
12

>  <r_i_glide_eff_state_penalty>  (87) 
0

>  <ligand_id>  (87) 
25

>  <original_smiles>  (87) 
Cc1cnc2c(-c3cc(N4CCCC4CO)ncn3)[nH]nc2c1

>  <smiles>  (87) 
[H]OC([H])([H])C1([H])N(c2nc([H])nc(-c3nn([H])c4c([H])c(C([H])([H])[H])c([H])nc34)c2[H])C([H])([H])C([H])([H])C1([H])[H]

$$$$
25:1:0
     RDKit          3D

 41 44  0  0  1  0  0  0  0  0999 V2000
    3.4585  -10.0775    2.8577 C   0  0  0  0  0  0  0  0  0  0  0  0
    4.4054   -8.9689    2.4132 C   0  0  0  0  0  0  0  0  0  0  0  0
    3.9596   -7.9418    1.5432 C   0  0  0  0  0  0  0  0  0  0  0  0
    4.7503   -6.9243    1.1164 N   0  0  0  0  0  0  0  0  0  0  0  0
    6.0293   -6.9048    1.5607 C   0  0  0  0  0  0  0  0  0  0  0  0
    7.0847   -6.0201    1.3291 C   0  0  0  0  0  0  0  0  0  0  0  0
    7.1561   -4.7942    0.5079 C   0  0  0  0  0  0  0  0  0  0  0  0
    6.0695   -4.2623   -0.2247 C   0  0  0  0  0  0  0  0  0  0  0  0
    6.3007   -3.0907   -0.9713 C   0  0  0  0  0  0  0  0  0  0  0  0
    5.2888   -2.5338   -1.7623 N   0  0  0  0  0  0  0  0  0  0  0  0
    5.0230   -2.9828   -3.1137 C   0  0  0  0  0  0  0  0  0  0  0  0
    4.0733   -1.9263   -3.6881 C   0  0  0  0  0  0  0  0  0  0  0  0
    3.3792   -1.3479   -2.4530 C   0  0  0  0  0  0  0  0  0  0  0  0
    4.4179   -1.4578   -1.3240 C   0  0  1  0  0  0  0  0  0  0  0  0
    3.7833   -1.7506    0.0489 C   0  0  0  0  0  0  0  0  0  0  0  0
    3.0161   -0.6588    0.4849 O   0  0  0  0  0  0  0  0  0  0  0  0
    7.4969   -2.4782   -0.9710 N   0  0  0  0  0  0  0  0  0  0  0  0
    8.4594   -3.0631   -0.2597 C   0  0  0  0  0  0  0  0  0  0  0  0
    8.3631   -4.1780    0.4653 N   0  0  0  0  0  0  0  0  0  0  0  0
    8.1659   -6.5253    2.0469 N   0  0  0  0  0  0  0  0  0  0  0  0
    7.8406   -7.6763    2.7290 N   0  0  0  0  0  0  0  0  0  0  0  0
    6.5518   -7.8710    2.4051 C   0  0  0  0  0  0  0  0  0  0  0  0
    5.7488   -8.9363    2.8509 C   0  0  0  0  0  0  0  0  0  0  0  0
    9.1031   -6.1423    2.0729 H   0  0  0  0  0  0  0  0  0  0  0  0
    2.4421   -9.6988    2.9806 H   0  0  0  0  0  0  0  0  0  0  0  0
    3.7722  -10.5203    3.8051 H   0  0  0  0  0  0  0  0  0  0  0  0
    3.4258  -10.8756    2.1165 H   0  0  0  0  0  0  0  0  0  0  0  0
    2.9357   -7.9407    1.1898 H   0  0  0  0  0  0  0  0  0  0  0  0
    5.0994   -4.7333   -0.2484 H   0  0  0  0  0  0  0  0  0  0  0  0
    5.9481   -3.0786   -3.6769 H   0  0  0  0  0  0  0  0  0  0  0  0
    4.5445   -3.9615   -3.0757 H   0  0  0  0  0  0  0  0  0  0  0  0
    4.6211   -1.1313   -4.1914 H   0  0  0  0  0  0  0  0  0  0  0  0
    3.3579   -2.3406   -4.3967 H   0  0  0  0  0  0  0  0  0  0  0  0
    3.0149   -0.3318   -2.6110 H   0  0  0  0  0  0  0  0  0  0  0  0
    2.5117   -1.9661   -2.2267 H   0  0  0  0  0  0  0  0  0  0  0  0
    5.0198   -0.5464   -1.2925 H   0  0  0  0  0  0  0  0  0  0  0  0
    3.1519   -2.6385    0.0105 H   0  0  0  0  0  0  0  0  0  0  0  0
    4.5440   -1.9196    0.8113 H   0  0  0  0  0  0  0  0  0  0  0  0
    2.1640   -0.6693    0.0242 H   0  0  0  0  0  0  0  0  0  0  0  0
    9.4196   -2.5829   -0.2609 H   0  0  0  0  0  0  0  0  0  0  0  0
    6.1444   -9.6964    3.5086 H   0  0  0  0  0  0  0  0  0  0  0  0
  1  2  1  0
  1 25  1  0
  1 26  1  0
  1 27  1  0
  2 23  2  0
  2  3  1  0
  3  4  2  0
  3 28  1  0
  4  5  1  0
  5 22  1  0
  5  6  2  0
  6  7  1  0
  6 20  1  0
  7 19  1  0
  7  8  2  0
  8  9  1  0
  8 29  1  0
  9 10  1  0
  9 17  2  0
 10 14  1  0
 10 11  1  0
 11 12  1  0
 11 30  1  0
 11 31  1  0
 12 13  1  0
 12 32  1  0
 12 33  1  0
 13 14  1  0
 13 34  1  0
 13 35  1  0
 14 15  1  0
 14 36  1  1
 15 16  1  0
 15 37  1  0
 15 38  1  0
 16 39  1  0
 17 18  1  0
 18 19  2  0
 18 40  1  0
 20 24  1  0
 20 21  1  0
 21 22  2  0
 22 23  1  0
 23 41  1  0
M  END
>  <i_m_ct_stereo_status>  (88) 
1

>  <s_m_source_file>  (88) 
/var/tmp/pbs.5076255.sched01/tmpm7cr0ro2/0ctwvxj2z.sdf

>  <i_m_source_file_index>  (88) 
37

>  <i_lp_mmshare_version>  (88) 
48012

>  <i_f3d_flags>  (88) 
0

>  <s_epik_input>  (88) 
bjFbY0hdYyhbQ0gzXSlbY0hdYyhjMTIpbltuSF1jMi1jM1tjSF1jKG5bY0hdbjMpTjRbQ0gyXVtDSDJdW0NIMl1bQ0BIXTRbQ0gyXVtPSF0=

>  <s_epik_cmdline>  (88) 
J2VwaWtfcHl0aG9uJywgJy1waHQnLCAnMi4wJywgJy1waCcsICc3LjAnLCAnLXRuJywgJzgnLCAnLW1hJywgJzIwMCcsICctaW1hZScsICc8aW5maWxlLm1hZT4nLCAnLW9tYWUnLCAnPG91dGZpbGUubWFlPic=

>  <r_lp_tautomer_probability>  (88) 
0.0209196

>  <r_epik_Ionization_Penalty>  (88) 
0.00280811

>  <r_epik_Ionization_Penalty_Charging>  (88) 
0

>  <r_epik_Ionization_Penalty_Neutral>  (88) 
0.00280811

>  <r_epik_State_Penalty>  (88) 
2.44852

>  <r_epik_Charging_Adjusted_Penalty>  (88) 
2.44852

>  <i_epik_Tot_Q>  (88) 
0

>  <i_epik_Tot_abs_Q>  (88) 
0

>  <s_lp_Force_Field>  (88) 
OPLS3e

>  <r_lp_Energy>  (88) 
15.1663

>  <b_lp_Chiralities_Consistent>  (88) 
1

>  <s_lp_Variant>  (88) 
25:0-2

>  <s_i_glide_gridfile>  (88) 
pfpi4k_grid

>  <i_i_glide_lignum>  (88) 
37

>  <i_i_glide_rotatable_bonds>  (88) 
4

>  <r_i_docking_score>  (88) 
-4.55509

>  <r_i_glide_ligand_efficiency>  (88) 
-0.198047

>  <r_i_glide_ligand_efficiency_sa>  (88) 
-0.56322

>  <r_i_glide_ligand_efficiency_ln>  (88) 
-1.10146

>  <r_i_glide_gscore>  (88) 
-4.55509

>  <r_i_glide_lipo>  (88) 
-0.804823

>  <r_i_glide_hbond>  (88) 
-0.32

>  <r_i_glide_metal>  (88) 
-0

>  <r_i_glide_rewards>  (88) 
-1.34064

>  <r_i_glide_evdw>  (88) 
-27.8931

>  <r_i_glide_ecoul>  (88) 
-8.1884

>  <r_i_glide_erotb>  (88) 
0.577128

>  <r_i_glide_esite>  (88) 
-0.0438401

>  <r_i_glide_emodel>  (88) 
-43.2165

>  <r_i_glide_energy>  (88) 
-36.0815

>  <r_i_glide_einternal>  (88) 
7.33842

>  <r_i_glide_intrahb_reward>  (88) 
-0

>  <i_i_glide_confnum>  (88) 
4

>  <i_i_glide_posenum>  (88) 
15

>  <r_i_glide_eff_state_penalty>  (88) 
0

>  <ligand_id>  (88) 
25

>  <original_smiles>  (88) 
Cc1cnc2c(-c3cc(N4CCCC4CO)ncn3)[nH]nc2c1

>  <smiles>  (88) 
[H]OC([H])([H])C1([H])N(c2nc([H])nc(-c3c4nc([H])c(C([H])([H])[H])c([H])c4nn3[H])c2[H])C([H])([H])C([H])([H])C1([H])[H]

$$$$
25:1:1
     RDKit          3D

 41 44  0  0  1  0  0  0  0  0999 V2000
   -2.1658    2.8063    6.6741 C   0  0  0  0  0  0  0  0  0  0  0  0
   -1.2247    2.2138    5.6352 C   0  0  0  0  0  0  0  0  0  0  0  0
    0.0948    1.8398    5.9910 C   0  0  0  0  0  0  0  0  0  0  0  0
    0.9856    1.3036    5.1210 N   0  0  0  0  0  0  0  0  0  0  0  0
    0.5755    1.1366    3.8406 C   0  0  0  0  0  0  0  0  0  0  0  0
    1.2260    0.6335    2.7132 C   0  0  0  0  0  0  0  0  0  0  0  0
    2.5889    0.1116    2.5213 C   0  0  0  0  0  0  0  0  0  0  0  0
    2.9727   -0.5241    1.3199 C   0  0  0  0  0  0  0  0  0  0  0  0
    4.2790   -1.0480    1.2318 C   0  0  0  0  0  0  0  0  0  0  0  0
    4.7178   -1.8053    0.1128 N   0  0  0  0  0  0  0  0  0  0  0  0
    6.1276   -2.0399   -0.1683 C   0  0  0  0  0  0  0  0  0  0  0  0
    6.1617   -2.6303   -1.5783 C   0  0  0  0  0  0  0  0  0  0  0  0
    4.7919   -3.2938   -1.7295 C   0  0  0  0  0  0  0  0  0  0  0  0
    3.8351   -2.4532   -0.8602 C   0  0  1  0  0  0  0  0  0  0  0  0
    2.7474   -3.3510   -0.2123 C   0  0  0  0  0  0  0  0  0  0  0  0
    1.8855   -3.8876   -1.1904 O   0  0  0  0  0  0  0  0  0  0  0  0
    5.1483   -0.8678    2.2423 N   0  0  0  0  0  0  0  0  0  0  0  0
    4.7016   -0.2393    3.3312 C   0  0  0  0  0  0  0  0  0  0  0  0
    3.4784    0.2362    3.5301 N   0  0  0  0  0  0  0  0  0  0  0  0
    0.2783    0.6781    1.6865 N   0  0  0  0  0  0  0  0  0  0  0  0
   -0.9228    1.1902    2.1131 N   0  0  0  0  0  0  0  0  0  0  0  0
   -0.6985    1.4638    3.4107 C   0  0  0  0  0  0  0  0  0  0  0  0
   -1.6352    2.0238    4.2963 C   0  0  0  0  0  0  0  0  0  0  0  0
    0.4094    0.3751    0.7222 H   0  0  0  0  0  0  0  0  0  0  0  0
   -1.9881    2.3576    7.6525 H   0  0  0  0  0  0  0  0  0  0  0  0
   -3.2105    2.6430    6.4072 H   0  0  0  0  0  0  0  0  0  0  0  0
   -2.0043    3.8798    6.7630 H   0  0  0  0  0  0  0  0  0  0  0  0
    0.4483    1.9764    7.0061 H   0  0  0  0  0  0  0  0  0  0  0  0
    2.2727   -0.6185    0.5110 H   0  0  0  0  0  0  0  0  0  0  0  0
    6.7016   -1.1177   -0.1070 H   0  0  0  0  0  0  0  0  0  0  0  0
    6.5373   -2.7410    0.5564 H   0  0  0  0  0  0  0  0  0  0  0  0
    6.2502   -1.8374   -2.3184 H   0  0  0  0  0  0  0  0  0  0  0  0
    6.9878   -3.3256   -1.7368 H   0  0  0  0  0  0  0  0  0  0  0  0
    4.4669   -3.3703   -2.7688 H   0  0  0  0  0  0  0  0  0  0  0  0
    4.8580   -4.3111   -1.3442 H   0  0  0  0  0  0  0  0  0  0  0  0
    3.3998   -1.6566   -1.4719 H   0  0  0  0  0  0  0  0  0  0  0  0
    3.2102   -4.1475    0.3702 H   0  0  0  0  0  0  0  0  0  0  0  0
    2.0893   -2.8256    0.4729 H   0  0  0  0  0  0  0  0  0  0  0  0
    2.3636   -4.4878   -1.7474 H   0  0  0  0  0  0  0  0  0  0  0  0
    5.4215   -0.0897    4.1122 H   0  0  0  0  0  0  0  0  0  0  0  0
   -2.6298    2.2904    3.9642 H   0  0  0  0  0  0  0  0  0  0  0  0
  1  2  1  0
  1 25  1  0
  1 26  1  0
  1 27  1  0
  2 23  2  0
  2  3  1  0
  3  4  2  0
  3 28  1  0
  4  5  1  0
  5 22  1  0
  5  6  2  0
  6  7  1  0
  6 20  1  0
  7 19  1  0
  7  8  2  0
  8  9  1  0
  8 29  1  0
  9 10  1  0
  9 17  2  0
 10 14  1  0
 10 11  1  0
 11 12  1  0
 11 30  1  0
 11 31  1  0
 12 13  1  0
 12 32  1  0
 12 33  1  0
 13 14  1  0
 13 34  1  0
 13 35  1  0
 14 15  1  0
 14 36  1  6
 15 16  1  0
 15 37  1  0
 15 38  1  0
 16 39  1  0
 17 18  1  0
 18 19  2  0
 18 40  1  0
 20 24  1  0
 20 21  1  0
 21 22  2  0
 22 23  1  0
 23 41  1  0
M  END
>  <i_m_ct_stereo_status>  (89) 
1

>  <s_m_source_file>  (89) 
/var/tmp/pbs.5076255.sched01/tmpm7cr0ro2/0ctwvxj2z.sdf

>  <i_m_source_file_index>  (89) 
37

>  <i_lp_mmshare_version>  (89) 
48012

>  <i_f3d_flags>  (89) 
0

>  <s_epik_input>  (89) 
bjFbY0hdYyhbQ0gzXSlbY0hdYyhjMTIpbltuSF1jMi1jM1tjSF1jKG5bY0hdbjMpTjRbQ0gyXVtDSDJdW0NIMl1bQ0BIXTRbQ0gyXVtPSF0=

>  <s_epik_cmdline>  (89) 
J2VwaWtfcHl0aG9uJywgJy1waHQnLCAnMi4wJywgJy1waCcsICc3LjAnLCAnLXRuJywgJzgnLCAnLW1hJywgJzIwMCcsICctaW1hZScsICc8aW5maWxlLm1hZT4nLCAnLW9tYWUnLCAnPG91dGZpbGUubWFlPic=

>  <r_lp_tautomer_probability>  (89) 
0.0209196

>  <r_epik_Ionization_Penalty>  (89) 
0.00280811

>  <r_epik_Ionization_Penalty_Charging>  (89) 
0

>  <r_epik_Ionization_Penalty_Neutral>  (89) 
0.00280811

>  <r_epik_State_Penalty>  (89) 
2.44852

>  <r_epik_Charging_Adjusted_Penalty>  (89) 
2.44852

>  <i_epik_Tot_Q>  (89) 
0

>  <i_epik_Tot_abs_Q>  (89) 
0

>  <s_lp_Force_Field>  (89) 
OPLS3e

>  <r_lp_Energy>  (89) 
15.1663

>  <b_lp_Chiralities_Consistent>  (89) 
1

>  <s_lp_Variant>  (89) 
25:0-2

>  <s_i_glide_gridfile>  (89) 
pfpi4k_grid

>  <i_i_glide_lignum>  (89) 
37

>  <i_i_glide_rotatable_bonds>  (89) 
4

>  <r_i_docking_score>  (89) 
-3.70191

>  <r_i_glide_ligand_efficiency>  (89) 
-0.160952

>  <r_i_glide_ligand_efficiency_sa>  (89) 
-0.457727

>  <r_i_glide_ligand_efficiency_ln>  (89) 
-0.895154

>  <r_i_glide_gscore>  (89) 
-3.70191

>  <r_i_glide_lipo>  (89) 
-0.171711

>  <r_i_glide_hbond>  (89) 
-0.505258

>  <r_i_glide_metal>  (89) 
-0

>  <r_i_glide_rewards>  (89) 
-1.41215

>  <r_i_glide_evdw>  (89) 
-25.6408

>  <r_i_glide_ecoul>  (89) 
-5.37355

>  <r_i_glide_erotb>  (89) 
0.577128

>  <r_i_glide_esite>  (89) 
-0.101843

>  <r_i_glide_emodel>  (89) 
-39.8119

>  <r_i_glide_energy>  (89) 
-31.0143

>  <r_i_glide_einternal>  (89) 
0.465231

>  <r_i_glide_intrahb_reward>  (89) 
-0

>  <i_i_glide_confnum>  (89) 
5

>  <i_i_glide_posenum>  (89) 
3

>  <r_i_glide_eff_state_penalty>  (89) 
0

>  <ligand_id>  (89) 
25

>  <original_smiles>  (89) 
Cc1cnc2c(-c3cc(N4CCCC4CO)ncn3)[nH]nc2c1

>  <smiles>  (89) 
[H]OC([H])([H])C1([H])N(c2nc([H])nc(-c3c4nc([H])c(C([H])([H])[H])c([H])c4nn3[H])c2[H])C([H])([H])C([H])([H])C1([H])[H]

$$$$
25:1:2
     RDKit          3D

 41 44  0  0  1  0  0  0  0  0999 V2000
    2.8067   -1.2100   -3.2685 C   0  0  0  0  0  0  0  0  0  0  0  0
    3.6748   -2.0101   -2.3121 C   0  0  0  0  0  0  0  0  0  0  0  0
    3.1490   -3.1135   -1.6002 C   0  0  0  0  0  0  0  0  0  0  0  0
    3.8913   -3.8551   -0.7225 N   0  0  0  0  0  0  0  0  0  0  0  0
    5.1892   -3.5167   -0.5669 C   0  0  0  0  0  0  0  0  0  0  0  0
    6.2224   -4.0660    0.2092 C   0  0  0  0  0  0  0  0  0  0  0  0
    6.2510   -5.2285    1.1073 C   0  0  0  0  0  0  0  0  0  0  0  0
    5.2354   -6.2049    1.1115 C   0  0  0  0  0  0  0  0  0  0  0  0
    5.2963   -7.2136    2.1015 C   0  0  0  0  0  0  0  0  0  0  0  0
    4.2463   -8.1284    2.3256 N   0  0  0  0  0  0  0  0  0  0  0  0
    4.3837   -9.3105    3.1782 C   0  0  0  0  0  0  0  0  0  0  0  0
    3.1710  -10.1910    2.8728 C   0  0  0  0  0  0  0  0  0  0  0  0
    2.1300   -9.1991    2.3561 C   0  0  0  0  0  0  0  0  0  0  0  0
    2.9243   -8.0669    1.6940 C   0  0  1  0  0  0  0  0  0  0  0  0
    2.1858   -6.7003    1.8786 C   0  0  0  0  0  0  0  0  0  0  0  0
    0.9481   -6.7077    1.1902 O   0  0  0  0  0  0  0  0  0  0  0  0
    6.3748   -7.2932    2.9116 N   0  0  0  0  0  0  0  0  0  0  0  0
    7.3419   -6.3911    2.7623 C   0  0  0  0  0  0  0  0  0  0  0  0
    7.3234   -5.3511    1.9247 N   0  0  0  0  0  0  0  0  0  0  0  0
    7.3245   -3.2667   -0.0171 N   0  0  0  0  0  0  0  0  0  0  0  0
    7.0759   -2.2608   -0.9094 N   0  0  0  0  0  0  0  0  0  0  0  0
    5.7779   -2.4389   -1.2203 C   0  0  0  0  0  0  0  0  0  0  0  0
    5.0153   -1.6558   -2.0988 C   0  0  0  0  0  0  0  0  0  0  0  0
    8.2268   -3.4072    0.4248 H   0  0  0  0  0  0  0  0  0  0  0  0
    2.1047   -1.8683   -3.7836 H   0  0  0  0  0  0  0  0  0  0  0  0
    3.3943   -0.6907   -4.0290 H   0  0  0  0  0  0  0  0  0  0  0  0
    2.2436   -0.4534   -2.7197 H   0  0  0  0  0  0  0  0  0  0  0  0
    2.1152   -3.4067   -1.7426 H   0  0  0  0  0  0  0  0  0  0  0  0
    4.4475   -6.1481    0.3813 H   0  0  0  0  0  0  0  0  0  0  0  0
    5.3113   -9.8585    3.0052 H   0  0  0  0  0  0  0  0  0  0  0  0
    4.3721   -8.9953    4.2221 H   0  0  0  0  0  0  0  0  0  0  0  0
    3.4110  -10.9114    2.0901 H   0  0  0  0  0  0  0  0  0  0  0  0
    2.8208  -10.7584    3.7403 H   0  0  0  0  0  0  0  0  0  0  0  0
    1.4050   -9.6699    1.6895 H   0  0  0  0  0  0  0  0  0  0  0  0
    1.5735   -8.8167    3.2136 H   0  0  0  0  0  0  0  0  0  0  0  0
    3.1017   -8.3361    0.6586 H   0  0  0  0  0  0  0  0  0  0  0  0
    2.0299   -6.5269    2.9462 H   0  0  0  0  0  0  0  0  0  0  0  0
    2.7072   -5.8131    1.5021 H   0  0  0  0  0  0  0  0  0  0  0  0
    0.5213   -7.5438    1.3117 H   0  0  0  0  0  0  0  0  0  0  0  0
    8.2097   -6.5036    3.3945 H   0  0  0  0  0  0  0  0  0  0  0  0
    5.4240   -0.7919   -2.6034 H   0  0  0  0  0  0  0  0  0  0  0  0
  1  2  1  0
  1 25  1  0
  1 26  1  0
  1 27  1  0
  2 23  2  0
  2  3  1  0
  3  4  2  0
  3 28  1  0
  4  5  1  0
  5 22  1  0
  5  6  2  0
  6  7  1  0
  6 20  1  0
  7 19  1  0
  7  8  2  0
  8  9  1  0
  8 29  1  0
  9 10  1  0
  9 17  2  0
 10 14  1  0
 10 11  1  0
 11 12  1  0
 11 30  1  0
 11 31  1  0
 12 13  1  0
 12 32  1  0
 12 33  1  0
 13 14  1  0
 13 34  1  0
 13 35  1  0
 14 15  1  0
 14 36  1  6
 15 16  1  0
 15 37  1  0
 15 38  1  0
 16 39  1  0
 17 18  1  0
 18 19  2  0
 18 40  1  0
 20 24  1  0
 20 21  1  0
 21 22  2  0
 22 23  1  0
 23 41  1  0
M  END
>  <i_m_ct_stereo_status>  (90) 
1

>  <s_m_source_file>  (90) 
/var/tmp/pbs.5076255.sched01/tmpm7cr0ro2/0ctwvxj2z.sdf

>  <i_m_source_file_index>  (90) 
37

>  <i_lp_mmshare_version>  (90) 
48012

>  <i_f3d_flags>  (90) 
0

>  <s_epik_input>  (90) 
bjFbY0hdYyhbQ0gzXSlbY0hdYyhjMTIpbltuSF1jMi1jM1tjSF1jKG5bY0hdbjMpTjRbQ0gyXVtDSDJdW0NIMl1bQ0BIXTRbQ0gyXVtPSF0=

>  <s_epik_cmdline>  (90) 
J2VwaWtfcHl0aG9uJywgJy1waHQnLCAnMi4wJywgJy1waCcsICc3LjAnLCAnLXRuJywgJzgnLCAnLW1hJywgJzIwMCcsICctaW1hZScsICc8aW5maWxlLm1hZT4nLCAnLW9tYWUnLCAnPG91dGZpbGUubWFlPic=

>  <r_lp_tautomer_probability>  (90) 
0.0209196

>  <r_epik_Ionization_Penalty>  (90) 
0.00280811

>  <r_epik_Ionization_Penalty_Charging>  (90) 
0

>  <r_epik_Ionization_Penalty_Neutral>  (90) 
0.00280811

>  <r_epik_State_Penalty>  (90) 
2.44852

>  <r_epik_Charging_Adjusted_Penalty>  (90) 
2.44852

>  <i_epik_Tot_Q>  (90) 
0

>  <i_epik_Tot_abs_Q>  (90) 
0

>  <s_lp_Force_Field>  (90) 
OPLS3e

>  <r_lp_Energy>  (90) 
15.1663

>  <b_lp_Chiralities_Consistent>  (90) 
1

>  <s_lp_Variant>  (90) 
25:0-2

>  <s_i_glide_gridfile>  (90) 
pfpi4k_grid

>  <i_i_glide_lignum>  (90) 
37

>  <i_i_glide_rotatable_bonds>  (90) 
4

>  <r_i_docking_score>  (90) 
-3.36889

>  <r_i_glide_ligand_efficiency>  (90) 
-0.146474

>  <r_i_glide_ligand_efficiency_sa>  (90) 
-0.416551

>  <r_i_glide_ligand_efficiency_ln>  (90) 
-0.814629

>  <r_i_glide_gscore>  (90) 
-3.36889

>  <r_i_glide_lipo>  (90) 
-0.47799

>  <r_i_glide_hbond>  (90) 
-0.194892

>  <r_i_glide_metal>  (90) 
-0

>  <r_i_glide_rewards>  (90) 
-1.29696

>  <r_i_glide_evdw>  (90) 
-25.7913

>  <r_i_glide_ecoul>  (90) 
-4.55494

>  <r_i_glide_erotb>  (90) 
0.577128

>  <r_i_glide_esite>  (90) 
-0.00337697

>  <r_i_glide_emodel>  (90) 
-37.7674

>  <r_i_glide_energy>  (90) 
-30.3462

>  <r_i_glide_einternal>  (90) 
0.892822

>  <r_i_glide_intrahb_reward>  (90) 
-0

>  <i_i_glide_confnum>  (90) 
3

>  <i_i_glide_posenum>  (90) 
21

>  <r_i_glide_eff_state_penalty>  (90) 
0

>  <ligand_id>  (90) 
25

>  <original_smiles>  (90) 
Cc1cnc2c(-c3cc(N4CCCC4CO)ncn3)[nH]nc2c1

>  <smiles>  (90) 
[H]OC([H])([H])C1([H])N(c2nc([H])nc(-c3c4nc([H])c(C([H])([H])[H])c([H])c4nn3[H])c2[H])C([H])([H])C([H])([H])C1([H])[H]

$$$$
25:2:0
     RDKit          3D

 42 45  0  0  1  0  0  0  0  0999 V2000
   -2.5756    2.4189    6.4023 C   0  0  0  0  0  0  0  0  0  0  0  0
   -1.6093    1.7620    5.4288 C   0  0  0  0  0  0  0  0  0  0  0  0
   -1.1641    0.4305    5.5950 C   0  0  0  0  0  0  0  0  0  0  0  0
   -0.3054   -0.2244    4.7639 N   0  0  0  0  0  0  0  0  0  0  0  0
    0.1637    0.4804    3.7135 C   0  0  0  0  0  0  0  0  0  0  0  0
    1.0773    0.1082    2.6881 C   0  0  0  0  0  0  0  0  0  0  0  0
    1.7614   -1.1866    2.5071 C   0  0  0  0  0  0  0  0  0  0  0  0
    2.6096   -1.4399    1.4053 C   0  0  0  0  0  0  0  0  0  0  0  0
    3.1921   -2.7067    1.2993 C   0  0  0  0  0  0  0  0  0  0  0  0
    4.0278   -3.0208    0.2094 N   0  0  0  0  0  0  0  0  0  0  0  0
    3.5598   -3.7619   -0.9458 C   0  0  0  0  0  0  0  0  0  0  0  0
    4.8269   -4.1699   -1.7021 C   0  0  0  0  0  0  0  0  0  0  0  0
    5.8736   -3.1427   -1.2642 C   0  0  0  0  0  0  0  0  0  0  0  0
    5.4595   -2.7539    0.1698 C   0  0  1  0  0  0  0  0  0  0  0  0
    5.7875   -1.2865    0.5172 C   0  0  0  0  0  0  0  0  0  0  0  0
    7.1792   -1.0632    0.5012 O   0  0  0  0  0  0  0  0  0  0  0  0
    2.9607   -3.6470    2.2344 N   0  0  0  0  0  0  0  0  0  0  0  0
    2.1733   -3.3591    3.2693 C   0  0  0  0  0  0  0  0  0  0  0  0
    1.5705   -2.1687    3.4218 N   0  0  0  0  0  0  0  0  0  0  0  0
    1.2726    1.1173    1.8420 N   0  0  0  0  0  0  0  0  0  0  0  0
    0.4805    2.1366    2.3089 N   0  0  0  0  0  0  0  0  0  0  0  0
   -0.2234    1.8182    3.4645 C   0  0  0  0  0  0  0  0  0  0  0  0
   -1.1232    2.4745    4.3191 C   0  0  0  0  0  0  0  0  0  0  0  0
    0.4070    3.0126    1.7810 H   0  0  0  0  0  0  0  0  0  0  0  0
   -3.0881    1.6966    7.0302 H   0  0  0  0  0  0  0  0  0  0  0  0
   -3.3377    2.9851    5.8667 H   0  0  0  0  0  0  0  0  0  0  0  0
   -2.0621    3.1146    7.0626 H   0  0  0  0  0  0  0  0  0  0  0  0
   -1.5060   -0.1444    6.4368 H   0  0  0  0  0  0  0  0  0  0  0  0
    2.7436   -0.7049    0.6225 H   0  0  0  0  0  0  0  0  0  0  0  0
    2.9544   -4.6287   -0.6818 H   0  0  0  0  0  0  0  0  0  0  0  0
    2.9521   -3.0894   -1.5502 H   0  0  0  0  0  0  0  0  0  0  0  0
    5.1238   -5.1711   -1.3947 H   0  0  0  0  0  0  0  0  0  0  0  0
    4.6860   -4.1885   -2.7822 H   0  0  0  0  0  0  0  0  0  0  0  0
    6.8988   -3.5209   -1.3271 H   0  0  0  0  0  0  0  0  0  0  0  0
    5.8145   -2.2786   -1.9235 H   0  0  0  0  0  0  0  0  0  0  0  0
    5.9455   -3.4387    0.8693 H   0  0  0  0  0  0  0  0  0  0  0  0
    5.3077   -0.6111   -0.1926 H   0  0  0  0  0  0  0  0  0  0  0  0
    5.4214   -1.0273    1.5081 H   0  0  0  0  0  0  0  0  0  0  0  0
    7.3822   -0.2872    1.0136 H   0  0  0  0  0  0  0  0  0  0  0  0
    2.0085   -4.1116    4.0275 H   0  0  0  0  0  0  0  0  0  0  0  0
   -1.4232    3.4928    4.1391 H   0  0  0  0  0  0  0  0  0  0  0  0
    0.9470   -1.9780    4.2145 H   0  0  0  0  0  0  0  0  0  0  0  0
  1 25  1  0
  1 26  1  0
  1 27  1  0
  1  2  1  0
  2 23  2  0
  2  3  1  0
  3 28  1  0
  3  4  2  0
  4  5  1  0
  5  6  1  0
  5 22  2  0
  6  7  1  0
  6 20  2  0
  7 19  1  0
  7  8  2  0
  8  9  1  0
  8 29  1  0
  9 10  1  0
  9 17  2  0
 10 14  1  0
 10 11  1  0
 11 12  1  0
 11 30  1  0
 11 31  1  0
 12 13  1  0
 12 32  1  0
 12 33  1  0
 13 14  1  0
 13 34  1  0
 13 35  1  0
 14 15  1  0
 14 36  1  1
 15 16  1  0
 15 37  1  0
 15 38  1  0
 16 39  1  0
 17 18  1  0
 18 19  2  0
 18 40  1  0
 19 42  1  0
 20 21  1  0
 21 24  1  0
 21 22  1  0
 22 23  1  0
 23 41  1  0
M  CHG  1  19   1
M  END
>  <i_m_ct_stereo_status>  (91) 
1

>  <s_m_source_file>  (91) 
/var/tmp/pbs.5076255.sched01/tmpm7cr0ro2/0ctwvxj2z.sdf

>  <i_m_source_file_index>  (91) 
38

>  <i_lp_mmshare_version>  (91) 
48012

>  <i_f3d_flags>  (91) 
0

>  <s_epik_input>  (91) 
bjFbY0hdYyhbQ0gzXSlbY0hdYyhjMTIpbltuSF1jMi1jM1tjSF1jKG5bY0hdbjMpTjRbQ0gyXVtDSDJdW0NIMl1bQ0BIXTRbQ0gyXVtPSF0=

>  <s_epik_cmdline>  (91) 
J2VwaWtfcHl0aG9uJywgJy1waHQnLCAnMi4wJywgJy1waCcsICc3LjAnLCAnLXRuJywgJzgnLCAnLW1hJywgJzIwMCcsICctaW1hZScsICc8aW5maWxlLm1hZT4nLCAnLW9tYWUnLCAnPG91dGZpbGUubWFlPic=

>  <r_lp_tautomer_probability>  (91) 
0.978444

>  <r_epik_Ionization_Penalty>  (91) 
2.43757

>  <r_epik_Ionization_Penalty_Charging>  (91) 
2.43756

>  <r_epik_Ionization_Penalty_Neutral>  (91) 
9.20891e-06

>  <r_epik_State_Penalty>  (91) 
2.60767

>  <r_epik_Charging_Adjusted_Penalty>  (91) 
5.04523

>  <i_epik_Tot_Q>  (91) 
1

>  <i_epik_Tot_abs_Q>  (91) 
1

>  <s_lp_Force_Field>  (91) 
OPLS3e

>  <r_lp_Energy>  (91) 
18.7102

>  <b_lp_Chiralities_Consistent>  (91) 
1

>  <s_lp_Variant>  (91) 
25:0-3

>  <s_i_glide_gridfile>  (91) 
pfpi4k_grid

>  <i_i_glide_lignum>  (91) 
38

>  <i_i_glide_rotatable_bonds>  (91) 
4

>  <r_i_docking_score>  (91) 
-4.64873

>  <r_i_glide_ligand_efficiency>  (91) 
-0.202119

>  <r_i_glide_ligand_efficiency_sa>  (91) 
-0.574799

>  <r_i_glide_ligand_efficiency_ln>  (91) 
-1.12411

>  <r_i_glide_gscore>  (91) 
-4.64873

>  <r_i_glide_lipo>  (91) 
-0.339969

>  <r_i_glide_hbond>  (91) 
-0.476729

>  <r_i_glide_metal>  (91) 
-0

>  <r_i_glide_rewards>  (91) 
-1.78876

>  <r_i_glide_evdw>  (91) 
-22.2959

>  <r_i_glide_ecoul>  (91) 
-9.34482

>  <r_i_glide_erotb>  (91) 
0.57385

>  <r_i_glide_esite>  (91) 
-0.100605

>  <r_i_glide_emodel>  (91) 
-44.6024

>  <r_i_glide_energy>  (91) 
-31.6407

>  <r_i_glide_einternal>  (91) 
7.67378

>  <r_i_glide_intrahb_reward>  (91) 
-0.5

>  <i_i_glide_confnum>  (91) 
5

>  <i_i_glide_posenum>  (91) 
2

>  <r_i_glide_eff_state_penalty>  (91) 
0

>  <ligand_id>  (91) 
25

>  <original_smiles>  (91) 
Cc1cnc2c(-c3cc(N4CCCC4CO)ncn3)[nH]nc2c1

>  <smiles>  (91) 
[H]OC([H])([H])C1([H])N(c2nc([H])[n+]([H])c(-c3nn([H])c4c([H])c(C([H])([H])[H])c([H])nc34)c2[H])C([H])([H])C([H])([H])C1([H])[H]

$$$$
25:2:1
     RDKit          3D

 42 45  0  0  1  0  0  0  0  0999 V2000
   -0.4680   -9.3224    3.5134 C   0  0  0  0  0  0  0  0  0  0  0  0
    0.7695   -8.7423    2.8578 C   0  0  0  0  0  0  0  0  0  0  0  0
    0.9316   -7.3512    2.6570 C   0  0  0  0  0  0  0  0  0  0  0  0
    2.0045   -6.7645    2.0600 N   0  0  0  0  0  0  0  0  0  0  0  0
    2.9907   -7.5867    1.6645 C   0  0  0  0  0  0  0  0  0  0  0  0
    4.2472   -7.3004    1.0521 C   0  0  0  0  0  0  0  0  0  0  0  0
    4.8136   -5.9905    0.6857 C   0  0  0  0  0  0  0  0  0  0  0  0
    4.2109   -5.0947   -0.2226 C   0  0  0  0  0  0  0  0  0  0  0  0
    4.8948   -3.9079   -0.5351 C   0  0  0  0  0  0  0  0  0  0  0  0
    4.3853   -2.9631   -1.4495 N   0  0  0  0  0  0  0  0  0  0  0  0
    3.5708   -3.3266   -2.5986 C   0  0  0  0  0  0  0  0  0  0  0  0
    3.4697   -2.0483   -3.4381 C   0  0  0  0  0  0  0  0  0  0  0  0
    3.6484   -0.9204   -2.4203 C   0  0  0  0  0  0  0  0  0  0  0  0
    4.5673   -1.5197   -1.3413 C   0  0  1  0  0  0  0  0  0  0  0  0
    4.3022   -0.9574    0.0739 C   0  0  0  0  0  0  0  0  0  0  0  0
    3.0200   -1.3323    0.5375 O   0  0  0  0  0  0  0  0  0  0  0  0
    6.0881   -3.6457    0.0304 N   0  0  0  0  0  0  0  0  0  0  0  0
    6.6159   -4.5208    0.8904 C   0  0  0  0  0  0  0  0  0  0  0  0
    6.0214   -5.6757    1.2122 N   0  0  0  0  0  0  0  0  0  0  0  0
    4.9355   -8.4177    0.8520 N   0  0  0  0  0  0  0  0  0  0  0  0
    4.1136   -9.4339    1.2784 N   0  0  0  0  0  0  0  0  0  0  0  0
    2.9138   -8.9921    1.8234 C   0  0  0  0  0  0  0  0  0  0  0  0
    1.7953   -9.5928    2.4165 C   0  0  0  0  0  0  0  0  0  0  0  0
    4.3647  -10.4135    1.1460 H   0  0  0  0  0  0  0  0  0  0  0  0
   -1.0321   -8.5680    4.0579 H   0  0  0  0  0  0  0  0  0  0  0  0
   -0.1843  -10.1082    4.2152 H   0  0  0  0  0  0  0  0  0  0  0  0
   -1.1287   -9.7621    2.7669 H   0  0  0  0  0  0  0  0  0  0  0  0
    0.1600   -6.6751    2.9849 H   0  0  0  0  0  0  0  0  0  0  0  0
    3.2642   -5.3160   -0.6969 H   0  0  0  0  0  0  0  0  0  0  0  0
    4.0252   -4.1379   -3.1678 H   0  0  0  0  0  0  0  0  0  0  0  0
    2.5845   -3.6455   -2.2582 H   0  0  0  0  0  0  0  0  0  0  0  0
    4.2776   -2.0139   -4.1679 H   0  0  0  0  0  0  0  0  0  0  0  0
    2.5242   -1.9758   -3.9763 H   0  0  0  0  0  0  0  0  0  0  0  0
    4.0514   -0.0050   -2.8587 H   0  0  0  0  0  0  0  0  0  0  0  0
    2.6707   -0.6717   -2.0092 H   0  0  0  0  0  0  0  0  0  0  0  0
    5.5988   -1.3082   -1.6248 H   0  0  0  0  0  0  0  0  0  0  0  0
    5.0450   -1.3088    0.7906 H   0  0  0  0  0  0  0  0  0  0  0  0
    4.3821    0.1286    0.0759 H   0  0  0  0  0  0  0  0  0  0  0  0
    2.3419   -1.0566   -0.0840 H   0  0  0  0  0  0  0  0  0  0  0  0
    7.5666   -4.3048    1.3509 H   0  0  0  0  0  0  0  0  0  0  0  0
    1.7297  -10.6631    2.5315 H   0  0  0  0  0  0  0  0  0  0  0  0
    6.4702   -6.3426    1.8434 H   0  0  0  0  0  0  0  0  0  0  0  0
  1 25  1  0
  1 26  1  0
  1 27  1  0
  1  2  1  0
  2 23  2  0
  2  3  1  0
  3 28  1  0
  3  4  2  0
  4  5  1  0
  5  6  1  0
  5 22  2  0
  6  7  1  0
  6 20  2  0
  7 19  1  0
  7  8  2  0
  8  9  1  0
  8 29  1  0
  9 10  1  0
  9 17  2  0
 10 14  1  0
 10 11  1  0
 11 12  1  0
 11 30  1  0
 11 31  1  0
 12 13  1  0
 12 32  1  0
 12 33  1  0
 13 14  1  0
 13 34  1  0
 13 35  1  0
 14 15  1  0
 14 36  1  6
 15 16  1  0
 15 37  1  0
 15 38  1  0
 16 39  1  0
 17 18  1  0
 18 19  2  0
 18 40  1  0
 19 42  1  0
 20 21  1  0
 21 24  1  0
 21 22  1  0
 22 23  1  0
 23 41  1  0
M  CHG  1  19   1
M  END
>  <i_m_ct_stereo_status>  (92) 
1

>  <s_m_source_file>  (92) 
/var/tmp/pbs.5076255.sched01/tmpm7cr0ro2/0ctwvxj2z.sdf

>  <i_m_source_file_index>  (92) 
38

>  <i_lp_mmshare_version>  (92) 
48012

>  <i_f3d_flags>  (92) 
0

>  <s_epik_input>  (92) 
bjFbY0hdYyhbQ0gzXSlbY0hdYyhjMTIpbltuSF1jMi1jM1tjSF1jKG5bY0hdbjMpTjRbQ0gyXVtDSDJdW0NIMl1bQ0BIXTRbQ0gyXVtPSF0=

>  <s_epik_cmdline>  (92) 
J2VwaWtfcHl0aG9uJywgJy1waHQnLCAnMi4wJywgJy1waCcsICc3LjAnLCAnLXRuJywgJzgnLCAnLW1hJywgJzIwMCcsICctaW1hZScsICc8aW5maWxlLm1hZT4nLCAnLW9tYWUnLCAnPG91dGZpbGUubWFlPic=

>  <r_lp_tautomer_probability>  (92) 
0.978444

>  <r_epik_Ionization_Penalty>  (92) 
2.43757

>  <r_epik_Ionization_Penalty_Charging>  (92) 
2.43756

>  <r_epik_Ionization_Penalty_Neutral>  (92) 
9.20891e-06

>  <r_epik_State_Penalty>  (92) 
2.60767

>  <r_epik_Charging_Adjusted_Penalty>  (92) 
5.04523

>  <i_epik_Tot_Q>  (92) 
1

>  <i_epik_Tot_abs_Q>  (92) 
1

>  <s_lp_Force_Field>  (92) 
OPLS3e

>  <r_lp_Energy>  (92) 
18.7102

>  <b_lp_Chiralities_Consistent>  (92) 
1

>  <s_lp_Variant>  (92) 
25:0-3

>  <s_i_glide_gridfile>  (92) 
pfpi4k_grid

>  <i_i_glide_lignum>  (92) 
38

>  <i_i_glide_rotatable_bonds>  (92) 
4

>  <r_i_docking_score>  (92) 
-4.64227

>  <r_i_glide_ligand_efficiency>  (92) 
-0.201838

>  <r_i_glide_ligand_efficiency_sa>  (92) 
-0.573999

>  <r_i_glide_ligand_efficiency_ln>  (92) 
-1.12254

>  <r_i_glide_gscore>  (92) 
-4.64227

>  <r_i_glide_lipo>  (92) 
-0.548279

>  <r_i_glide_hbond>  (92) 
-0.304

>  <r_i_glide_metal>  (92) 
-0

>  <r_i_glide_rewards>  (92) 
-1.4357

>  <r_i_glide_evdw>  (92) 
-26.1929

>  <r_i_glide_ecoul>  (92) 
-10.1458

>  <r_i_glide_erotb>  (92) 
0.57385

>  <r_i_glide_esite>  (92) 
-0.0966147

>  <r_i_glide_emodel>  (92) 
-42.3123

>  <r_i_glide_energy>  (92) 
-36.3387

>  <r_i_glide_einternal>  (92) 
12.0042

>  <r_i_glide_intrahb_reward>  (92) 
-0

>  <i_i_glide_confnum>  (92) 
3

>  <i_i_glide_posenum>  (92) 
7

>  <r_i_glide_eff_state_penalty>  (92) 
0

>  <ligand_id>  (92) 
25

>  <original_smiles>  (92) 
Cc1cnc2c(-c3cc(N4CCCC4CO)ncn3)[nH]nc2c1

>  <smiles>  (92) 
[H]OC([H])([H])C1([H])N(c2nc([H])[n+]([H])c(-c3nn([H])c4c([H])c(C([H])([H])[H])c([H])nc34)c2[H])C([H])([H])C([H])([H])C1([H])[H]

$$$$
25:2:2
     RDKit          3D

 42 45  0  0  1  0  0  0  0  0999 V2000
   -2.6312    2.9814    5.9192 C   0  0  0  0  0  0  0  0  0  0  0  0
   -1.6573    2.1797    5.0676 C   0  0  0  0  0  0  0  0  0  0  0  0
   -1.3378    0.8376    5.3824 C   0  0  0  0  0  0  0  0  0  0  0  0
   -0.4843    0.0597    4.6701 N   0  0  0  0  0  0  0  0  0  0  0  0
    0.0991    0.6303    3.5930 C   0  0  0  0  0  0  0  0  0  0  0  0
    1.0354    0.0882    2.6718 C   0  0  0  0  0  0  0  0  0  0  0  0
    1.6264   -1.2581    2.6722 C   0  0  0  0  0  0  0  0  0  0  0  0
    2.5789   -1.6353    1.7177 C   0  0  0  0  0  0  0  0  0  0  0  0
    3.0324   -2.9625    1.6547 C   0  0  0  0  0  0  0  0  0  0  0  0
    3.8623   -3.4562    0.6350 N   0  0  0  0  0  0  0  0  0  0  0  0
    4.2829   -4.8657    0.5469 C   0  0  0  0  0  0  0  0  0  0  0  0
    5.4067   -4.9225   -0.4889 C   0  0  0  0  0  0  0  0  0  0  0  0
    5.1339   -3.7097   -1.3792 C   0  0  0  0  0  0  0  0  0  0  0  0
    4.4543   -2.6571   -0.4726 C   0  0  1  0  0  0  0  0  0  0  0  0
    3.4316   -1.8678   -1.3271 C   0  0  0  0  0  0  0  0  0  0  0  0
    4.0020   -1.1596   -2.3733 O   0  0  0  0  0  0  0  0  0  0  0  0
    2.6312   -3.8144    2.6176 N   0  0  0  0  0  0  0  0  0  0  0  0
    1.8347   -3.3958    3.6051 C   0  0  0  0  0  0  0  0  0  0  0  0
    1.2739   -2.1714    3.6439 N   0  0  0  0  0  0  0  0  0  0  0  0
    1.3413    1.0067    1.7635 N   0  0  0  0  0  0  0  0  0  0  0  0
    0.6245    2.1365    2.0921 N   0  0  0  0  0  0  0  0  0  0  0  0
   -0.1669    1.9656    3.2187 C   0  0  0  0  0  0  0  0  0  0  0  0
   -1.0510    2.7598    3.9386 C   0  0  0  0  0  0  0  0  0  0  0  0
    0.6191    2.9960    1.5221 H   0  0  0  0  0  0  0  0  0  0  0  0
   -3.2346    2.3357    6.5651 H   0  0  0  0  0  0  0  0  0  0  0  0
   -3.3085    3.5413    5.2751 H   0  0  0  0  0  0  0  0  0  0  0  0
   -2.0917    3.6908    6.5527 H   0  0  0  0  0  0  0  0  0  0  0  0
   -1.7878    0.3684    6.2467 H   0  0  0  0  0  0  0  0  0  0  0  0
    2.8647   -0.8232    1.0780 H   0  0  0  0  0  0  0  0  0  0  0  0
    4.6323   -5.2714    1.5023 H   0  0  0  0  0  0  0  0  0  0  0  0
    3.4372   -5.4776    0.2160 H   0  0  0  0  0  0  0  0  0  0  0  0
    6.3780   -4.8063   -0.0070 H   0  0  0  0  0  0  0  0  0  0  0  0
    5.4046   -5.8537   -1.0538 H   0  0  0  0  0  0  0  0  0  0  0  0
    6.0314   -3.3233   -1.8756 H   0  0  0  0  0  0  0  0  0  0  0  0
    4.4377   -4.0047   -2.1667 H   0  0  0  0  0  0  0  0  0  0  0  0
    5.2316   -2.0362   -0.0202 H   0  0  0  0  0  0  0  0  0  0  0  0
    2.6175   -2.5118   -1.6346 H   0  0  0  0  0  0  0  0  0  0  0  0
    3.0187   -1.0059   -0.8273 H   0  0  0  0  0  0  0  0  0  0  0  0
    3.3059   -0.5882   -2.6717 H   0  0  0  0  0  0  0  0  0  0  0  0
    1.5702   -4.0777    4.4338 H   0  0  0  0  0  0  0  0  0  0  0  0
   -1.2582    3.7793    3.6566 H   0  0  0  0  0  0  0  0  0  0  0  0
    0.6404   -1.8538    4.3944 H   0  0  0  0  0  0  0  0  0  0  0  0
  1 25  1  0
  1 26  1  0
  1 27  1  0
  1  2  1  0
  2 23  2  0
  2  3  1  0
  3 28  1  0
  3  4  2  0
  4  5  1  0
  5  6  1  0
  5 22  2  0
  6  7  1  0
  6 20  2  0
  7 19  1  0
  7  8  2  0
  8  9  1  0
  8 29  1  0
  9 10  1  0
  9 17  2  0
 10 14  1  0
 10 11  1  0
 11 12  1  0
 11 30  1  0
 11 31  1  0
 12 13  1  0
 12 32  1  0
 12 33  1  0
 13 14  1  0
 13 34  1  0
 13 35  1  0
 14 15  1  0
 14 36  1  1
 15 16  1  0
 15 37  1  0
 15 38  1  0
 16 39  1  0
 17 18  1  0
 18 19  2  0
 18 40  1  0
 19 42  1  0
 20 21  1  0
 21 24  1  0
 21 22  1  0
 22 23  1  0
 23 41  1  0
M  CHG  1  19   1
M  END
>  <i_m_ct_stereo_status>  (93) 
1

>  <s_m_source_file>  (93) 
/var/tmp/pbs.5076255.sched01/tmpm7cr0ro2/0ctwvxj2z.sdf

>  <i_m_source_file_index>  (93) 
38

>  <i_lp_mmshare_version>  (93) 
48012

>  <i_f3d_flags>  (93) 
0

>  <s_epik_input>  (93) 
bjFbY0hdYyhbQ0gzXSlbY0hdYyhjMTIpbltuSF1jMi1jM1tjSF1jKG5bY0hdbjMpTjRbQ0gyXVtDSDJdW0NIMl1bQ0BIXTRbQ0gyXVtPSF0=

>  <s_epik_cmdline>  (93) 
J2VwaWtfcHl0aG9uJywgJy1waHQnLCAnMi4wJywgJy1waCcsICc3LjAnLCAnLXRuJywgJzgnLCAnLW1hJywgJzIwMCcsICctaW1hZScsICc8aW5maWxlLm1hZT4nLCAnLW9tYWUnLCAnPG91dGZpbGUubWFlPic=

>  <r_lp_tautomer_probability>  (93) 
0.978444

>  <r_epik_Ionization_Penalty>  (93) 
2.43757

>  <r_epik_Ionization_Penalty_Charging>  (93) 
2.43756

>  <r_epik_Ionization_Penalty_Neutral>  (93) 
9.20891e-06

>  <r_epik_State_Penalty>  (93) 
2.60767

>  <r_epik_Charging_Adjusted_Penalty>  (93) 
5.04523

>  <i_epik_Tot_Q>  (93) 
1

>  <i_epik_Tot_abs_Q>  (93) 
1

>  <s_lp_Force_Field>  (93) 
OPLS3e

>  <r_lp_Energy>  (93) 
18.7102

>  <b_lp_Chiralities_Consistent>  (93) 
1

>  <s_lp_Variant>  (93) 
25:0-3

>  <s_i_glide_gridfile>  (93) 
pfpi4k_grid

>  <i_i_glide_lignum>  (93) 
38

>  <i_i_glide_rotatable_bonds>  (93) 
4

>  <r_i_docking_score>  (93) 
-3.79936

>  <r_i_glide_ligand_efficiency>  (93) 
-0.16519

>  <r_i_glide_ligand_efficiency_sa>  (93) 
-0.469778

>  <r_i_glide_ligand_efficiency_ln>  (93) 
-0.91872

>  <r_i_glide_gscore>  (93) 
-3.79936

>  <r_i_glide_lipo>  (93) 
-0.139888

>  <r_i_glide_hbond>  (93) 
-0.16

>  <r_i_glide_metal>  (93) 
-0

>  <r_i_glide_rewards>  (93) 
-1.81637

>  <r_i_glide_evdw>  (93) 
-22.7882

>  <r_i_glide_ecoul>  (93) 
-6.8408

>  <r_i_glide_erotb>  (93) 
0.57385

>  <r_i_glide_esite>  (93) 
-0.0914279

>  <r_i_glide_emodel>  (93) 
-42.1958

>  <r_i_glide_energy>  (93) 
-29.629

>  <r_i_glide_einternal>  (93) 
2.90556

>  <r_i_glide_intrahb_reward>  (93) 
-0.5

>  <i_i_glide_confnum>  (93) 
4

>  <i_i_glide_posenum>  (93) 
11

>  <r_i_glide_eff_state_penalty>  (93) 
0

>  <ligand_id>  (93) 
25

>  <original_smiles>  (93) 
Cc1cnc2c(-c3cc(N4CCCC4CO)ncn3)[nH]nc2c1

>  <smiles>  (93) 
[H]OC([H])([H])C1([H])N(c2nc([H])[n+]([H])c(-c3nn([H])c4c([H])c(C([H])([H])[H])c([H])nc34)c2[H])C([H])([H])C([H])([H])C1([H])[H]

$$$$
26:0:0
     RDKit          3D

 41 45  0  0  1  0  0  0  0  0999 V2000
    4.7877   -3.7230   -2.8875 C   0  0  0  0  0  0  0  0  0  0  0  0
    4.0434   -2.8334   -1.8570 C   0  0  2  0  0  0  0  0  0  0  0  0
    3.0150   -2.0472   -2.7461 C   0  0  0  0  0  0  0  0  0  0  0  0
    3.7254   -0.8346   -3.3288 C   0  0  0  0  0  0  0  0  0  0  0  0
    4.7952   -0.6434   -2.3109 C   0  0  0  0  0  0  0  0  0  0  0  0
    5.0039   -1.6574   -1.4695 C   0  0  0  0  0  0  0  0  0  0  0  0
    6.1702   -1.5738   -0.4212 C   0  0  0  0  0  0  0  0  0  0  0  0
    6.0084   -1.6812    1.1713 C   0  0  0  0  0  0  0  0  0  0  0  0
    5.4349   -2.9958    1.9048 C   0  0  1  0  0  0  0  0  0  0  0  0
    4.2576   -3.1223    1.3396 C   0  0  1  0  0  0  0  0  0  0  0  0
    3.1537   -2.5871    0.4923 C   0  0  1  0  0  0  0  0  0  0  0  0
    3.0159   -1.1903    0.3774 O   0  0  0  0  0  0  0  0  0  0  0  0
    3.2305   -3.6081   -0.6716 C   0  0  1  0  0  0  0  0  0  0  0  0
    1.8136   -4.0257   -1.1077 C   0  0  0  0  0  0  0  0  0  0  0  0
    3.9071   -4.9670    0.0392 C   0  0  1  0  0  0  0  0  0  0  0  0
    5.0995   -5.0789   -0.5848 O   0  0  0  0  0  0  0  0  0  0  0  0
    5.5235   -4.0726    0.3756 C   0  0  1  0  0  0  0  0  0  0  0  0
    6.9666   -4.2139    0.5228 O   0  0  0  0  0  0  0  0  0  0  0  0
    4.8970   -4.6351    1.4009 C   0  0  2  0  0  0  0  0  0  0  0  0
    4.2378   -4.6336   -3.0963 H   0  0  0  0  0  0  0  0  0  0  0  0
    5.7917   -3.9977   -2.5657 H   0  0  0  0  0  0  0  0  0  0  0  0
    4.9153   -3.2314   -3.8533 H   0  0  0  0  0  0  0  0  0  0  0  0
    2.4919   -2.6451   -3.4951 H   0  0  0  0  0  0  0  0  0  0  0  0
    2.2521   -1.6090   -2.1175 H   0  0  0  0  0  0  0  0  0  0  0  0
    4.1739   -1.0430   -4.2995 H   0  0  0  0  0  0  0  0  0  0  0  0
    3.0805    0.0430   -3.4136 H   0  0  0  0  0  0  0  0  0  0  0  0
    5.3729    0.2557   -2.3133 H   0  0  0  0  0  0  0  0  0  0  0  0
    6.9973   -2.1770   -0.7929 H   0  0  0  0  0  0  0  0  0  0  0  0
    6.5550   -0.5617   -0.5007 H   0  0  0  0  0  0  0  0  0  0  0  0
    6.9877   -1.4582    1.5977 H   0  0  0  0  0  0  0  0  0  0  0  0
    5.3989   -0.8339    1.4848 H   0  0  0  0  0  0  0  0  0  0  0  0
    5.4370   -2.9150    2.9934 H   0  0  0  0  0  0  0  0  0  0  0  0
    3.6822   -3.2912    2.3011 H   0  0  0  0  0  0  0  0  0  0  0  0
    2.2244   -2.8296    1.0084 H   0  0  0  0  0  0  0  0  0  0  0  0
    2.1432   -1.0480   -0.0530 H   0  0  0  0  0  0  0  0  0  0  0  0
    1.3984   -4.6912   -0.3590 H   0  0  0  0  0  0  0  0  0  0  0  0
    1.8107   -4.5972   -2.0273 H   0  0  0  0  0  0  0  0  0  0  0  0
    1.1229   -3.2016   -1.2715 H   0  0  0  0  0  0  0  0  0  0  0  0
    3.3355   -5.8923    0.0681 H   0  0  0  0  0  0  0  0  0  0  0  0
    7.1249   -5.1143    0.7639 H   0  0  0  0  0  0  0  0  0  0  0  0
    5.4519   -5.4842    1.8031 H   0  0  0  0  0  0  0  0  0  0  0  0
  2  1  1  6
  1 20  1  0
  1 21  1  0
  1 22  1  0
  2  6  1  0
  2 13  1  0
  2  3  1  0
  3  4  1  0
  3 23  1  0
  3 24  1  0
  4  5  1  0
  4 25  1  0
  4 26  1  0
  5  6  2  0
  5 27  1  0
  6  7  1  0
  7  8  1  0
  7 28  1  0
  7 29  1  0
  8  9  1  0
  8 30  1  0
  8 31  1  0
  9 19  1  0
  9 10  1  0
  9 32  1  1
 10 17  1  0
 10 11  1  0
 10 33  1  1
 11 12  1  0
 11 13  1  0
 11 34  1  1
 12 35  1  0
 13 14  1  6
 13 15  1  0
 14 36  1  0
 14 37  1  0
 14 38  1  0
 15 19  1  0
 15 16  1  0
 15 39  1  1
 16 17  1  0
 17 18  1  6
 17 19  1  0
 18 40  1  0
 19 41  1  1
M  END
>  <i_m_ct_stereo_status>  (94) 
1

>  <s_m_source_file>  (94) 
/var/tmp/pbs.5076255.sched01/tmpm7cr0ro2/0ctwvxj2z.sdf

>  <i_m_source_file_index>  (94) 
39

>  <i_lp_mmshare_version>  (94) 
48012

>  <i_f3d_flags>  (94) 
0

>  <s_epik_input>  (94) 
W0NIMl0xW0NIMl1bQ0hdPUMoW0NAXTEyW0NIM10pW0NIMl1bQ0gyXVtDQEhdM1tDQEBIXTRbQ0BAXTUoW09IXSlbQ0BASF0zW0NASF0oTzUpW0NAQF0yKFtDSDNdKVtDQEBIXTRbT0hd

>  <s_epik_cmdline>  (94) 
J2VwaWtfcHl0aG9uJywgJy1waHQnLCAnMi4wJywgJy1waCcsICc3LjAnLCAnLXRuJywgJzgnLCAnLW1hJywgJzIwMCcsICctaW1hZScsICc8aW5maWxlLm1hZT4nLCAnLW9tYWUnLCAnPG91dGZpbGUubWFlPic=

>  <r_lp_tautomer_probability>  (94) 
1

>  <r_epik_Ionization_Penalty>  (94) 
4.71734e-07

>  <r_epik_Ionization_Penalty_Charging>  (94) 
0

>  <r_epik_Ionization_Penalty_Neutral>  (94) 
4.71734e-07

>  <r_epik_State_Penalty>  (94) 
-0

>  <r_epik_Charging_Adjusted_Penalty>  (94) 
0

>  <i_epik_Tot_Q>  (94) 
0

>  <i_epik_Tot_abs_Q>  (94) 
0

>  <s_lp_Force_Field>  (94) 
OPLS3e

>  <r_lp_Energy>  (94) 
374.906

>  <b_lp_Chiralities_Consistent>  (94) 
1

>  <s_lp_Variant>  (94) 
26:0-1

>  <s_i_glide_gridfile>  (94) 
pfpi4k_grid

>  <i_i_glide_lignum>  (94) 
39

>  <i_i_glide_rotatable_bonds>  (94) 
2

>  <r_i_docking_score>  (94) 
-3.88952

>  <r_i_glide_ligand_efficiency>  (94) 
-0.204712

>  <r_i_glide_ligand_efficiency_sa>  (94) 
-0.546253

>  <r_i_glide_ligand_efficiency_ln>  (94) 
-0.986077

>  <r_i_glide_gscore>  (94) 
-3.88952

>  <r_i_glide_lipo>  (94) 
-0.45828

>  <r_i_glide_hbond>  (94) 
-0.16

>  <r_i_glide_metal>  (94) 
-0

>  <r_i_glide_rewards>  (94) 
-1.70925

>  <r_i_glide_evdw>  (94) 
-14.9646

>  <r_i_glide_ecoul>  (94) 
-5.42507

>  <r_i_glide_erotb>  (94) 
0

>  <r_i_glide_esite>  (94) 
0

>  <r_i_glide_emodel>  (94) 
-25.184

>  <r_i_glide_energy>  (94) 
-20.3897

>  <r_i_glide_einternal>  (94) 
0.404749

>  <r_i_glide_intrahb_reward>  (94) 
-0

>  <i_i_glide_confnum>  (94) 
2

>  <i_i_glide_posenum>  (94) 
13

>  <r_i_glide_eff_state_penalty>  (94) 
0

>  <ligand_id>  (94) 
26

>  <original_smiles>  (94) 
CC12CCC=C1CCC1C3C(O)C2(C)C2OC3(O)C12

>  <smiles>  (94) 
[H]OC1([H])C2([H])C3(O[H])OC4([H])C3([H])C2([H])C([H])([H])C([H])([H])C2=C([H])C([H])([H])C([H])([H])C2(C([H])([H])[H])C14C([H])([H])[H]

$$$$
26:0:1
     RDKit          3D

 41 45  0  0  1  0  0  0  0  0999 V2000
    4.7956   -0.8255   -1.9991 C   0  0  0  0  0  0  0  0  0  0  0  0
    4.9343   -2.3014   -1.5427 C   0  0  2  0  0  0  0  0  0  0  0  0
    4.9816   -3.0968   -2.8878 C   0  0  0  0  0  0  0  0  0  0  0  0
    3.5421   -3.3169   -3.3522 C   0  0  0  0  0  0  0  0  0  0  0  0
    2.8147   -3.2948   -2.0414 C   0  0  0  0  0  0  0  0  0  0  0  0
    3.5209   -2.7866   -1.0226 C   0  0  0  0  0  0  0  0  0  0  0  0
    2.8368   -2.6254    0.3758 C   0  0  0  0  0  0  0  0  0  0  0  0
    3.3563   -3.2667    1.7536 C   0  0  0  0  0  0  0  0  0  0  0  0
    4.7859   -2.9069    2.4052 C   0  0  1  0  0  0  0  0  0  0  0  0
    5.6084   -3.2354    1.4308 C   0  0  1  0  0  0  0  0  0  0  0  0
    5.9056   -3.9067    0.1303 C   0  0  1  0  0  0  0  0  0  0  0  0
    5.0575   -4.9627   -0.2940 O   0  0  0  0  0  0  0  0  0  0  0  0
    6.2883   -2.6440   -0.6837 C   0  0  1  0  0  0  0  0  0  0  0  0
    7.5208   -2.9197   -1.5791 C   0  0  0  0  0  0  0  0  0  0  0  0
    6.8220   -1.5577    0.4735 C   0  0  1  0  0  0  0  0  0  0  0  0
    5.9109   -0.5681    0.4107 O   0  0  0  0  0  0  0  0  0  0  0  0
    5.1326   -1.4583    1.2581 C   0  0  1  0  0  0  0  0  0  0  0  0
    4.1953   -0.6177    1.9808 O   0  0  0  0  0  0  0  0  0  0  0  0
    6.1452   -1.7908    2.0301 C   0  0  2  0  0  0  0  0  0  0  0  0
    5.7642   -0.3842   -2.2213 H   0  0  0  0  0  0  0  0  0  0  0  0
    4.3028   -0.2135   -1.2482 H   0  0  0  0  0  0  0  0  0  0  0  0
    4.1869   -0.7103   -2.8961 H   0  0  0  0  0  0  0  0  0  0  0  0
    5.6032   -2.6330   -3.6444 H   0  0  0  0  0  0  0  0  0  0  0  0
    5.3829   -4.0955   -2.7257 H   0  0  0  0  0  0  0  0  0  0  0  0
    3.1774   -2.5093   -3.9894 H   0  0  0  0  0  0  0  0  0  0  0  0
    3.4237   -4.2555   -3.8864 H   0  0  0  0  0  0  0  0  0  0  0  0
    1.7973   -3.6502   -1.9736 H   0  0  0  0  0  0  0  0  0  0  0  0
    2.5921   -1.5712    0.4799 H   0  0  0  0  0  0  0  0  0  0  0  0
    1.8456   -3.0605    0.2520 H   0  0  0  0  0  0  0  0  0  0  0  0
    2.5908   -3.0539    2.5025 H   0  0  0  0  0  0  0  0  0  0  0  0
    3.3077   -4.3512    1.6334 H   0  0  0  0  0  0  0  0  0  0  0  0
    4.9564   -3.4033    3.3639 H   0  0  0  0  0  0  0  0  0  0  0  0
    6.3350   -3.8122    2.0820 H   0  0  0  0  0  0  0  0  0  0  0  0
    6.8467   -4.4458    0.2593 H   0  0  0  0  0  0  0  0  0  0  0  0
    5.2659   -5.1863   -1.1899 H   0  0  0  0  0  0  0  0  0  0  0  0
    8.4266   -3.0234   -0.9801 H   0  0  0  0  0  0  0  0  0  0  0  0
    7.6939   -2.1142   -2.2882 H   0  0  0  0  0  0  0  0  0  0  0  0
    7.4419   -3.8351   -2.1616 H   0  0  0  0  0  0  0  0  0  0  0  0
    7.8557   -1.2159    0.4490 H   0  0  0  0  0  0  0  0  0  0  0  0
    3.4321   -0.5542    1.4321 H   0  0  0  0  0  0  0  0  0  0  0  0
    6.3673   -1.0131    2.7628 H   0  0  0  0  0  0  0  0  0  0  0  0
  2  1  1  6
  1 20  1  0
  1 21  1  0
  1 22  1  0
  2  6  1  0
  2 13  1  0
  2  3  1  0
  3  4  1  0
  3 23  1  0
  3 24  1  0
  4  5  1  0
  4 25  1  0
  4 26  1  0
  5  6  2  0
  5 27  1  0
  6  7  1  0
  7  8  1  0
  7 28  1  0
  7 29  1  0
  8  9  1  0
  8 30  1  0
  8 31  1  0
  9 19  1  0
  9 10  1  0
  9 32  1  1
 10 17  1  0
 10 11  1  0
 10 33  1  1
 11 12  1  0
 11 13  1  0
 11 34  1  1
 12 35  1  0
 13 14  1  6
 13 15  1  0
 14 36  1  0
 14 37  1  0
 14 38  1  0
 15 19  1  0
 15 16  1  0
 15 39  1  1
 16 17  1  0
 17 18  1  6
 17 19  1  0
 18 40  1  0
 19 41  1  1
M  END
>  <i_m_ct_stereo_status>  (95) 
1

>  <s_m_source_file>  (95) 
/var/tmp/pbs.5076255.sched01/tmpm7cr0ro2/0ctwvxj2z.sdf

>  <i_m_source_file_index>  (95) 
39

>  <i_lp_mmshare_version>  (95) 
48012

>  <i_f3d_flags>  (95) 
0

>  <s_epik_input>  (95) 
W0NIMl0xW0NIMl1bQ0hdPUMoW0NAXTEyW0NIM10pW0NIMl1bQ0gyXVtDQEhdM1tDQEBIXTRbQ0BAXTUoW09IXSlbQ0BASF0zW0NASF0oTzUpW0NAQF0yKFtDSDNdKVtDQEBIXTRbT0hd

>  <s_epik_cmdline>  (95) 
J2VwaWtfcHl0aG9uJywgJy1waHQnLCAnMi4wJywgJy1waCcsICc3LjAnLCAnLXRuJywgJzgnLCAnLW1hJywgJzIwMCcsICctaW1hZScsICc8aW5maWxlLm1hZT4nLCAnLW9tYWUnLCAnPG91dGZpbGUubWFlPic=

>  <r_lp_tautomer_probability>  (95) 
1

>  <r_epik_Ionization_Penalty>  (95) 
4.71734e-07

>  <r_epik_Ionization_Penalty_Charging>  (95) 
0

>  <r_epik_Ionization_Penalty_Neutral>  (95) 
4.71734e-07

>  <r_epik_State_Penalty>  (95) 
-0

>  <r_epik_Charging_Adjusted_Penalty>  (95) 
0

>  <i_epik_Tot_Q>  (95) 
0

>  <i_epik_Tot_abs_Q>  (95) 
0

>  <s_lp_Force_Field>  (95) 
OPLS3e

>  <r_lp_Energy>  (95) 
374.906

>  <b_lp_Chiralities_Consistent>  (95) 
1

>  <s_lp_Variant>  (95) 
26:0-1

>  <s_i_glide_gridfile>  (95) 
pfpi4k_grid

>  <i_i_glide_lignum>  (95) 
39

>  <i_i_glide_rotatable_bonds>  (95) 
2

>  <r_i_docking_score>  (95) 
-3.52121

>  <r_i_glide_ligand_efficiency>  (95) 
-0.185327

>  <r_i_glide_ligand_efficiency_sa>  (95) 
-0.494526

>  <r_i_glide_ligand_efficiency_ln>  (95) 
-0.892701

>  <r_i_glide_gscore>  (95) 
-3.52121

>  <r_i_glide_lipo>  (95) 
-0.65793

>  <r_i_glide_hbond>  (95) 
0

>  <r_i_glide_metal>  (95) 
-0

>  <r_i_glide_rewards>  (95) 
-1.73259

>  <r_i_glide_evdw>  (95) 
-22.3569

>  <r_i_glide_ecoul>  (95) 
-0.0855867

>  <r_i_glide_erotb>  (95) 
0

>  <r_i_glide_esite>  (95) 
0

>  <r_i_glide_emodel>  (95) 
-26.3356

>  <r_i_glide_energy>  (95) 
-22.4425

>  <r_i_glide_einternal>  (95) 
1.37464

>  <r_i_glide_intrahb_reward>  (95) 
-0

>  <i_i_glide_confnum>  (95) 
1

>  <i_i_glide_posenum>  (95) 
16

>  <r_i_glide_eff_state_penalty>  (95) 
0

>  <ligand_id>  (95) 
26

>  <original_smiles>  (95) 
CC12CCC=C1CCC1C3C(O)C2(C)C2OC3(O)C12

>  <smiles>  (95) 
[H]OC1([H])C2([H])C3(O[H])OC4([H])C3([H])C2([H])C([H])([H])C([H])([H])C2=C([H])C([H])([H])C([H])([H])C2(C([H])([H])[H])C14C([H])([H])[H]

$$$$
26:0:2
     RDKit          3D

 41 45  0  0  1  0  0  0  0  0999 V2000
    6.5607   -2.4247   -0.3798 C   0  0  0  0  0  0  0  0  0  0  0  0
    5.1367   -3.0514   -0.4212 C   0  0  2  0  0  0  0  0  0  0  0  0
    5.0200   -3.6017   -1.8823 C   0  0  0  0  0  0  0  0  0  0  0  0
    4.5448   -2.4633   -2.7803 C   0  0  0  0  0  0  0  0  0  0  0  0
    3.8120   -1.6022   -1.8003 C   0  0  0  0  0  0  0  0  0  0  0  0
    4.0708   -1.8814   -0.5144 C   0  0  0  0  0  0  0  0  0  0  0  0
    3.4423   -0.9836    0.6078 C   0  0  0  0  0  0  0  0  0  0  0  0
    2.4712   -1.5164    1.7779 C   0  0  0  0  0  0  0  0  0  0  0  0
    2.9332   -2.5903    2.8922 C   0  0  1  0  0  0  0  0  0  0  0  0
    3.2860   -3.6182    2.1472 C   0  0  1  0  0  0  0  0  0  0  0  0
    3.3571   -4.3258    0.8310 C   0  0  1  0  0  0  0  0  0  0  0  0
    2.3713   -4.0610   -0.1552 O   0  0  0  0  0  0  0  0  0  0  0  0
    4.8911   -4.2944    0.6229 C   0  0  1  0  0  0  0  0  0  0  0  0
    5.3934   -5.6544    0.0803 C   0  0  0  0  0  0  0  0  0  0  0  0
    5.5030   -4.1914    2.1723 C   0  0  1  0  0  0  0  0  0  0  0  0
    6.0814   -2.9759    2.1645 O   0  0  0  0  0  0  0  0  0  0  0  0
    4.7396   -2.5090    2.4449 C   0  0  1  0  0  0  0  0  0  0  0  0
    4.8966   -1.2274    3.1158 O   0  0  0  0  0  0  0  0  0  0  0  0
    4.4529   -3.4581    3.3130 C   0  0  2  0  0  0  0  0  0  0  0  0
    7.3198   -3.1759   -0.1589 H   0  0  0  0  0  0  0  0  0  0  0  0
    6.6454   -1.6234    0.3541 H   0  0  0  0  0  0  0  0  0  0  0  0
    6.8333   -1.9693   -1.3295 H   0  0  0  0  0  0  0  0  0  0  0  0
    5.9179   -4.0933   -2.2544 H   0  0  0  0  0  0  0  0  0  0  0  0
    4.2220   -4.3347   -1.9349 H   0  0  0  0  0  0  0  0  0  0  0  0
    5.3860   -1.9153   -3.1983 H   0  0  0  0  0  0  0  0  0  0  0  0
    3.9054   -2.8127   -3.5911 H   0  0  0  0  0  0  0  0  0  0  0  0
    3.1633   -0.8085   -2.1414 H   0  0  0  0  0  0  0  0  0  0  0  0
    4.2211   -0.3194    0.9731 H   0  0  0  0  0  0  0  0  0  0  0  0
    2.7975   -0.2798    0.0784 H   0  0  0  0  0  0  0  0  0  0  0  0
    2.1014   -0.6329    2.3020 H   0  0  0  0  0  0  0  0  0  0  0  0
    1.5757   -1.9081    1.2881 H   0  0  0  0  0  0  0  0  0  0  0  0
    2.1562   -2.7906    3.6374 H   0  0  0  0  0  0  0  0  0  0  0  0
    2.7407   -4.4093    2.7494 H   0  0  0  0  0  0  0  0  0  0  0  0
    3.1296   -5.3746    1.0388 H   0  0  0  0  0  0  0  0  0  0  0  0
    2.6230   -4.4898   -0.9636 H   0  0  0  0  0  0  0  0  0  0  0  0
    5.3273   -6.4276    0.8438 H   0  0  0  0  0  0  0  0  0  0  0  0
    6.4387   -5.5878   -0.2117 H   0  0  0  0  0  0  0  0  0  0  0  0
    4.8130   -6.0254   -0.7665 H   0  0  0  0  0  0  0  0  0  0  0  0
    6.1457   -4.9905    2.5445 H   0  0  0  0  0  0  0  0  0  0  0  0
    4.7169   -0.5722    2.4606 H   0  0  0  0  0  0  0  0  0  0  0  0
    4.8824   -3.2636    4.3009 H   0  0  0  0  0  0  0  0  0  0  0  0
  2  1  1  6
  1 20  1  0
  1 21  1  0
  1 22  1  0
  2  6  1  0
  2 13  1  0
  2  3  1  0
  3  4  1  0
  3 23  1  0
  3 24  1  0
  4  5  1  0
  4 25  1  0
  4 26  1  0
  5  6  2  0
  5 27  1  0
  6  7  1  0
  7  8  1  0
  7 28  1  0
  7 29  1  0
  8  9  1  0
  8 30  1  0
  8 31  1  0
  9 19  1  0
  9 10  1  0
  9 32  1  1
 10 17  1  0
 10 11  1  0
 10 33  1  1
 11 12  1  0
 11 13  1  0
 11 34  1  1
 12 35  1  0
 13 14  1  6
 13 15  1  0
 14 36  1  0
 14 37  1  0
 14 38  1  0
 15 19  1  0
 15 16  1  0
 15 39  1  1
 16 17  1  0
 17 18  1  6
 17 19  1  0
 18 40  1  0
 19 41  1  1
M  END
>  <i_m_ct_stereo_status>  (96) 
1

>  <s_m_source_file>  (96) 
/var/tmp/pbs.5076255.sched01/tmpm7cr0ro2/0ctwvxj2z.sdf

>  <i_m_source_file_index>  (96) 
39

>  <i_lp_mmshare_version>  (96) 
48012

>  <i_f3d_flags>  (96) 
0

>  <s_epik_input>  (96) 
W0NIMl0xW0NIMl1bQ0hdPUMoW0NAXTEyW0NIM10pW0NIMl1bQ0gyXVtDQEhdM1tDQEBIXTRbQ0BAXTUoW09IXSlbQ0BASF0zW0NASF0oTzUpW0NAQF0yKFtDSDNdKVtDQEBIXTRbT0hd

>  <s_epik_cmdline>  (96) 
J2VwaWtfcHl0aG9uJywgJy1waHQnLCAnMi4wJywgJy1waCcsICc3LjAnLCAnLXRuJywgJzgnLCAnLW1hJywgJzIwMCcsICctaW1hZScsICc8aW5maWxlLm1hZT4nLCAnLW9tYWUnLCAnPG91dGZpbGUubWFlPic=

>  <r_lp_tautomer_probability>  (96) 
1

>  <r_epik_Ionization_Penalty>  (96) 
4.71734e-07

>  <r_epik_Ionization_Penalty_Charging>  (96) 
0

>  <r_epik_Ionization_Penalty_Neutral>  (96) 
4.71734e-07

>  <r_epik_State_Penalty>  (96) 
-0

>  <r_epik_Charging_Adjusted_Penalty>  (96) 
0

>  <i_epik_Tot_Q>  (96) 
0

>  <i_epik_Tot_abs_Q>  (96) 
0

>  <s_lp_Force_Field>  (96) 
OPLS3e

>  <r_lp_Energy>  (96) 
374.906

>  <b_lp_Chiralities_Consistent>  (96) 
1

>  <s_lp_Variant>  (96) 
26:0-1

>  <s_i_glide_gridfile>  (96) 
pfpi4k_grid

>  <i_i_glide_lignum>  (96) 
39

>  <i_i_glide_rotatable_bonds>  (96) 
2

>  <r_i_docking_score>  (96) 
-3.40787

>  <r_i_glide_ligand_efficiency>  (96) 
-0.179362

>  <r_i_glide_ligand_efficiency_sa>  (96) 
-0.478609

>  <r_i_glide_ligand_efficiency_ln>  (96) 
-0.863968

>  <r_i_glide_gscore>  (96) 
-3.40787

>  <r_i_glide_lipo>  (96) 
-0.347807

>  <r_i_glide_hbond>  (96) 
-0.084576

>  <r_i_glide_metal>  (96) 
-0

>  <r_i_glide_rewards>  (96) 
-1.67384

>  <r_i_glide_evdw>  (96) 
-19.0107

>  <r_i_glide_ecoul>  (96) 
-2.34077

>  <r_i_glide_erotb>  (96) 
0

>  <r_i_glide_esite>  (96) 
0

>  <r_i_glide_emodel>  (96) 
-25.1105

>  <r_i_glide_energy>  (96) 
-21.3515

>  <r_i_glide_einternal>  (96) 
1.41843

>  <r_i_glide_intrahb_reward>  (96) 
-0

>  <i_i_glide_confnum>  (96) 
1

>  <i_i_glide_posenum>  (96) 
33

>  <r_i_glide_eff_state_penalty>  (96) 
0

>  <ligand_id>  (96) 
26

>  <original_smiles>  (96) 
CC12CCC=C1CCC1C3C(O)C2(C)C2OC3(O)C12

>  <smiles>  (96) 
[H]OC1([H])C2([H])C3(O[H])OC4([H])C3([H])C2([H])C([H])([H])C([H])([H])C2=C([H])C([H])([H])C([H])([H])C2(C([H])([H])[H])C14C([H])([H])[H]

$$$$
27:0:0
     RDKit          3D

 48 51  0  0  1  0  0  0  0  0999 V2000
    3.3978   -3.5639   -0.5362 C   0  0  0  0  0  0  0  0  0  0  0  0
    4.4217   -3.5074    0.6408 C   0  0  2  0  0  0  0  0  0  0  0  0
    4.6978   -2.0430    1.0381 C   0  0  0  0  0  0  0  0  0  0  0  0
    5.3679   -1.2633   -0.1052 C   0  0  0  0  0  0  0  0  0  0  0  0
    6.5819   -1.8914   -0.4783 O   0  0  0  0  0  0  0  0  0  0  0  0
    6.4452   -3.2298   -0.9050 C   0  0  0  0  0  0  0  0  0  0  0  0
    5.7396   -4.1014    0.1392 C   0  0  0  0  0  0  0  0  0  0  0  0
    6.2407   -5.2548    0.5704 C   0  0  0  0  0  0  0  0  0  0  0  0
    5.5777   -6.1627    1.5964 C   0  0  0  0  0  0  0  0  0  0  0  0
    4.0707   -5.8455    1.7670 C   0  0  2  0  0  0  0  0  0  0  0  0
    3.8844   -4.3006    1.9017 C   0  0  2  0  0  0  0  0  0  0  0  0
    2.4093   -3.9440    2.2047 C   0  0  0  0  0  0  0  0  0  0  0  0
    1.8090   -4.7170    3.3764 C   0  0  0  0  0  0  0  0  0  0  0  0
    1.9947   -6.2578    3.3029 C   0  0  1  0  0  0  0  0  0  0  0  0
    1.6377   -6.7806    4.7190 C   0  0  0  0  0  0  0  0  0  0  0  0
    1.1202   -7.0394    2.2715 C   0  0  1  0  0  0  0  0  0  0  0  0
    0.8903   -6.3709    1.0358 O   0  0  0  0  0  0  0  0  0  0  0  0
    1.9200   -8.3252    1.9647 C   0  0  0  0  0  0  0  0  0  0  0  0
    3.3117   -8.1605    2.5978 C   0  0  0  0  0  0  0  0  0  0  0  0
    3.4465   -6.6610    2.9416 C   0  0  1  0  0  0  0  0  0  0  0  0
    2.4884   -2.9994   -0.3385 H   0  0  0  0  0  0  0  0  0  0  0  0
    3.1220   -4.5910   -0.7713 H   0  0  0  0  0  0  0  0  0  0  0  0
    3.7685   -3.1468   -1.4692 H   0  0  0  0  0  0  0  0  0  0  0  0
    3.7801   -1.5395    1.3255 H   0  0  0  0  0  0  0  0  0  0  0  0
    5.3472   -2.0109    1.9118 H   0  0  0  0  0  0  0  0  0  0  0  0
    4.6941   -1.1629   -0.9614 H   0  0  0  0  0  0  0  0  0  0  0  0
    5.6135   -0.2580    0.2276 H   0  0  0  0  0  0  0  0  0  0  0  0
    5.8927   -3.2719   -1.8432 H   0  0  0  0  0  0  0  0  0  0  0  0
    7.4457   -3.6070   -1.1048 H   0  0  0  0  0  0  0  0  0  0  0  0
    7.1894   -5.6202    0.1899 H   0  0  0  0  0  0  0  0  0  0  0  0
    5.7139   -7.1972    1.2717 H   0  0  0  0  0  0  0  0  0  0  0  0
    6.1119   -6.0606    2.5481 H   0  0  0  0  0  0  0  0  0  0  0  0
    3.5888   -6.1602    0.8418 H   0  0  0  0  0  0  0  0  0  0  0  0
    4.4712   -4.0054    2.7791 H   0  0  0  0  0  0  0  0  0  0  0  0
    2.2968   -2.8679    2.3851 H   0  0  0  0  0  0  0  0  0  0  0  0
    1.8067   -4.1697    1.3399 H   0  0  0  0  0  0  0  0  0  0  0  0
    2.2696   -4.3253    4.2836 H   0  0  0  0  0  0  0  0  0  0  0  0
    0.7478   -4.4741    3.4463 H   0  0  0  0  0  0  0  0  0  0  0  0
    1.7488   -7.8588    4.8297 H   0  0  0  0  0  0  0  0  0  0  0  0
    0.6061   -6.5532    4.9845 H   0  0  0  0  0  0  0  0  0  0  0  0
    2.2667   -6.3270    5.4829 H   0  0  0  0  0  0  0  0  0  0  0  0
    0.1330   -7.2778    2.6723 H   0  0  0  0  0  0  0  0  0  0  0  0
    1.7281   -6.1734    0.6562 H   0  0  0  0  0  0  0  0  0  0  0  0
    1.4019   -9.2028    2.3573 H   0  0  0  0  0  0  0  0  0  0  0  0
    2.0345   -8.5011    0.9019 H   0  0  0  0  0  0  0  0  0  0  0  0
    3.3617   -8.7500    3.5076 H   0  0  0  0  0  0  0  0  0  0  0  0
    4.1036   -8.5459    1.9538 H   0  0  0  0  0  0  0  0  0  0  0  0
    4.0991   -6.5250    3.8048 H   0  0  0  0  0  0  0  0  0  0  0  0
  2  1  1  6
  1 21  1  0
  1 22  1  0
  1 23  1  0
  2  7  1  0
  2 11  1  0
  2  3  1  0
  3  4  1  0
  3 24  1  0
  3 25  1  0
  4  5  1  0
  4 26  1  0
  4 27  1  0
  5  6  1  0
  6  7  1  0
  6 28  1  0
  6 29  1  0
  7  8  2  0
  8  9  1  0
  8 30  1  0
  9 10  1  0
  9 31  1  0
  9 32  1  0
 10 20  1  0
 10 11  1  0
 10 33  1  6
 11 12  1  0
 11 34  1  1
 12 13  1  0
 12 35  1  0
 12 36  1  0
 13 14  1  0
 13 37  1  0
 13 38  1  0
 14 20  1  0
 14 15  1  1
 14 16  1  0
 15 39  1  0
 15 40  1  0
 15 41  1  0
 16 17  1  0
 16 18  1  0
 16 42  1  1
 17 43  1  0
 18 19  1  0
 18 44  1  0
 18 45  1  0
 19 20  1  0
 19 46  1  0
 19 47  1  0
 20 48  1  1
M  END
>  <i_m_ct_stereo_status>  (97) 
1

>  <s_m_source_file>  (97) 
/var/tmp/pbs.5076255.sched01/tmpm7cr0ro2/0ctwvxj2z.sdf

>  <i_m_source_file_index>  (97) 
40

>  <i_lp_mmshare_version>  (97) 
48012

>  <i_f3d_flags>  (97) 
0

>  <s_epik_input>  (97) 
W0NIMl0xW0NIMl1PW0NIMl1DKFtDQF0xMltDSDNdKT1bQ0hdW0NIMl1bQ0BASF0zW0NAQEhdMltDSDJdW0NIMl1bQ0BdNChbQ0gzXSlbQ0BIXTNbQ0gyXVtDSDJdW0NAQEhdNFtPSF0=

>  <s_epik_cmdline>  (97) 
J2VwaWtfcHl0aG9uJywgJy1waHQnLCAnMi4wJywgJy1waCcsICc3LjAnLCAnLXRuJywgJzgnLCAnLW1hJywgJzIwMCcsICctaW1hZScsICc8aW5maWxlLm1hZT4nLCAnLW9tYWUnLCAnPG91dGZpbGUubWFlPic=

>  <r_lp_tautomer_probability>  (97) 
1

>  <r_epik_Ionization_Penalty>  (97) 
2.78794e-06

>  <r_epik_Ionization_Penalty_Charging>  (97) 
0

>  <r_epik_Ionization_Penalty_Neutral>  (97) 
2.78794e-06

>  <r_epik_State_Penalty>  (97) 
-0

>  <r_epik_Charging_Adjusted_Penalty>  (97) 
0

>  <i_epik_Tot_Q>  (97) 
0

>  <i_epik_Tot_abs_Q>  (97) 
0

>  <s_lp_Force_Field>  (97) 
OPLS3e

>  <r_lp_Energy>  (97) 
30.7216

>  <b_lp_Chiralities_Consistent>  (97) 
1

>  <s_lp_Variant>  (97) 
27:0-1

>  <s_i_glide_gridfile>  (97) 
pfpi4k_grid

>  <i_i_glide_lignum>  (97) 
40

>  <i_i_glide_rotatable_bonds>  (97) 
1

>  <r_i_docking_score>  (97) 
-3.97541

>  <r_i_glide_ligand_efficiency>  (97) 
-0.198771

>  <r_i_glide_ligand_efficiency_sa>  (97) 
-0.539547

>  <r_i_glide_ligand_efficiency_ln>  (97) 
-0.994915

>  <r_i_glide_gscore>  (97) 
-3.97541

>  <r_i_glide_lipo>  (97) 
-0.457212

>  <r_i_glide_hbond>  (97) 
-0.280312

>  <r_i_glide_metal>  (97) 
-0

>  <r_i_glide_rewards>  (97) 
-1.52445

>  <r_i_glide_evdw>  (97) 
-20.6005

>  <r_i_glide_ecoul>  (97) 
-4.55609

>  <r_i_glide_erotb>  (97) 
0

>  <r_i_glide_esite>  (97) 
0

>  <r_i_glide_emodel>  (97) 
-31.7132

>  <r_i_glide_energy>  (97) 
-25.1566

>  <r_i_glide_einternal>  (97) 
0.0447287

>  <r_i_glide_intrahb_reward>  (97) 
-0

>  <i_i_glide_confnum>  (97) 
1

>  <i_i_glide_posenum>  (97) 
39

>  <r_i_glide_eff_state_penalty>  (97) 
0

>  <ligand_id>  (97) 
27

>  <original_smiles>  (97) 
CC12CCOCC1=CCC1C2CCC2(C)C(O)CCC12

>  <smiles>  (97) 
[H]OC1([H])C([H])([H])C([H])([H])C2([H])C3([H])C([H])([H])C([H])=C4C([H])([H])OC([H])([H])C([H])([H])C4(C([H])([H])[H])C3([H])C([H])([H])C([H])([H])C12C([H])([H])[H]

$$$$
27:0:1
     RDKit          3D

 48 51  0  0  1  0  0  0  0  0999 V2000
    2.0954   -2.8982    2.5657 C   0  0  0  0  0  0  0  0  0  0  0  0
    3.6051   -2.5644    2.7455 C   0  0  2  0  0  0  0  0  0  0  0  0
    4.2236   -3.4404    3.8589 C   0  0  0  0  0  0  0  0  0  0  0  0
    3.5809   -3.1641    5.2129 C   0  0  0  0  0  0  0  0  0  0  0  0
    3.7515   -1.7967    5.5410 O   0  0  0  0  0  0  0  0  0  0  0  0
    3.1695   -0.8876    4.6270 C   0  0  0  0  0  0  0  0  0  0  0  0
    3.6986   -1.1157    3.2342 C   0  0  0  0  0  0  0  0  0  0  0  0
    4.1922   -0.1260    2.4800 C   0  0  0  0  0  0  0  0  0  0  0  0
    4.7269   -0.2888    1.0662 C   0  0  0  0  0  0  0  0  0  0  0  0
    4.2306   -1.5946    0.3998 C   0  0  2  0  0  0  0  0  0  0  0  0
    4.3986   -2.7827    1.3990 C   0  0  2  0  0  0  0  0  0  0  0  0
    4.0427   -4.1366    0.7335 C   0  0  0  0  0  0  0  0  0  0  0  0
    4.7559   -4.3631   -0.5970 C   0  0  0  0  0  0  0  0  0  0  0  0
    4.6208   -3.1942   -1.6131 C   0  0  1  0  0  0  0  0  0  0  0  0
    5.6660   -3.4728   -2.7184 C   0  0  0  0  0  0  0  0  0  0  0  0
    3.2374   -2.9993   -2.3232 C   0  0  1  0  0  0  0  0  0  0  0  0
    2.0591   -3.2330   -1.5670 O   0  0  0  0  0  0  0  0  0  0  0  0
    3.2088   -1.5122   -2.7214 C   0  0  0  0  0  0  0  0  0  0  0  0
    4.4350   -0.8580   -2.0616 C   0  0  0  0  0  0  0  0  0  0  0  0
    4.9262   -1.8269   -0.9756 C   0  0  1  0  0  0  0  0  0  0  0  0
    1.9154   -3.9618    2.4135 H   0  0  0  0  0  0  0  0  0  0  0  0
    1.6702   -2.3437    1.7309 H   0  0  0  0  0  0  0  0  0  0  0  0
    1.4742   -2.6529    3.4215 H   0  0  0  0  0  0  0  0  0  0  0  0
    4.1213   -4.4991    3.6165 H   0  0  0  0  0  0  0  0  0  0  0  0
    5.2999   -3.2606    3.9256 H   0  0  0  0  0  0  0  0  0  0  0  0
    2.5372   -3.4413    5.2432 H   0  0  0  0  0  0  0  0  0  0  0  0
    4.0856   -3.7270    5.9904 H   0  0  0  0  0  0  0  0  0  0  0  0
    2.0978   -0.9762    4.6577 H   0  0  0  0  0  0  0  0  0  0  0  0
    3.4166    0.1031    4.9850 H   0  0  0  0  0  0  0  0  0  0  0  0
    4.2342    0.8796    2.8808 H   0  0  0  0  0  0  0  0  0  0  0  0
    4.3941    0.5748    0.4860 H   0  0  0  0  0  0  0  0  0  0  0  0
    5.8234   -0.2516    1.0966 H   0  0  0  0  0  0  0  0  0  0  0  0
    3.1638   -1.4635    0.2192 H   0  0  0  0  0  0  0  0  0  0  0  0
    5.4719   -2.8162    1.6286 H   0  0  0  0  0  0  0  0  0  0  0  0
    4.2580   -4.9673    1.4106 H   0  0  0  0  0  0  0  0  0  0  0  0
    2.9807   -4.2092    0.5249 H   0  0  0  0  0  0  0  0  0  0  0  0
    5.8023   -4.5567   -0.3651 H   0  0  0  0  0  0  0  0  0  0  0  0
    4.3680   -5.2803   -1.0301 H   0  0  0  0  0  0  0  0  0  0  0  0
    5.7158   -2.7448   -3.5231 H   0  0  0  0  0  0  0  0  0  0  0  0
    5.4217   -4.4165   -3.2065 H   0  0  0  0  0  0  0  0  0  0  0  0
    6.6721   -3.5582   -2.3131 H   0  0  0  0  0  0  0  0  0  0  0  0
    3.1519   -3.6572   -3.1949 H   0  0  0  0  0  0  0  0  0  0  0  0
    1.7766   -2.4083   -1.1659 H   0  0  0  0  0  0  0  0  0  0  0  0
    3.2245   -1.4046   -3.8052 H   0  0  0  0  0  0  0  0  0  0  0  0
    2.3024   -1.0041   -2.3805 H   0  0  0  0  0  0  0  0  0  0  0  0
    5.2045   -0.7095   -2.8097 H   0  0  0  0  0  0  0  0  0  0  0  0
    4.2574    0.1407   -1.6766 H   0  0  0  0  0  0  0  0  0  0  0  0
    5.9983   -1.7101   -0.8139 H   0  0  0  0  0  0  0  0  0  0  0  0
  2  1  1  6
  1 21  1  0
  1 22  1  0
  1 23  1  0
  2  7  1  0
  2 11  1  0
  2  3  1  0
  3  4  1  0
  3 24  1  0
  3 25  1  0
  4  5  1  0
  4 26  1  0
  4 27  1  0
  5  6  1  0
  6  7  1  0
  6 28  1  0
  6 29  1  0
  7  8  2  0
  8  9  1  0
  8 30  1  0
  9 10  1  0
  9 31  1  0
  9 32  1  0
 10 20  1  0
 10 11  1  0
 10 33  1  6
 11 12  1  0
 11 34  1  1
 12 13  1  0
 12 35  1  0
 12 36  1  0
 13 14  1  0
 13 37  1  0
 13 38  1  0
 14 20  1  0
 14 15  1  6
 14 16  1  0
 15 39  1  0
 15 40  1  0
 15 41  1  0
 16 17  1  0
 16 18  1  0
 16 42  1  6
 17 43  1  0
 18 19  1  0
 18 44  1  0
 18 45  1  0
 19 20  1  0
 19 46  1  0
 19 47  1  0
 20 48  1  1
M  END
>  <i_m_ct_stereo_status>  (98) 
1

>  <s_m_source_file>  (98) 
/var/tmp/pbs.5076255.sched01/tmpm7cr0ro2/0ctwvxj2z.sdf

>  <i_m_source_file_index>  (98) 
40

>  <i_lp_mmshare_version>  (98) 
48012

>  <i_f3d_flags>  (98) 
0

>  <s_epik_input>  (98) 
W0NIMl0xW0NIMl1PW0NIMl1DKFtDQF0xMltDSDNdKT1bQ0hdW0NIMl1bQ0BASF0zW0NAQEhdMltDSDJdW0NIMl1bQ0BdNChbQ0gzXSlbQ0BIXTNbQ0gyXVtDSDJdW0NAQEhdNFtPSF0=

>  <s_epik_cmdline>  (98) 
J2VwaWtfcHl0aG9uJywgJy1waHQnLCAnMi4wJywgJy1waCcsICc3LjAnLCAnLXRuJywgJzgnLCAnLW1hJywgJzIwMCcsICctaW1hZScsICc8aW5maWxlLm1hZT4nLCAnLW9tYWUnLCAnPG91dGZpbGUubWFlPic=

>  <r_lp_tautomer_probability>  (98) 
1

>  <r_epik_Ionization_Penalty>  (98) 
2.78794e-06

>  <r_epik_Ionization_Penalty_Charging>  (98) 
0

>  <r_epik_Ionization_Penalty_Neutral>  (98) 
2.78794e-06

>  <r_epik_State_Penalty>  (98) 
-0

>  <r_epik_Charging_Adjusted_Penalty>  (98) 
0

>  <i_epik_Tot_Q>  (98) 
0

>  <i_epik_Tot_abs_Q>  (98) 
0

>  <s_lp_Force_Field>  (98) 
OPLS3e

>  <r_lp_Energy>  (98) 
30.7216

>  <b_lp_Chiralities_Consistent>  (98) 
1

>  <s_lp_Variant>  (98) 
27:0-1

>  <s_i_glide_gridfile>  (98) 
pfpi4k_grid

>  <i_i_glide_lignum>  (98) 
40

>  <i_i_glide_rotatable_bonds>  (98) 
1

>  <r_i_docking_score>  (98) 
-3.54139

>  <r_i_glide_ligand_efficiency>  (98) 
-0.17707

>  <r_i_glide_ligand_efficiency_sa>  (98) 
-0.480641

>  <r_i_glide_ligand_efficiency_ln>  (98) 
-0.886294

>  <r_i_glide_gscore>  (98) 
-3.54139

>  <r_i_glide_lipo>  (98) 
-0.469315

>  <r_i_glide_hbond>  (98) 
-0.16

>  <r_i_glide_metal>  (98) 
-0

>  <r_i_glide_rewards>  (98) 
-1.52445

>  <r_i_glide_evdw>  (98) 
-20.2573

>  <r_i_glide_ecoul>  (98) 
-2.4984

>  <r_i_glide_erotb>  (98) 
0

>  <r_i_glide_esite>  (98) 
0

>  <r_i_glide_emodel>  (98) 
-27.6004

>  <r_i_glide_energy>  (98) 
-22.7557

>  <r_i_glide_einternal>  (98) 
1.23356

>  <r_i_glide_intrahb_reward>  (98) 
-0

>  <i_i_glide_confnum>  (98) 
2

>  <i_i_glide_posenum>  (98) 
1

>  <r_i_glide_eff_state_penalty>  (98) 
0

>  <ligand_id>  (98) 
27

>  <original_smiles>  (98) 
CC12CCOCC1=CCC1C2CCC2(C)C(O)CCC12

>  <smiles>  (98) 
[H]OC1([H])C([H])([H])C([H])([H])C2([H])C3([H])C([H])([H])C([H])=C4C([H])([H])OC([H])([H])C([H])([H])C4(C([H])([H])[H])C3([H])C([H])([H])C([H])([H])C12C([H])([H])[H]

$$$$
27:0:2
     RDKit          3D

 48 51  0  0  1  0  0  0  0  0999 V2000
    2.8067   -3.4280   -0.7935 C   0  0  0  0  0  0  0  0  0  0  0  0
    4.0153   -2.4520   -0.6439 C   0  0  2  0  0  0  0  0  0  0  0  0
    3.8287   -1.2318   -1.5597 C   0  0  0  0  0  0  0  0  0  0  0  0
    3.7979   -1.5965   -3.0424 C   0  0  0  0  0  0  0  0  0  0  0  0
    5.0057   -2.2596   -3.3839 O   0  0  0  0  0  0  0  0  0  0  0  0
    5.2601   -3.4444   -2.6514 C   0  0  0  0  0  0  0  0  0  0  0  0
    5.2574   -3.1888   -1.1501 C   0  0  0  0  0  0  0  0  0  0  0  0
    6.2531   -3.5760   -0.3393 C   0  0  0  0  0  0  0  0  0  0  0  0
    6.2833   -3.3491    1.1612 C   0  0  0  0  0  0  0  0  0  0  0  0
    4.8793   -3.0328    1.7396 C   0  0  2  0  0  0  0  0  0  0  0  0
    4.1755   -1.9688    0.8461 C   0  0  2  0  0  0  0  0  0  0  0  0
    2.8244   -1.5187    1.4648 C   0  0  0  0  0  0  0  0  0  0  0  0
    2.9263   -1.1030    2.9337 C   0  0  0  0  0  0  0  0  0  0  0  0
    3.6433   -2.1237    3.8569 C   0  0  1  0  0  0  0  0  0  0  0  0
    3.9346   -1.3586    5.1724 C   0  0  0  0  0  0  0  0  0  0  0  0
    2.8573   -3.4221    4.2301 C   0  0  1  0  0  0  0  0  0  0  0  0
    2.0038   -3.9577    3.2394 O   0  0  0  0  0  0  0  0  0  0  0  0
    3.9370   -4.4862    4.5229 C   0  0  0  0  0  0  0  0  0  0  0  0
    5.2919   -3.8737    4.1322 C   0  0  0  0  0  0  0  0  0  0  0  0
    4.9700   -2.6490    3.2480 C   0  0  1  0  0  0  0  0  0  0  0  0
    1.8530   -2.9315   -0.6334 H   0  0  0  0  0  0  0  0  0  0  0  0
    2.8691   -4.2655   -0.1019 H   0  0  0  0  0  0  0  0  0  0  0  0
    2.6999   -3.8634   -1.7854 H   0  0  0  0  0  0  0  0  0  0  0  0
    2.8995   -0.7393   -1.3102 H   0  0  0  0  0  0  0  0  0  0  0  0
    4.6127   -0.4920   -1.3844 H   0  0  0  0  0  0  0  0  0  0  0  0
    2.9309   -2.1984   -3.2865 H   0  0  0  0  0  0  0  0  0  0  0  0
    3.7427   -0.6937   -3.6464 H   0  0  0  0  0  0  0  0  0  0  0  0
    4.5248   -4.1949   -2.9077 H   0  0  0  0  0  0  0  0  0  0  0  0
    6.2343   -3.8014   -2.9858 H   0  0  0  0  0  0  0  0  0  0  0  0
    7.1251   -4.0829   -0.7316 H   0  0  0  0  0  0  0  0  0  0  0  0
    6.6905   -4.2494    1.6223 H   0  0  0  0  0  0  0  0  0  0  0  0
    6.9873   -2.5355    1.3706 H   0  0  0  0  0  0  0  0  0  0  0  0
    4.2918   -3.9510    1.6712 H   0  0  0  0  0  0  0  0  0  0  0  0
    4.8360   -1.0919    0.8653 H   0  0  0  0  0  0  0  0  0  0  0  0
    2.3995   -0.6928    0.8915 H   0  0  0  0  0  0  0  0  0  0  0  0
    2.0894   -2.3150    1.4115 H   0  0  0  0  0  0  0  0  0  0  0  0
    3.4474   -0.1469    2.9524 H   0  0  0  0  0  0  0  0  0  0  0  0
    1.9213   -0.9028    3.3058 H   0  0  0  0  0  0  0  0  0  0  0  0
    4.4618   -1.9516    5.9212 H   0  0  0  0  0  0  0  0  0  0  0  0
    3.0114   -1.0235    5.6482 H   0  0  0  0  0  0  0  0  0  0  0  0
    4.5402   -0.4711    4.9959 H   0  0  0  0  0  0  0  0  0  0  0  0
    2.2207   -3.2567    5.1058 H   0  0  0  0  0  0  0  0  0  0  0  0
    1.6110   -3.2445    2.7616 H   0  0  0  0  0  0  0  0  0  0  0  0
    3.9272   -4.7579    5.5793 H   0  0  0  0  0  0  0  0  0  0  0  0
    3.7758   -5.4107    3.9596 H   0  0  0  0  0  0  0  0  0  0  0  0
    5.8156   -3.5443    5.0267 H   0  0  0  0  0  0  0  0  0  0  0  0
    5.9494   -4.6077    3.6623 H   0  0  0  0  0  0  0  0  0  0  0  0
    5.7478   -1.8889    3.3345 H   0  0  0  0  0  0  0  0  0  0  0  0
  2  1  1  1
  1 21  1  0
  1 22  1  0
  1 23  1  0
  2  7  1  0
  2 11  1  0
  2  3  1  0
  3  4  1  0
  3 24  1  0
  3 25  1  0
  4  5  1  0
  4 26  1  0
  4 27  1  0
  5  6  1  0
  6  7  1  0
  6 28  1  0
  6 29  1  0
  7  8  2  0
  8  9  1  0
  8 30  1  0
  9 10  1  0
  9 31  1  0
  9 32  1  0
 10 20  1  0
 10 11  1  0
 10 33  1  1
 11 12  1  0
 11 34  1  6
 12 13  1  0
 12 35  1  0
 12 36  1  0
 13 14  1  0
 13 37  1  0
 13 38  1  0
 14 20  1  0
 14 15  1  1
 14 16  1  0
 15 39  1  0
 15 40  1  0
 15 41  1  0
 16 17  1  0
 16 18  1  0
 16 42  1  1
 17 43  1  0
 18 19  1  0
 18 44  1  0
 18 45  1  0
 19 20  1  0
 19 46  1  0
 19 47  1  0
 20 48  1  6
M  END
>  <i_m_ct_stereo_status>  (99) 
1

>  <s_m_source_file>  (99) 
/var/tmp/pbs.5076255.sched01/tmpm7cr0ro2/0ctwvxj2z.sdf

>  <i_m_source_file_index>  (99) 
40

>  <i_lp_mmshare_version>  (99) 
48012

>  <i_f3d_flags>  (99) 
0

>  <s_epik_input>  (99) 
W0NIMl0xW0NIMl1PW0NIMl1DKFtDQF0xMltDSDNdKT1bQ0hdW0NIMl1bQ0BASF0zW0NAQEhdMltDSDJdW0NIMl1bQ0BdNChbQ0gzXSlbQ0BIXTNbQ0gyXVtDSDJdW0NAQEhdNFtPSF0=

>  <s_epik_cmdline>  (99) 
J2VwaWtfcHl0aG9uJywgJy1waHQnLCAnMi4wJywgJy1waCcsICc3LjAnLCAnLXRuJywgJzgnLCAnLW1hJywgJzIwMCcsICctaW1hZScsICc8aW5maWxlLm1hZT4nLCAnLW9tYWUnLCAnPG91dGZpbGUubWFlPic=

>  <r_lp_tautomer_probability>  (99) 
1

>  <r_epik_Ionization_Penalty>  (99) 
2.78794e-06

>  <r_epik_Ionization_Penalty_Charging>  (99) 
0

>  <r_epik_Ionization_Penalty_Neutral>  (99) 
2.78794e-06

>  <r_epik_State_Penalty>  (99) 
-0

>  <r_epik_Charging_Adjusted_Penalty>  (99) 
0

>  <i_epik_Tot_Q>  (99) 
0

>  <i_epik_Tot_abs_Q>  (99) 
0

>  <s_lp_Force_Field>  (99) 
OPLS3e

>  <r_lp_Energy>  (99) 
30.7216

>  <b_lp_Chiralities_Consistent>  (99) 
1

>  <s_lp_Variant>  (99) 
27:0-1

>  <s_i_glide_gridfile>  (99) 
pfpi4k_grid

>  <i_i_glide_lignum>  (99) 
40

>  <i_i_glide_rotatable_bonds>  (99) 
1

>  <r_i_docking_score>  (99) 
-3.51551

>  <r_i_glide_ligand_efficiency>  (99) 
-0.175776

>  <r_i_glide_ligand_efficiency_sa>  (99) 
-0.477129

>  <r_i_glide_ligand_efficiency_ln>  (99) 
-0.879817

>  <r_i_glide_gscore>  (99) 
-3.51551

>  <r_i_glide_lipo>  (99) 
-0.554076

>  <r_i_glide_hbond>  (99) 
0

>  <r_i_glide_metal>  (99) 
-0

>  <r_i_glide_rewards>  (99) 
-1.52445

>  <r_i_glide_evdw>  (99) 
-20.3043

>  <r_i_glide_ecoul>  (99) 
-2.8118

>  <r_i_glide_erotb>  (99) 
0

>  <r_i_glide_esite>  (99) 
0

>  <r_i_glide_emodel>  (99) 
-28.6664

>  <r_i_glide_energy>  (99) 
-23.1161

>  <r_i_glide_einternal>  (99) 
0.428507

>  <r_i_glide_intrahb_reward>  (99) 
-0

>  <i_i_glide_confnum>  (99) 
2

>  <i_i_glide_posenum>  (99) 
30

>  <r_i_glide_eff_state_penalty>  (99) 
0

>  <ligand_id>  (99) 
27

>  <original_smiles>  (99) 
CC12CCOCC1=CCC1C2CCC2(C)C(O)CCC12

>  <smiles>  (99) 
[H]OC1([H])C([H])([H])C([H])([H])C2([H])C3([H])C([H])([H])C([H])=C4C([H])([H])OC([H])([H])C([H])([H])C4(C([H])([H])[H])C3([H])C([H])([H])C([H])([H])C12C([H])([H])[H]

$$$$
28:0:0
     RDKit          3D

 91 96  0  0  1  0  0  0  0  0999 V2000
   -0.0280   -3.9960    6.0904 C   0  0  0  0  0  0  0  0  0  0  0  0
   -0.3559   -3.2656    7.2603 O   0  0  0  0  0  0  0  0  0  0  0  0
    0.2693   -2.0948    7.6094 C   0  0  0  0  0  0  0  0  0  0  0  0
    0.1128   -1.6338    8.7364 O   0  0  0  0  0  0  0  0  0  0  0  0
    1.1870   -1.3778    6.5520 C   0  0  2  0  0  0  0  0  0  0  0  0
    2.6361   -1.9221    6.7373 C   0  0  0  0  0  0  0  0  0  0  0  0
    3.7510   -1.4369    5.7471 C   0  0  2  0  0  0  0  0  0  0  0  0
    5.0411   -1.7757    6.5584 C   0  0  0  0  0  0  0  0  0  0  0  0
    3.6325    0.1100    5.7204 C   0  0  1  0  0  0  0  0  0  0  0  0
    4.8241    0.7067    4.9273 C   0  0  0  0  0  0  0  0  0  0  0  0
    5.3175   -0.1436    3.7369 C   0  0  0  0  0  0  0  0  0  0  0  0
    4.2139   -1.0467    3.1167 C   0  0  1  0  0  0  0  0  0  0  0  0
    4.5898   -1.5925    1.6668 C   0  0  2  0  0  0  0  0  0  0  0  0
    5.1884   -0.3932    0.8857 C   0  0  0  0  0  0  0  0  0  0  0  0
    3.3534   -2.0146    0.8127 C   0  0  0  0  0  0  0  0  0  0  0  0
    3.6864   -2.6517   -0.5458 C   0  0  0  0  0  0  0  0  0  0  0  0
    4.6819   -3.8212   -0.4207 C   0  0  1  0  0  0  0  0  0  0  0  0
    5.0192   -4.2478   -1.7160 O   0  0  0  0  0  0  0  0  0  0  0  0
    5.9688   -3.4657    0.3828 C   0  0  0  0  0  0  0  0  0  0  0  0
    6.7786   -4.7676    0.6339 C   0  0  0  0  0  0  0  0  0  0  0  0
    6.9214   -2.5641   -0.4567 C   0  0  0  0  0  0  0  0  0  0  0  0
    5.5806   -2.8144    1.7523 C   0  0  2  0  0  0  0  0  0  0  0  0
    5.0236   -3.8590    2.7678 C   0  0  0  0  0  0  0  0  0  0  0  0
    4.7722   -3.2808    4.1628 C   0  0  0  0  0  0  0  0  0  0  0  0
    3.7752   -2.0877    4.2434 C   0  0  1  0  0  0  0  0  0  0  0  0
    2.3912   -2.6600    3.8785 C   0  0  0  0  0  0  0  0  0  0  0  0
    2.1832    0.5963    5.3705 C   0  0  2  0  0  0  0  0  0  0  0  0
    2.0580    2.0840    5.0094 C   0  0  0  0  0  0  0  0  0  0  0  0
    0.6679    2.4052    4.4529 C   0  0  1  0  0  0  0  0  0  0  0  0
    0.5861    2.1035    2.9361 C   0  0  0  0  0  0  0  0  0  0  0  0
   -0.4403    1.7556    5.1853 N   0  0  0  0  0  0  0  0  0  0  0  0
   -1.7473    2.2565    4.8627 C   0  0  0  0  0  0  0  0  0  0  0  0
   -2.0053    3.7542    4.7921 C   0  0  0  0  0  0  0  0  0  0  0  0
   -2.5577    2.9579    5.9488 C   0  0  0  0  0  0  0  0  0  0  0  0
   -0.2813    0.6781    6.0036 C   0  0  0  0  0  0  0  0  0  0  0  0
   -1.2820    0.1075    6.4572 O   0  0  0  0  0  0  0  0  0  0  0  0
    1.1258    0.2046    6.4616 C   0  0  1  0  0  0  0  0  0  0  0  0
    1.3830    0.9118    7.8304 C   0  0  0  0  0  0  0  0  0  0  0  0
   -0.6277   -4.9139    6.0049 H   0  0  0  0  0  0  0  0  0  0  0  0
    1.0243   -4.2918    6.1313 H   0  0  0  0  0  0  0  0  0  0  0  0
   -0.2120   -3.3767    5.2085 H   0  0  0  0  0  0  0  0  0  0  0  0
    0.8407   -1.6444    5.5598 H   0  0  0  0  0  0  0  0  0  0  0  0
    2.9332   -1.6385    7.7532 H   0  0  0  0  0  0  0  0  0  0  0  0
    2.6513   -3.0078    6.7675 H   0  0  0  0  0  0  0  0  0  0  0  0
    5.9735   -1.4898    6.0782 H   0  0  0  0  0  0  0  0  0  0  0  0
    5.1045   -2.8408    6.7817 H   0  0  0  0  0  0  0  0  0  0  0  0
    5.0549   -1.2727    7.5252 H   0  0  0  0  0  0  0  0  0  0  0  0
    3.7970    0.4836    6.7289 H   0  0  0  0  0  0  0  0  0  0  0  0
    4.6242    1.7200    4.5832 H   0  0  0  0  0  0  0  0  0  0  0  0
    5.6694    0.8255    5.6219 H   0  0  0  0  0  0  0  0  0  0  0  0
    5.7672    0.5504    3.0473 H   0  0  0  0  0  0  0  0  0  0  0  0
    6.1560   -0.7501    4.0651 H   0  0  0  0  0  0  0  0  0  0  0  0
    3.3756   -0.3794    2.9417 H   0  0  0  0  0  0  0  0  0  0  0  0
    5.1133   -0.4600   -0.1941 H   0  0  0  0  0  0  0  0  0  0  0  0
    6.2433   -0.2605    1.1195 H   0  0  0  0  0  0  0  0  0  0  0  0
    4.6510    0.5272    1.1273 H   0  0  0  0  0  0  0  0  0  0  0  0
    2.7594   -2.7744    1.2812 H   0  0  0  0  0  0  0  0  0  0  0  0
    2.6774   -1.1643    0.6752 H   0  0  0  0  0  0  0  0  0  0  0  0
    2.7615   -3.0227   -0.9891 H   0  0  0  0  0  0  0  0  0  0  0  0
    4.0511   -1.9142   -1.2519 H   0  0  0  0  0  0  0  0  0  0  0  0
    4.1725   -4.6461    0.0833 H   0  0  0  0  0  0  0  0  0  0  0  0
    4.3150   -4.8045   -2.0426 H   0  0  0  0  0  0  0  0  0  0  0  0
    7.5842   -4.6090    1.3546 H   0  0  0  0  0  0  0  0  0  0  0  0
    7.2350   -5.1332   -0.2753 H   0  0  0  0  0  0  0  0  0  0  0  0
    6.1476   -5.5796    0.9962 H   0  0  0  0  0  0  0  0  0  0  0  0
    7.6033   -1.9999    0.1818 H   0  0  0  0  0  0  0  0  0  0  0  0
    6.3764   -1.8680   -1.0840 H   0  0  0  0  0  0  0  0  0  0  0  0
    7.5305   -3.1361   -1.1488 H   0  0  0  0  0  0  0  0  0  0  0  0
    6.5083   -2.4447    2.1930 H   0  0  0  0  0  0  0  0  0  0  0  0
    4.1379   -4.3543    2.3655 H   0  0  0  0  0  0  0  0  0  0  0  0
    5.7439   -4.6650    2.9254 H   0  0  0  0  0  0  0  0  0  0  0  0
    4.4232   -4.0825    4.8182 H   0  0  0  0  0  0  0  0  0  0  0  0
    5.7604   -3.0109    4.5159 H   0  0  0  0  0  0  0  0  0  0  0  0
    2.4023   -3.4063    3.0889 H   0  0  0  0  0  0  0  0  0  0  0  0
    1.6779   -1.9064    3.5499 H   0  0  0  0  0  0  0  0  0  0  0  0
    2.0214   -3.2372    4.7011 H   0  0  0  0  0  0  0  0  0  0  0  0
    1.8948    0.0820    4.4593 H   0  0  0  0  0  0  0  0  0  0  0  0
    2.2596    2.7098    5.8758 H   0  0  0  0  0  0  0  0  0  0  0  0
    2.7724    2.3941    4.2454 H   0  0  0  0  0  0  0  0  0  0  0  0
    0.6060    3.4882    4.5525 H   0  0  0  0  0  0  0  0  0  0  0  0
    1.4284    2.5593    2.3989 H   0  0  0  0  0  0  0  0  0  0  0  0
   -0.3205    2.5375    2.5026 H   0  0  0  0  0  0  0  0  0  0  0  0
    0.5754    1.0307    2.7113 H   0  0  0  0  0  0  0  0  0  0  0  0
   -2.3300    1.6616    4.1625 H   0  0  0  0  0  0  0  0  0  0  0  0
   -1.2540    4.4823    5.0746 H   0  0  0  0  0  0  0  0  0  0  0  0
   -2.6890    4.0692    4.0128 H   0  0  0  0  0  0  0  0  0  0  0  0
   -3.6343    2.8598    5.9730 H   0  0  0  0  0  0  0  0  0  0  0  0
   -2.0859    3.0810    6.9190 H   0  0  0  0  0  0  0  0  0  0  0  0
    2.2703    0.5361    8.3334 H   0  0  0  0  0  0  0  0  0  0  0  0
    0.5523    0.7809    8.5251 H   0  0  0  0  0  0  0  0  0  0  0  0
    1.4888    1.9931    7.7360 H   0  0  0  0  0  0  0  0  0  0  0  0
  1  2  1  0
  1 39  1  0
  1 40  1  0
  1 41  1  0
  2  3  1  0
  3  4  2  0
  3  5  1  0
  5 37  1  0
  5  6  1  0
  5 42  1  6
  6  7  1  0
  6 43  1  0
  6 44  1  0
  7 25  1  0
  7  8  1  1
  7  9  1  0
  8 45  1  0
  8 46  1  0
  8 47  1  0
  9 10  1  0
  9 27  1  0
  9 48  1  1
 10 11  1  0
 10 49  1  0
 10 50  1  0
 11 12  1  0
 11 51  1  0
 11 52  1  0
 12 25  1  0
 12 13  1  0
 12 53  1  6
 13 22  1  0
 13 14  1  6
 13 15  1  0
 14 54  1  0
 14 55  1  0
 14 56  1  0
 15 16  1  0
 15 57  1  0
 15 58  1  0
 16 17  1  0
 16 59  1  0
 16 60  1  0
 17 18  1  0
 17 19  1  0
 17 61  1  1
 18 62  1  0
 19 20  1  0
 19 21  1  0
 19 22  1  0
 20 63  1  0
 20 64  1  0
 20 65  1  0
 21 66  1  0
 21 67  1  0
 21 68  1  0
 22 23  1  0
 22 69  1  1
 23 24  1  0
 23 70  1  0
 23 71  1  0
 24 25  1  0
 24 72  1  0
 24 73  1  0
 25 26  1  6
 26 74  1  0
 26 75  1  0
 26 76  1  0
 27 37  1  0
 27 28  1  0
 27 77  1  6
 28 29  1  0
 28 78  1  0
 28 79  1  0
 29 30  1  0
 29 31  1  0
 29 80  1  6
 30 81  1  0
 30 82  1  0
 30 83  1  0
 31 32  1  0
 31 35  1  0
 32 34  1  0
 32 33  1  0
 32 84  1  0
 33 34  1  0
 33 85  1  0
 33 86  1  0
 34 87  1  0
 34 88  1  0
 35 36  2  0
 35 37  1  0
 37 38  1  1
 38 89  1  0
 38 90  1  0
 38 91  1  0
M  END
>  <i_m_ct_stereo_status>  (100) 
1

>  <s_m_source_file>  (100) 
/var/tmp/pbs.5076255.sched01/tmpguie9axe/40t6mruo9t.sdf

>  <i_m_source_file_index>  (100) 
1

>  <i_lp_mmshare_version>  (100) 
48012

>  <i_f3d_flags>  (100) 
0

>  <s_epik_input>  (100) 
W0NIMl0xW0NIMl1bQ0hdMU4oW0NAQEhdKFtDSDJdMilbQ0gzXSlDKD1PKVtDQEBdKFtDSDNdKShbQ0BASF0oW0NIMl0zKUMoPU8pT1tDSDNdKVtDQEBIXTJbQ0BASF0oW0NAQF0zNFtDSDNdKVtDSDJdW0NIMl1bQ0BIXTVbQ0BAXTYoW0NIM10pW0NASF0oQyhbQ0gzXSkoW0NIM10pW0NASF0oW09IXSlbQ0gyXVtDSDJdNilbQ0gyXVtDSDJdW0NAQF00NVtDSDNd

>  <s_epik_cmdline>  (100) 
J2VwaWtfcHl0aG9uJywgJy1waHQnLCAnMi4wJywgJy1waCcsICc3LjAnLCAnLXRuJywgJzgnLCAnLW1hJywgJzIwMCcsICctaW1hZScsICc8aW5maWxlLm1hZT4nLCAnLW9tYWUnLCAnPG91dGZpbGUubWFlPic=

>  <r_lp_tautomer_probability>  (100) 
1

>  <r_epik_Ionization_Penalty>  (100) 
3.19473e-06

>  <r_epik_Ionization_Penalty_Charging>  (100) 
0

>  <r_epik_Ionization_Penalty_Neutral>  (100) 
3.19473e-06

>  <r_epik_State_Penalty>  (100) 
-0

>  <r_epik_Charging_Adjusted_Penalty>  (100) 
0

>  <i_epik_Tot_Q>  (100) 
0

>  <i_epik_Tot_abs_Q>  (100) 
0

>  <s_epik_Chemistry_Notes>  (100) 
This compound has an ester and may undergo hydrolysis at high or low pH.

>  <s_lp_Force_Field>  (100) 
OPLS3e

>  <r_lp_Energy>  (100) 
121.858

>  <b_lp_Chiralities_Consistent>  (100) 
1

>  <s_lp_Variant>  (100) 
28:0-1

>  <s_i_glide_gridfile>  (100) 
pfpi4k_grid

>  <i_i_glide_lignum>  (100) 
1

>  <i_i_glide_rotatable_bonds>  (100) 
4

>  <r_i_docking_score>  (100) 
-4.16389

>  <r_i_glide_ligand_efficiency>  (100) 
-0.109576

>  <r_i_glide_ligand_efficiency_sa>  (100) 
-0.368392

>  <r_i_glide_ligand_efficiency_ln>  (100) 
-0.897857

>  <r_i_glide_gscore>  (100) 
-4.16389

>  <r_i_glide_lipo>  (100) 
-0.789962

>  <r_i_glide_hbond>  (100) 
-0.60891

>  <r_i_glide_metal>  (100) 
-0

>  <r_i_glide_rewards>  (100) 
0

>  <r_i_glide_evdw>  (100) 
-31.0159

>  <r_i_glide_ecoul>  (100) 
-8.58722

>  <r_i_glide_erotb>  (100) 
0.14789

>  <r_i_glide_esite>  (100) 
-0.0740301

>  <r_i_glide_emodel>  (100) 
-45.9037

>  <r_i_glide_energy>  (100) 
-39.6031

>  <r_i_glide_einternal>  (100) 
7.12943

>  <r_i_glide_intrahb_reward>  (100) 
-0

>  <i_i_glide_confnum>  (100) 
1

>  <i_i_glide_posenum>  (100) 
16

>  <r_i_glide_eff_state_penalty>  (100) 
0

>  <ligand_id>  (100) 
28

>  <original_smiles>  (100) 
COC(=O)C1CC2(C)C(CCC3C4(C)CCC(O)C(C)(C)C4CCC32C)C2CC(C)N(C3CC3)C(=O)C12C

>  <smiles>  (100) 
[H]OC1([H])C([H])([H])C([H])([H])C2(C([H])([H])[H])C([H])(C([H])([H])C([H])([H])C3(C([H])([H])[H])C2([H])C([H])([H])C([H])([H])C2([H])C4([H])C([H])([H])C([H])(C([H])([H])[H])N(C5([H])C([H])([H])C5([H])[H])C(=O)C4(C([H])([H])[H])C([H])(C(=O)OC([H])([H])[H])C([H])([H])C23C([H])([H])[H])C1(C([H])([H])[H])C([H])([H])[H]

$$$$
28:0:1
     RDKit          3D

 91 96  0  0  1  0  0  0  0  0999 V2000
    0.3291    1.1156    2.0819 C   0  0  0  0  0  0  0  0  0  0  0  0
    1.0495   -0.0422    2.4778 O   0  0  0  0  0  0  0  0  0  0  0  0
    2.3699   -0.0999    2.2175 C   0  0  0  0  0  0  0  0  0  0  0  0
    3.0089    0.8169    1.7031 O   0  0  0  0  0  0  0  0  0  0  0  0
    3.0177   -1.4436    2.6680 C   0  0  2  0  0  0  0  0  0  0  0  0
    3.0971   -1.4238    4.2234 C   0  0  0  0  0  0  0  0  0  0  0  0
    3.6824   -2.6767    4.9695 C   0  0  2  0  0  0  0  0  0  0  0  0
    4.0907   -2.0576    6.3475 C   0  0  0  0  0  0  0  0  0  0  0  0
    5.0123   -3.0402    4.2439 C   0  0  1  0  0  0  0  0  0  0  0  0
    5.7618   -4.1438    5.0364 C   0  0  0  0  0  0  0  0  0  0  0  0
    4.8722   -5.1743    5.7310 C   0  0  0  0  0  0  0  0  0  0  0  0
    3.4913   -5.3609    5.0357 C   0  0  1  0  0  0  0  0  0  0  0  0
    2.7576   -6.7144    5.4859 C   0  0  2  0  0  0  0  0  0  0  0  0
    3.8451   -7.8331    5.4920 C   0  0  0  0  0  0  0  0  0  0  0  0
    1.6884   -7.2154    4.4618 C   0  0  0  0  0  0  0  0  0  0  0  0
    0.8827   -8.4570    4.9196 C   0  0  0  0  0  0  0  0  0  0  0  0
    0.2571   -8.2671    6.3114 C   0  0  1  0  0  0  0  0  0  0  0  0
   -0.3957   -9.4556    6.7294 O   0  0  0  0  0  0  0  0  0  0  0  0
    1.2524   -7.7976    7.4053 C   0  0  0  0  0  0  0  0  0  0  0  0
    0.4399   -7.4385    8.6798 C   0  0  0  0  0  0  0  0  0  0  0  0
    2.1861   -8.9650    7.8307 C   0  0  0  0  0  0  0  0  0  0  0  0
    2.0634   -6.5383    6.8880 C   0  0  2  0  0  0  0  0  0  0  0  0
    1.1985   -5.2426    6.8759 C   0  0  0  0  0  0  0  0  0  0  0  0
    1.9918   -3.9727    6.5260 C   0  0  0  0  0  0  0  0  0  0  0  0
    2.6974   -3.9752    5.1364 C   0  0  1  0  0  0  0  0  0  0  0  0
    1.5602   -3.9151    4.0696 C   0  0  0  0  0  0  0  0  0  0  0  0
    4.8154   -3.2320    2.7001 C   0  0  2  0  0  0  0  0  0  0  0  0
    5.9998   -3.8725    1.9406 C   0  0  0  0  0  0  0  0  0  0  0  0
    5.6309   -4.2253    0.4924 C   0  0  1  0  0  0  0  0  0  0  0  0
    4.9310   -5.6002    0.4280 C   0  0  0  0  0  0  0  0  0  0  0  0
    4.8437   -3.1740   -0.1708 N   0  0  0  0  0  0  0  0  0  0  0  0
    4.7243   -3.3479   -1.6015 C   0  0  0  0  0  0  0  0  0  0  0  0
    5.9494   -3.2035   -2.4772 C   0  0  0  0  0  0  0  0  0  0  0  0
    4.8748   -2.1511   -2.5279 C   0  0  0  0  0  0  0  0  0  0  0  0
    4.1604   -2.1905    0.4719 C   0  0  0  0  0  0  0  0  0  0  0  0
    3.4128   -1.4496   -0.1602 O   0  0  0  0  0  0  0  0  0  0  0  0
    4.3747   -1.9054    1.9925 C   0  0  1  0  0  0  0  0  0  0  0  0
    5.4707   -0.7950    2.0472 C   0  0  0  0  0  0  0  0  0  0  0  0
   -0.7127    1.0365    2.3968 H   0  0  0  0  0  0  0  0  0  0  0  0
    0.3626    1.2268    0.9977 H   0  0  0  0  0  0  0  0  0  0  0  0
    0.7614    2.0134    2.5275 H   0  0  0  0  0  0  0  0  0  0  0  0
    2.2863   -2.1822    2.3554 H   0  0  0  0  0  0  0  0  0  0  0  0
    3.7252   -0.5596    4.4537 H   0  0  0  0  0  0  0  0  0  0  0  0
    2.1293   -1.1644    4.6557 H   0  0  0  0  0  0  0  0  0  0  0  0
    4.5581   -2.7579    7.0333 H   0  0  0  0  0  0  0  0  0  0  0  0
    3.2368   -1.6232    6.8632 H   0  0  0  0  0  0  0  0  0  0  0  0
    4.8144   -1.2514    6.2340 H   0  0  0  0  0  0  0  0  0  0  0  0
    5.6780   -2.1854    4.3238 H   0  0  0  0  0  0  0  0  0  0  0  0
    6.4917   -4.6677    4.4294 H   0  0  0  0  0  0  0  0  0  0  0  0
    6.3736   -3.6630    5.8050 H   0  0  0  0  0  0  0  0  0  0  0  0
    5.4924   -6.0657    5.7720 H   0  0  0  0  0  0  0  0  0  0  0  0
    4.7233   -4.8993    6.7743 H   0  0  0  0  0  0  0  0  0  0  0  0
    3.7255   -5.5297    3.9845 H   0  0  0  0  0  0  0  0  0  0  0  0
    3.4661   -8.8394    5.3663 H   0  0  0  0  0  0  0  0  0  0  0  0
    4.4236   -7.8355    6.4179 H   0  0  0  0  0  0  0  0  0  0  0  0
    4.5379   -7.7121    4.6578 H   0  0  0  0  0  0  0  0  0  0  0  0
    0.9409   -6.4631    4.2663 H   0  0  0  0  0  0  0  0  0  0  0  0
    2.1596   -7.4112    3.4966 H   0  0  0  0  0  0  0  0  0  0  0  0
    0.0830   -8.6290    4.1965 H   0  0  0  0  0  0  0  0  0  0  0  0
    1.4876   -9.3597    4.8848 H   0  0  0  0  0  0  0  0  0  0  0  0
   -0.5041   -7.5001    6.1773 H   0  0  0  0  0  0  0  0  0  0  0  0
    0.1811  -10.1935    6.6038 H   0  0  0  0  0  0  0  0  0  0  0  0
    1.0651   -6.9457    9.4265 H   0  0  0  0  0  0  0  0  0  0  0  0
    0.0089   -8.3257    9.1477 H   0  0  0  0  0  0  0  0  0  0  0  0
   -0.4056   -6.7862    8.4533 H   0  0  0  0  0  0  0  0  0  0  0  0
    3.1125   -8.6024    8.2750 H   0  0  0  0  0  0  0  0  0  0  0  0
    2.4354   -9.6289    7.0059 H   0  0  0  0  0  0  0  0  0  0  0  0
    1.7150   -9.6196    8.5647 H   0  0  0  0  0  0  0  0  0  0  0  0
    2.8495   -6.3561    7.6222 H   0  0  0  0  0  0  0  0  0  0  0  0
    0.3307   -5.3589    6.2276 H   0  0  0  0  0  0  0  0  0  0  0  0
    0.7898   -5.0510    7.8662 H   0  0  0  0  0  0  0  0  0  0  0  0
    1.3363   -3.1034    6.6023 H   0  0  0  0  0  0  0  0  0  0  0  0
    2.7133   -3.8855    7.3343 H   0  0  0  0  0  0  0  0  0  0  0  0
    0.6847   -4.4904    4.3289 H   0  0  0  0  0  0  0  0  0  0  0  0
    1.8891   -4.2531    3.0886 H   0  0  0  0  0  0  0  0  0  0  0  0
    1.1163   -2.9301    3.9654 H   0  0  0  0  0  0  0  0  0  0  0  0
    3.9966   -3.9357    2.5719 H   0  0  0  0  0  0  0  0  0  0  0  0
    6.8649   -3.2126    1.9365 H   0  0  0  0  0  0  0  0  0  0  0  0
    6.3380   -4.7917    2.4122 H   0  0  0  0  0  0  0  0  0  0  0  0
    6.5700   -4.3245   -0.0482 H   0  0  0  0  0  0  0  0  0  0  0  0
    5.4964   -6.3513    0.9858 H   0  0  0  0  0  0  0  0  0  0  0  0
    4.8635   -5.9607   -0.6014 H   0  0  0  0  0  0  0  0  0  0  0  0
    3.9189   -5.5687    0.8378 H   0  0  0  0  0  0  0  0  0  0  0  0
    3.9927   -4.0864   -1.9258 H   0  0  0  0  0  0  0  0  0  0  0  0
    6.8950   -2.9471   -2.0070 H   0  0  0  0  0  0  0  0  0  0  0  0
    6.0305   -3.8478   -3.3459 H   0  0  0  0  0  0  0  0  0  0  0  0
    4.2290   -2.1253   -3.4036 H   0  0  0  0  0  0  0  0  0  0  0  0
    5.1223   -1.1774   -2.1030 H   0  0  0  0  0  0  0  0  0  0  0  0
    5.6099   -0.3882    3.0464 H   0  0  0  0  0  0  0  0  0  0  0  0
    5.2462    0.0515    1.3939 H   0  0  0  0  0  0  0  0  0  0  0  0
    6.4421   -1.1462    1.7004 H   0  0  0  0  0  0  0  0  0  0  0  0
  1  2  1  0
  1 39  1  0
  1 40  1  0
  1 41  1  0
  2  3  1  0
  3  4  2  0
  3  5  1  0
  5 37  1  0
  5  6  1  0
  5 42  1  1
  6  7  1  0
  6 43  1  0
  6 44  1  0
  7 25  1  0
  7  8  1  1
  7  9  1  0
  8 45  1  0
  8 46  1  0
  8 47  1  0
  9 10  1  0
  9 27  1  0
  9 48  1  6
 10 11  1  0
 10 49  1  0
 10 50  1  0
 11 12  1  0
 11 51  1  0
 11 52  1  0
 12 25  1  0
 12 13  1  0
 12 53  1  6
 13 22  1  0
 13 14  1  1
 13 15  1  0
 14 54  1  0
 14 55  1  0
 14 56  1  0
 15 16  1  0
 15 57  1  0
 15 58  1  0
 16 17  1  0
 16 59  1  0
 16 60  1  0
 17 18  1  0
 17 19  1  0
 17 61  1  6
 18 62  1  0
 19 20  1  0
 19 21  1  0
 19 22  1  0
 20 63  1  0
 20 64  1  0
 20 65  1  0
 21 66  1  0
 21 67  1  0
 21 68  1  0
 22 23  1  0
 22 69  1  1
 23 24  1  0
 23 70  1  0
 23 71  1  0
 24 25  1  0
 24 72  1  0
 24 73  1  0
 25 26  1  6
 26 74  1  0
 26 75  1  0
 26 76  1  0
 27 37  1  0
 27 28  1  0
 27 77  1  1
 28 29  1  0
 28 78  1  0
 28 79  1  0
 29 30  1  0
 29 31  1  0
 29 80  1  6
 30 81  1  0
 30 82  1  0
 30 83  1  0
 31 32  1  0
 31 35  1  0
 32 34  1  0
 32 33  1  0
 32 84  1  0
 33 34  1  0
 33 85  1  0
 33 86  1  0
 34 87  1  0
 34 88  1  0
 35 36  2  0
 35 37  1  0
 37 38  1  6
 38 89  1  0
 38 90  1  0
 38 91  1  0
M  END
>  <i_m_ct_stereo_status>  (101) 
1

>  <s_m_source_file>  (101) 
/var/tmp/pbs.5076255.sched01/tmpguie9axe/40t6mruo9t.sdf

>  <i_m_source_file_index>  (101) 
1

>  <i_lp_mmshare_version>  (101) 
48012

>  <i_f3d_flags>  (101) 
0

>  <s_epik_input>  (101) 
W0NIMl0xW0NIMl1bQ0hdMU4oW0NAQEhdKFtDSDJdMilbQ0gzXSlDKD1PKVtDQEBdKFtDSDNdKShbQ0BASF0oW0NIMl0zKUMoPU8pT1tDSDNdKVtDQEBIXTJbQ0BASF0oW0NAQF0zNFtDSDNdKVtDSDJdW0NIMl1bQ0BIXTVbQ0BAXTYoW0NIM10pW0NASF0oQyhbQ0gzXSkoW0NIM10pW0NASF0oW09IXSlbQ0gyXVtDSDJdNilbQ0gyXVtDSDJdW0NAQF00NVtDSDNd

>  <s_epik_cmdline>  (101) 
J2VwaWtfcHl0aG9uJywgJy1waHQnLCAnMi4wJywgJy1waCcsICc3LjAnLCAnLXRuJywgJzgnLCAnLW1hJywgJzIwMCcsICctaW1hZScsICc8aW5maWxlLm1hZT4nLCAnLW9tYWUnLCAnPG91dGZpbGUubWFlPic=

>  <r_lp_tautomer_probability>  (101) 
1

>  <r_epik_Ionization_Penalty>  (101) 
3.19473e-06

>  <r_epik_Ionization_Penalty_Charging>  (101) 
0

>  <r_epik_Ionization_Penalty_Neutral>  (101) 
3.19473e-06

>  <r_epik_State_Penalty>  (101) 
-0

>  <r_epik_Charging_Adjusted_Penalty>  (101) 
0

>  <i_epik_Tot_Q>  (101) 
0

>  <i_epik_Tot_abs_Q>  (101) 
0

>  <s_epik_Chemistry_Notes>  (101) 
This compound has an ester and may undergo hydrolysis at high or low pH.

>  <s_lp_Force_Field>  (101) 
OPLS3e

>  <r_lp_Energy>  (101) 
121.858

>  <b_lp_Chiralities_Consistent>  (101) 
1

>  <s_lp_Variant>  (101) 
28:0-1

>  <s_i_glide_gridfile>  (101) 
pfpi4k_grid

>  <i_i_glide_lignum>  (101) 
1

>  <i_i_glide_rotatable_bonds>  (101) 
4

>  <r_i_docking_score>  (101) 
-2.30895

>  <r_i_glide_ligand_efficiency>  (101) 
-0.0607617

>  <r_i_glide_ligand_efficiency_sa>  (101) 
-0.204279

>  <r_i_glide_ligand_efficiency_ln>  (101) 
-0.497877

>  <r_i_glide_gscore>  (101) 
-2.30895

>  <r_i_glide_lipo>  (101) 
-0.794367

>  <r_i_glide_hbond>  (101) 
0

>  <r_i_glide_metal>  (101) 
-0

>  <r_i_glide_rewards>  (101) 
-0.040857

>  <r_i_glide_evdw>  (101) 
-33.2126

>  <r_i_glide_ecoul>  (101) 
0.494144

>  <r_i_glide_erotb>  (101) 
0.14789

>  <r_i_glide_esite>  (101) 
-0.0351058

>  <r_i_glide_emodel>  (101) 
-37.887

>  <r_i_glide_energy>  (101) 
-32.7184

>  <r_i_glide_einternal>  (101) 
0.586569

>  <r_i_glide_intrahb_reward>  (101) 
-0

>  <i_i_glide_confnum>  (101) 
1

>  <i_i_glide_posenum>  (101) 
11

>  <r_i_glide_eff_state_penalty>  (101) 
0

>  <ligand_id>  (101) 
28

>  <original_smiles>  (101) 
COC(=O)C1CC2(C)C(CCC3C4(C)CCC(O)C(C)(C)C4CCC32C)C2CC(C)N(C3CC3)C(=O)C12C

>  <smiles>  (101) 
[H]OC1([H])C([H])([H])C([H])([H])C2(C([H])([H])[H])C([H])(C([H])([H])C([H])([H])C3(C([H])([H])[H])C2([H])C([H])([H])C([H])([H])C2([H])C4([H])C([H])([H])C([H])(C([H])([H])[H])N(C5([H])C([H])([H])C5([H])[H])C(=O)C4(C([H])([H])[H])C([H])(C(=O)OC([H])([H])[H])C([H])([H])C23C([H])([H])[H])C1(C([H])([H])[H])C([H])([H])[H]

$$$$
28:0:2
     RDKit          3D

 91 96  0  0  1  0  0  0  0  0999 V2000
    3.9005   -2.9132   -2.4927 C   0  0  0  0  0  0  0  0  0  0  0  0
    3.5635   -2.6747   -1.1353 O   0  0  0  0  0  0  0  0  0  0  0  0
    3.9777   -3.5420   -0.1941 C   0  0  0  0  0  0  0  0  0  0  0  0
    4.6652   -4.5371   -0.4342 O   0  0  0  0  0  0  0  0  0  0  0  0
    3.5320   -3.1389    1.2410 C   0  0  2  0  0  0  0  0  0  0  0  0
    4.3072   -1.8392    1.6140 C   0  0  0  0  0  0  0  0  0  0  0  0
    4.0456   -1.1762    3.0143 C   0  0  2  0  0  0  0  0  0  0  0  0
    5.3367   -0.3149    3.1935 C   0  0  0  0  0  0  0  0  0  0  0  0
    4.1387   -2.3208    4.0663 C   0  0  1  0  0  0  0  0  0  0  0  0
    4.0932   -1.7241    5.4993 C   0  0  0  0  0  0  0  0  0  0  0  0
    3.2077   -0.4812    5.6644 C   0  0  0  0  0  0  0  0  0  0  0  0
    2.0390   -0.4081    4.6355 C   0  0  1  0  0  0  0  0  0  0  0  0
    0.8946    0.6305    5.0694 C   0  0  2  0  0  0  0  0  0  0  0  0
    0.6471    0.4064    6.5921 C   0  0  0  0  0  0  0  0  0  0  0  0
   -0.4852    0.3472    4.3985 C   0  0  0  0  0  0  0  0  0  0  0  0
   -1.5755    1.3943    4.7020 C   0  0  0  0  0  0  0  0  0  0  0  0
   -1.1221    2.8295    4.3900 C   0  0  1  0  0  0  0  0  0  0  0  0
   -2.1695    3.7090    4.7701 O   0  0  0  0  0  0  0  0  0  0  0  0
    0.2255    3.2226    5.0609 C   0  0  0  0  0  0  0  0  0  0  0  0
    0.6629    4.6032    4.5021 C   0  0  0  0  0  0  0  0  0  0  0  0
    0.0583    3.4387    6.5909 C   0  0  0  0  0  0  0  0  0  0  0  0
    1.3159    2.1153    4.7330 C   0  0  2  0  0  0  0  0  0  0  0  0
    1.8025    2.1903    3.2569 C   0  0  0  0  0  0  0  0  0  0  0  0
    2.9602    1.2312    2.9462 C   0  0  0  0  0  0  0  0  0  0  0  0
    2.6808   -0.2835    3.1770 C   0  0  1  0  0  0  0  0  0  0  0  0
    1.6503   -0.6988    2.0868 C   0  0  0  0  0  0  0  0  0  0  0  0
    3.1787   -3.5120    3.7236 C   0  0  2  0  0  0  0  0  0  0  0  0
    2.9836   -4.5414    4.8545 C   0  0  0  0  0  0  0  0  0  0  0  0
    1.8653   -5.5390    4.5214 C   0  0  1  0  0  0  0  0  0  0  0  0
    0.4819   -4.9589    4.8865 C   0  0  0  0  0  0  0  0  0  0  0  0
    1.9027   -6.0123    3.1216 N   0  0  0  0  0  0  0  0  0  0  0  0
    1.0444   -7.1445    2.8661 C   0  0  0  0  0  0  0  0  0  0  0  0
    1.2312   -8.4291    3.6479 C   0  0  0  0  0  0  0  0  0  0  0  0
    1.6373   -8.3666    2.1978 C   0  0  0  0  0  0  0  0  0  0  0  0
    2.5265   -5.3638    2.0990 C   0  0  0  0  0  0  0  0  0  0  0  0
    2.2958   -5.6928    0.9317 O   0  0  0  0  0  0  0  0  0  0  0  0
    3.5733   -4.2345    2.3844 C   0  0  1  0  0  0  0  0  0  0  0  0
    4.9663   -4.9346    2.4835 C   0  0  0  0  0  0  0  0  0  0  0  0
    3.5425   -2.0954   -3.1234 H   0  0  0  0  0  0  0  0  0  0  0  0
    3.4521   -3.8485   -2.8297 H   0  0  0  0  0  0  0  0  0  0  0  0
    4.9831   -2.9952   -2.6045 H   0  0  0  0  0  0  0  0  0  0  0  0
    2.4783   -2.9038    1.1117 H   0  0  0  0  0  0  0  0  0  0  0  0
    5.3598   -2.1206    1.5553 H   0  0  0  0  0  0  0  0  0  0  0  0
    4.1948   -1.0858    0.8335 H   0  0  0  0  0  0  0  0  0  0  0  0
    5.3925    0.2360    4.1266 H   0  0  0  0  0  0  0  0  0  0  0  0
    5.4463    0.3975    2.3827 H   0  0  0  0  0  0  0  0  0  0  0  0
    6.2280   -0.9320    3.1689 H   0  0  0  0  0  0  0  0  0  0  0  0
    5.1378   -2.7501    4.0133 H   0  0  0  0  0  0  0  0  0  0  0  0
    3.8259   -2.4601    6.2476 H   0  0  0  0  0  0  0  0  0  0  0  0
    5.1089   -1.4359    5.7829 H   0  0  0  0  0  0  0  0  0  0  0  0
    2.9028   -0.5146    6.7062 H   0  0  0  0  0  0  0  0  0  0  0  0
    3.8093    0.4235    5.5892 H   0  0  0  0  0  0  0  0  0  0  0  0
    1.5469   -1.3793    4.6933 H   0  0  0  0  0  0  0  0  0  0  0  0
   -0.3325    0.7065    6.9424 H   0  0  0  0  0  0  0  0  0  0  0  0
    1.3736    0.9412    7.2043 H   0  0  0  0  0  0  0  0  0  0  0  0
    0.7004   -0.6541    6.8417 H   0  0  0  0  0  0  0  0  0  0  0  0
   -0.4164    0.3406    3.3239 H   0  0  0  0  0  0  0  0  0  0  0  0
   -0.8386   -0.6460    4.6729 H   0  0  0  0  0  0  0  0  0  0  0  0
   -2.4438    1.1749    4.0855 H   0  0  0  0  0  0  0  0  0  0  0  0
   -1.9332    1.3229    5.7250 H   0  0  0  0  0  0  0  0  0  0  0  0
   -1.0186    2.9191    3.3076 H   0  0  0  0  0  0  0  0  0  0  0  0
   -2.9476    3.4412    4.3113 H   0  0  0  0  0  0  0  0  0  0  0  0
    1.6860    4.8409    4.7979 H   0  0  0  0  0  0  0  0  0  0  0  0
    0.0209    5.4073    4.8660 H   0  0  0  0  0  0  0  0  0  0  0  0
    0.5990    4.6423    3.4126 H   0  0  0  0  0  0  0  0  0  0  0  0
    1.0046    3.3230    7.1185 H   0  0  0  0  0  0  0  0  0  0  0  0
   -0.6701    2.7672    7.0378 H   0  0  0  0  0  0  0  0  0  0  0  0
   -0.3104    4.4373    6.8250 H   0  0  0  0  0  0  0  0  0  0  0  0
    2.1879    2.3555    5.3441 H   0  0  0  0  0  0  0  0  0  0  0  0
    0.9764    2.0552    2.5629 H   0  0  0  0  0  0  0  0  0  0  0  0
    2.1919    3.1817    3.0364 H   0  0  0  0  0  0  0  0  0  0  0  0
    3.2834    1.3849    1.9160 H   0  0  0  0  0  0  0  0  0  0  0  0
    3.7719    1.5863    3.5790 H   0  0  0  0  0  0  0  0  0  0  0  0
    0.9096    0.0554    1.8685 H   0  0  0  0  0  0  0  0  0  0  0  0
    1.1186   -1.6144    2.3360 H   0  0  0  0  0  0  0  0  0  0  0  0
    2.0999   -0.8106    1.1062 H   0  0  0  0  0  0  0  0  0  0  0  0
    2.1940   -3.0838    3.5639 H   0  0  0  0  0  0  0  0  0  0  0  0
    3.9057   -5.0789    5.0676 H   0  0  0  0  0  0  0  0  0  0  0  0
    2.7028   -4.0737    5.7954 H   0  0  0  0  0  0  0  0  0  0  0  0
    2.0284   -6.3911    5.1793 H   0  0  0  0  0  0  0  0  0  0  0  0
    0.4805   -4.5650    5.9071 H   0  0  0  0  0  0  0  0  0  0  0  0
   -0.2881   -5.7325    4.8485 H   0  0  0  0  0  0  0  0  0  0  0  0
    0.1858   -4.1523    4.2127 H   0  0  0  0  0  0  0  0  0  0  0  0
    0.0213   -6.9077    2.5750 H   0  0  0  0  0  0  0  0  0  0  0  0
    2.0382   -8.5041    4.3729 H   0  0  0  0  0  0  0  0  0  0  0  0
    0.3359   -8.9950    3.8927 H   0  0  0  0  0  0  0  0  0  0  0  0
    1.0141   -8.8971    1.4858 H   0  0  0  0  0  0  0  0  0  0  0  0
    2.7004   -8.3713    1.9711 H   0  0  0  0  0  0  0  0  0  0  0  0
    5.7899   -4.2272    2.5299 H   0  0  0  0  0  0  0  0  0  0  0  0
    5.1692   -5.5920    1.6373 H   0  0  0  0  0  0  0  0  0  0  0  0
    5.0503   -5.5762    3.3575 H   0  0  0  0  0  0  0  0  0  0  0  0
  1  2  1  0
  1 39  1  0
  1 40  1  0
  1 41  1  0
  2  3  1  0
  3  4  2  0
  3  5  1  0
  5 37  1  0
  5  6  1  0
  5 42  1  6
  6  7  1  0
  6 43  1  0
  6 44  1  0
  7 25  1  0
  7  8  1  1
  7  9  1  0
  8 45  1  0
  8 46  1  0
  8 47  1  0
  9 10  1  0
  9 27  1  0
  9 48  1  6
 10 11  1  0
 10 49  1  0
 10 50  1  0
 11 12  1  0
 11 51  1  0
 11 52  1  0
 12 25  1  0
 12 13  1  0
 12 53  1  6
 13 22  1  0
 13 14  1  1
 13 15  1  0
 14 54  1  0
 14 55  1  0
 14 56  1  0
 15 16  1  0
 15 57  1  0
 15 58  1  0
 16 17  1  0
 16 59  1  0
 16 60  1  0
 17 18  1  0
 17 19  1  0
 17 61  1  6
 18 62  1  0
 19 20  1  0
 19 21  1  0
 19 22  1  0
 20 63  1  0
 20 64  1  0
 20 65  1  0
 21 66  1  0
 21 67  1  0
 21 68  1  0
 22 23  1  0
 22 69  1  1
 23 24  1  0
 23 70  1  0
 23 71  1  0
 24 25  1  0
 24 72  1  0
 24 73  1  0
 25 26  1  6
 26 74  1  0
 26 75  1  0
 26 76  1  0
 27 37  1  0
 27 28  1  0
 27 77  1  6
 28 29  1  0
 28 78  1  0
 28 79  1  0
 29 30  1  0
 29 31  1  0
 29 80  1  1
 30 81  1  0
 30 82  1  0
 30 83  1  0
 31 32  1  0
 31 35  1  0
 32 34  1  0
 32 33  1  0
 32 84  1  0
 33 34  1  0
 33 85  1  0
 33 86  1  0
 34 87  1  0
 34 88  1  0
 35 36  2  0
 35 37  1  0
 37 38  1  1
 38 89  1  0
 38 90  1  0
 38 91  1  0
M  END
>  <i_m_ct_stereo_status>  (102) 
1

>  <s_m_source_file>  (102) 
/var/tmp/pbs.5076255.sched01/tmpguie9axe/40t6mruo9t.sdf

>  <i_m_source_file_index>  (102) 
1

>  <i_lp_mmshare_version>  (102) 
48012

>  <i_f3d_flags>  (102) 
0

>  <s_epik_input>  (102) 
W0NIMl0xW0NIMl1bQ0hdMU4oW0NAQEhdKFtDSDJdMilbQ0gzXSlDKD1PKVtDQEBdKFtDSDNdKShbQ0BASF0oW0NIMl0zKUMoPU8pT1tDSDNdKVtDQEBIXTJbQ0BASF0oW0NAQF0zNFtDSDNdKVtDSDJdW0NIMl1bQ0BIXTVbQ0BAXTYoW0NIM10pW0NASF0oQyhbQ0gzXSkoW0NIM10pW0NASF0oW09IXSlbQ0gyXVtDSDJdNilbQ0gyXVtDSDJdW0NAQF00NVtDSDNd

>  <s_epik_cmdline>  (102) 
J2VwaWtfcHl0aG9uJywgJy1waHQnLCAnMi4wJywgJy1waCcsICc3LjAnLCAnLXRuJywgJzgnLCAnLW1hJywgJzIwMCcsICctaW1hZScsICc8aW5maWxlLm1hZT4nLCAnLW9tYWUnLCAnPG91dGZpbGUubWFlPic=

>  <r_lp_tautomer_probability>  (102) 
1

>  <r_epik_Ionization_Penalty>  (102) 
3.19473e-06

>  <r_epik_Ionization_Penalty_Charging>  (102) 
0

>  <r_epik_Ionization_Penalty_Neutral>  (102) 
3.19473e-06

>  <r_epik_State_Penalty>  (102) 
-0

>  <r_epik_Charging_Adjusted_Penalty>  (102) 
0

>  <i_epik_Tot_Q>  (102) 
0

>  <i_epik_Tot_abs_Q>  (102) 
0

>  <s_epik_Chemistry_Notes>  (102) 
This compound has an ester and may undergo hydrolysis at high or low pH.

>  <s_lp_Force_Field>  (102) 
OPLS3e

>  <r_lp_Energy>  (102) 
121.858

>  <b_lp_Chiralities_Consistent>  (102) 
1

>  <s_lp_Variant>  (102) 
28:0-1

>  <s_i_glide_gridfile>  (102) 
pfpi4k_grid

>  <i_i_glide_lignum>  (102) 
1

>  <i_i_glide_rotatable_bonds>  (102) 
4

>  <r_i_docking_score>  (102) 
-2.11552

>  <r_i_glide_ligand_efficiency>  (102) 
-0.0556716

>  <r_i_glide_ligand_efficiency_sa>  (102) 
-0.187167

>  <r_i_glide_ligand_efficiency_ln>  (102) 
-0.456169

>  <r_i_glide_gscore>  (102) 
-2.11552

>  <r_i_glide_lipo>  (102) 
-0.164966

>  <r_i_glide_hbond>  (102) 
0

>  <r_i_glide_metal>  (102) 
-0

>  <r_i_glide_rewards>  (102) 
-0.026338

>  <r_i_glide_evdw>  (102) 
-35.0862

>  <r_i_glide_ecoul>  (102) 
-1.96277

>  <r_i_glide_erotb>  (102) 
0.14789

>  <r_i_glide_esite>  (102) 
-0.0233831

>  <r_i_glide_emodel>  (102) 
-41.9065

>  <r_i_glide_energy>  (102) 
-37.049

>  <r_i_glide_einternal>  (102) 
0.50279

>  <r_i_glide_intrahb_reward>  (102) 
-0

>  <i_i_glide_confnum>  (102) 
2

>  <i_i_glide_posenum>  (102) 
20

>  <r_i_glide_eff_state_penalty>  (102) 
0

>  <ligand_id>  (102) 
28

>  <original_smiles>  (102) 
COC(=O)C1CC2(C)C(CCC3C4(C)CCC(O)C(C)(C)C4CCC32C)C2CC(C)N(C3CC3)C(=O)C12C

>  <smiles>  (102) 
[H]OC1([H])C([H])([H])C([H])([H])C2(C([H])([H])[H])C([H])(C([H])([H])C([H])([H])C3(C([H])([H])[H])C2([H])C([H])([H])C([H])([H])C2([H])C4([H])C([H])([H])C([H])(C([H])([H])[H])N(C5([H])C([H])([H])C5([H])[H])C(=O)C4(C([H])([H])[H])C([H])(C(=O)OC([H])([H])[H])C([H])([H])C23C([H])([H])[H])C1(C([H])([H])[H])C([H])([H])[H]

$$$$
29:0:0
     RDKit          3D

 34 36  0  0  1  0  0  0  0  0999 V2000
    1.5407   -4.1580   -1.1474 C   0  0  0  0  0  0  0  0  0  0  0  0
    2.7034   -4.5357   -0.3237 N   0  0  0  0  0  0  0  0  0  0  0  0
    2.6216   -5.4921    0.6344 C   0  0  0  0  0  0  0  0  0  0  0  0
    1.5761   -6.0949    0.8932 O   0  0  0  0  0  0  0  0  0  0  0  0
    3.9285   -5.7988    1.4312 C   0  0  1  0  0  0  0  0  0  0  0  0
    3.6508   -6.6527    2.6820 C   0  0  0  0  0  0  0  0  0  0  0  0
    4.7861   -6.6002    0.6326 O   0  0  0  0  0  0  0  0  0  0  0  0
    4.6793   -4.4821    1.8082 C   0  0  0  0  0  0  0  0  0  0  0  0
    4.5168   -3.3612    0.7796 C   0  0  0  0  0  0  0  0  0  0  0  0
    4.6943   -2.0605    1.0605 C   0  0  0  0  0  0  0  0  0  0  0  0
    4.4364   -0.9495    0.0617 C   0  0  0  0  0  0  0  0  0  0  0  0
    4.2253   -1.4250   -1.3654 C   0  0  0  0  0  0  0  0  0  0  0  0
    4.2738   -0.4669   -2.3157 N   0  0  0  0  0  0  0  0  0  0  0  0
    4.0527   -0.8192   -3.5951 C   0  0  0  0  0  0  0  0  0  0  0  0
    3.8660   -2.1484   -3.9910 C   0  0  0  0  0  0  0  0  0  0  0  0
    3.8954   -3.1556   -3.0171 C   0  0  0  0  0  0  0  0  0  0  0  0
    4.0203   -2.7866   -1.6617 C   0  0  0  0  0  0  0  0  0  0  0  0
    3.9858   -3.8406   -0.5638 C   0  0  2  0  0  0  0  0  0  0  0  0
    0.6293   -4.6894   -0.8852 H   0  0  0  0  0  0  0  0  0  0  0  0
    1.6882   -4.3841   -2.1998 H   0  0  0  0  0  0  0  0  0  0  0  0
    1.3896   -3.0790   -1.0885 H   0  0  0  0  0  0  0  0  0  0  0  0
    2.9521   -6.1575    3.3592 H   0  0  0  0  0  0  0  0  0  0  0  0
    4.5741   -6.8442    3.2346 H   0  0  0  0  0  0  0  0  0  0  0  0
    3.2231   -7.6249    2.4213 H   0  0  0  0  0  0  0  0  0  0  0  0
    4.8913   -6.1769   -0.2045 H   0  0  0  0  0  0  0  0  0  0  0  0
    4.2827   -4.1086    2.7533 H   0  0  0  0  0  0  0  0  0  0  0  0
    5.7436   -4.6943    1.9562 H   0  0  0  0  0  0  0  0  0  0  0  0
    4.9972   -1.7626    2.0556 H   0  0  0  0  0  0  0  0  0  0  0  0
    3.5626   -0.3905    0.3852 H   0  0  0  0  0  0  0  0  0  0  0  0
    5.2942   -0.2850    0.0767 H   0  0  0  0  0  0  0  0  0  0  0  0
    4.0548   -0.0142   -4.3137 H   0  0  0  0  0  0  0  0  0  0  0  0
    3.6895   -2.3900   -5.0198 H   0  0  0  0  0  0  0  0  0  0  0  0
    3.8068   -4.1891   -3.3136 H   0  0  0  0  0  0  0  0  0  0  0  0
    4.6967   -4.5677   -0.9402 H   0  0  0  0  0  0  0  0  0  0  0  0
  1  2  1  0
  1 19  1  0
  1 20  1  0
  1 21  1  0
  2 18  1  0
  2  3  1  0
  3  4  2  0
  3  5  1  0
  5  6  1  0
  5  7  1  6
  5  8  1  0
  6 22  1  0
  6 23  1  0
  6 24  1  0
  7 25  1  0
  8  9  1  0
  8 26  1  0
  8 27  1  0
  9 18  1  0
  9 10  2  0
 10 11  1  0
 10 28  1  0
 11 12  1  0
 11 29  1  0
 11 30  1  0
 12 17  2  0
 12 13  1  0
 13 14  2  0
 14 15  1  0
 14 31  1  0
 15 16  2  0
 15 32  1  0
 16 17  1  0
 16 33  1  0
 17 18  1  0
 18 34  1  6
M  END
>  <i_m_ct_stereo_status>  (103) 
1

>  <s_m_source_file>  (103) 
/var/tmp/pbs.5076255.sched01/tmpguie9axe/40t6mruo9t.sdf

>  <i_m_source_file_index>  (103) 
2

>  <i_lp_mmshare_version>  (103) 
48012

>  <i_f3d_flags>  (103) 
0

>  <s_epik_input>  (103) 
W0NIM11bQ0BdKFtPSF0pKFtDSDJdMSlDKD1PKU4oW0NIM10pW0NASF0oQzE9MiljM2MoW0NIMl1bQ0hdMiluW2NIXVtjSF1bY0hdMw==

>  <s_epik_cmdline>  (103) 
J2VwaWtfcHl0aG9uJywgJy1waHQnLCAnMi4wJywgJy1waCcsICc3LjAnLCAnLXRuJywgJzgnLCAnLW1hJywgJzIwMCcsICctaW1hZScsICc8aW5maWxlLm1hZT4nLCAnLW9tYWUnLCAnPG91dGZpbGUubWFlPic=

>  <r_epik_Ionization_Penalty>  (103) 
0.0129055

>  <r_epik_Ionization_Penalty_Charging>  (103) 
0

>  <r_epik_Ionization_Penalty_Neutral>  (103) 
0.0129055

>  <r_epik_State_Penalty>  (103) 
0.0100098

>  <r_epik_Charging_Adjusted_Penalty>  (103) 
0.0100098

>  <i_epik_Tot_Q>  (103) 
0

>  <i_epik_Tot_abs_Q>  (103) 
0

>  <s_lp_Force_Field>  (103) 
OPLS3e

>  <r_lp_Energy>  (103) 
44.8445

>  <b_lp_Chiralities_Consistent>  (103) 
1

>  <s_lp_Variant>  (103) 
29:0-1

>  <s_i_glide_gridfile>  (103) 
pfpi4k_grid

>  <i_i_glide_lignum>  (103) 
2

>  <i_i_glide_rotatable_bonds>  (103) 
1

>  <r_i_docking_score>  (103) 
-3.53397

>  <r_i_glide_ligand_efficiency>  (103) 
-0.196332

>  <r_i_glide_ligand_efficiency_sa>  (103) 
-0.514535

>  <r_i_glide_ligand_efficiency_ln>  (103) 
-0.908389

>  <r_i_glide_gscore>  (103) 
-3.53397

>  <r_i_glide_lipo>  (103) 
-0.393138

>  <r_i_glide_hbond>  (103) 
-0.0932115

>  <r_i_glide_metal>  (103) 
-0

>  <r_i_glide_rewards>  (103) 
-1.74348

>  <r_i_glide_evdw>  (103) 
-18.8831

>  <r_i_glide_ecoul>  (103) 
-1.77832

>  <r_i_glide_erotb>  (103) 
0

>  <r_i_glide_esite>  (103) 
-0.0932369

>  <r_i_glide_emodel>  (103) 
-24.8337

>  <r_i_glide_energy>  (103) 
-20.6614

>  <r_i_glide_einternal>  (103) 
1.70034

>  <r_i_glide_intrahb_reward>  (103) 
-0

>  <i_i_glide_confnum>  (103) 
1

>  <i_i_glide_posenum>  (103) 
7

>  <r_i_glide_eff_state_penalty>  (103) 
0

>  <ligand_id>  (103) 
29

>  <original_smiles>  (103) 
CN1C(=O)C(C)(O)CC2=CCc3ncccc3C21

>  <smiles>  (103) 
[H]OC1(C([H])([H])[H])C(=O)N(C([H])([H])[H])C2([H])C(=C([H])C([H])([H])c3nc([H])c([H])c([H])c32)C1([H])[H]

$$$$
29:0:1
     RDKit          3D

 34 36  0  0  1  0  0  0  0  0999 V2000
    2.5067   -2.7614    2.0581 C   0  0  0  0  0  0  0  0  0  0  0  0
    2.5957   -4.1824    1.7078 N   0  0  0  0  0  0  0  0  0  0  0  0
    1.9845   -5.1351    2.4658 C   0  0  0  0  0  0  0  0  0  0  0  0
    1.2974   -4.8762    3.4561 O   0  0  0  0  0  0  0  0  0  0  0  0
    2.1468   -6.6065    2.0126 C   0  0  1  0  0  0  0  0  0  0  0  0
    1.6970   -7.6035    3.1001 C   0  0  0  0  0  0  0  0  0  0  0  0
    1.2609   -6.8136    0.9194 O   0  0  0  0  0  0  0  0  0  0  0  0
    3.6214   -6.8953    1.5783 C   0  0  0  0  0  0  0  0  0  0  0  0
    4.3281   -5.6957    0.9505 C   0  0  0  0  0  0  0  0  0  0  0  0
    5.6651   -5.5584    0.9044 C   0  0  0  0  0  0  0  0  0  0  0  0
    6.3684   -4.3205    0.3743 C   0  0  0  0  0  0  0  0  0  0  0  0
    5.4589   -3.3357   -0.3429 C   0  0  0  0  0  0  0  0  0  0  0  0
    6.0783   -2.3508   -1.0363 N   0  0  0  0  0  0  0  0  0  0  0  0
    5.3041   -1.4806   -1.7196 C   0  0  0  0  0  0  0  0  0  0  0  0
    3.9044   -1.5584   -1.7704 C   0  0  0  0  0  0  0  0  0  0  0  0
    3.2730   -2.5830   -1.0482 C   0  0  0  0  0  0  0  0  0  0  0  0
    4.0528   -3.4738   -0.2871 C   0  0  0  0  0  0  0  0  0  0  0  0
    3.3888   -4.5846    0.5229 C   0  0  2  0  0  0  0  0  0  0  0  0
    2.0305   -2.5835    3.0229 H   0  0  0  0  0  0  0  0  0  0  0  0
    1.9228   -2.2172    1.3154 H   0  0  0  0  0  0  0  0  0  0  0  0
    3.5021   -2.3220    2.1149 H   0  0  0  0  0  0  0  0  0  0  0  0
    2.2584   -7.4682    4.0259 H   0  0  0  0  0  0  0  0  0  0  0  0
    1.8434   -8.6359    2.7798 H   0  0  0  0  0  0  0  0  0  0  0  0
    0.6392   -7.4879    3.3440 H   0  0  0  0  0  0  0  0  0  0  0  0
    1.2788   -7.7334    0.6908 H   0  0  0  0  0  0  0  0  0  0  0  0
    4.2056   -7.1826    2.4542 H   0  0  0  0  0  0  0  0  0  0  0  0
    3.6633   -7.7415    0.8911 H   0  0  0  0  0  0  0  0  0  0  0  0
    6.2972   -6.3413    1.3015 H   0  0  0  0  0  0  0  0  0  0  0  0
    6.8636   -3.8126    1.2008 H   0  0  0  0  0  0  0  0  0  0  0  0
    7.1410   -4.6477   -0.3182 H   0  0  0  0  0  0  0  0  0  0  0  0
    5.8134   -0.6955   -2.2528 H   0  0  0  0  0  0  0  0  0  0  0  0
    3.3226   -0.8402   -2.3308 H   0  0  0  0  0  0  0  0  0  0  0  0
    2.1993   -2.6666   -1.0654 H   0  0  0  0  0  0  0  0  0  0  0  0
    2.7017   -5.0267   -0.1990 H   0  0  0  0  0  0  0  0  0  0  0  0
  1  2  1  0
  1 19  1  0
  1 20  1  0
  1 21  1  0
  2 18  1  0
  2  3  1  0
  3  4  2  0
  3  5  1  0
  5  6  1  0
  5  7  1  6
  5  8  1  0
  6 22  1  0
  6 23  1  0
  6 24  1  0
  7 25  1  0
  8  9  1  0
  8 26  1  0
  8 27  1  0
  9 18  1  0
  9 10  2  0
 10 11  1  0
 10 28  1  0
 11 12  1  0
 11 29  1  0
 11 30  1  0
 12 17  2  0
 12 13  1  0
 13 14  2  0
 14 15  1  0
 14 31  1  0
 15 16  2  0
 15 32  1  0
 16 17  1  0
 16 33  1  0
 17 18  1  0
 18 34  1  6
M  END
>  <i_m_ct_stereo_status>  (104) 
1

>  <s_m_source_file>  (104) 
/var/tmp/pbs.5076255.sched01/tmpguie9axe/40t6mruo9t.sdf

>  <i_m_source_file_index>  (104) 
2

>  <i_lp_mmshare_version>  (104) 
48012

>  <i_f3d_flags>  (104) 
0

>  <s_epik_input>  (104) 
W0NIM11bQ0BdKFtPSF0pKFtDSDJdMSlDKD1PKU4oW0NIM10pW0NASF0oQzE9MiljM2MoW0NIMl1bQ0hdMiluW2NIXVtjSF1bY0hdMw==

>  <s_epik_cmdline>  (104) 
J2VwaWtfcHl0aG9uJywgJy1waHQnLCAnMi4wJywgJy1waCcsICc3LjAnLCAnLXRuJywgJzgnLCAnLW1hJywgJzIwMCcsICctaW1hZScsICc8aW5maWxlLm1hZT4nLCAnLW9tYWUnLCAnPG91dGZpbGUubWFlPic=

>  <r_epik_Ionization_Penalty>  (104) 
0.0129055

>  <r_epik_Ionization_Penalty_Charging>  (104) 
0

>  <r_epik_Ionization_Penalty_Neutral>  (104) 
0.0129055

>  <r_epik_State_Penalty>  (104) 
0.0100098

>  <r_epik_Charging_Adjusted_Penalty>  (104) 
0.0100098

>  <i_epik_Tot_Q>  (104) 
0

>  <i_epik_Tot_abs_Q>  (104) 
0

>  <s_lp_Force_Field>  (104) 
OPLS3e

>  <r_lp_Energy>  (104) 
44.8445

>  <b_lp_Chiralities_Consistent>  (104) 
1

>  <s_lp_Variant>  (104) 
29:0-1

>  <s_i_glide_gridfile>  (104) 
pfpi4k_grid

>  <i_i_glide_lignum>  (104) 
2

>  <i_i_glide_rotatable_bonds>  (104) 
1

>  <r_i_docking_score>  (104) 
-3.46168

>  <r_i_glide_ligand_efficiency>  (104) 
-0.192316

>  <r_i_glide_ligand_efficiency_sa>  (104) 
-0.50401

>  <r_i_glide_ligand_efficiency_ln>  (104) 
-0.889808

>  <r_i_glide_gscore>  (104) 
-3.46168

>  <r_i_glide_lipo>  (104) 
-0.406605

>  <r_i_glide_hbond>  (104) 
0

>  <r_i_glide_metal>  (104) 
-0

>  <r_i_glide_rewards>  (104) 
-1.74348

>  <r_i_glide_evdw>  (104) 
-18.4734

>  <r_i_glide_ecoul>  (104) 
-2.37626

>  <r_i_glide_erotb>  (104) 
0

>  <r_i_glide_esite>  (104) 
-0.0314836

>  <r_i_glide_emodel>  (104) 
-25.9846

>  <r_i_glide_energy>  (104) 
-20.8497

>  <r_i_glide_einternal>  (104) 
0.0627594

>  <r_i_glide_intrahb_reward>  (104) 
-0

>  <i_i_glide_confnum>  (104) 
1

>  <i_i_glide_posenum>  (104) 
39

>  <r_i_glide_eff_state_penalty>  (104) 
0

>  <ligand_id>  (104) 
29

>  <original_smiles>  (104) 
CN1C(=O)C(C)(O)CC2=CCc3ncccc3C21

>  <smiles>  (104) 
[H]OC1(C([H])([H])[H])C(=O)N(C([H])([H])[H])C2([H])C(=C([H])C([H])([H])c3nc([H])c([H])c([H])c32)C1([H])[H]

$$$$
29:0:2
     RDKit          3D

 34 36  0  0  1  0  0  0  0  0999 V2000
    2.5415   -2.6238    1.8099 C   0  0  0  0  0  0  0  0  0  0  0  0
    2.9196   -4.0279    1.6187 N   0  0  0  0  0  0  0  0  0  0  0  0
    2.5975   -4.9782    2.5369 C   0  0  0  0  0  0  0  0  0  0  0  0
    1.9362   -4.7433    3.5499 O   0  0  0  0  0  0  0  0  0  0  0  0
    3.0967   -6.4204    2.2670 C   0  0  1  0  0  0  0  0  0  0  0  0
    2.9573   -7.3323    3.5020 C   0  0  0  0  0  0  0  0  0  0  0  0
    2.2504   -6.9875    1.2810 O   0  0  0  0  0  0  0  0  0  0  0  0
    4.5705   -6.4226    1.7478 C   0  0  0  0  0  0  0  0  0  0  0  0
    4.9348   -5.1925    0.9216 C   0  0  0  0  0  0  0  0  0  0  0  0
    6.1986   -4.7680    0.7397 C   0  0  0  0  0  0  0  0  0  0  0  0
    6.5577   -3.4931   -0.0008 C   0  0  0  0  0  0  0  0  0  0  0  0
    5.4014   -2.8475   -0.7447 C   0  0  0  0  0  0  0  0  0  0  0  0
    5.7380   -1.8540   -1.5982 N   0  0  0  0  0  0  0  0  0  0  0  0
    4.7457   -1.2840   -2.3179 C   0  0  0  0  0  0  0  0  0  0  0  0
    3.4070   -1.6897   -2.2457 C   0  0  0  0  0  0  0  0  0  0  0  0
    3.0633   -2.7156   -1.3515 C   0  0  0  0  0  0  0  0  0  0  0  0
    4.0714   -3.2914   -0.5547 C   0  0  0  0  0  0  0  0  0  0  0  0
    3.7346   -4.3980    0.4392 C   0  0  2  0  0  0  0  0  0  0  0  0
    2.0904   -2.4253    2.7829 H   0  0  0  0  0  0  0  0  0  0  0  0
    1.8181   -2.3169    1.0561 H   0  0  0  0  0  0  0  0  0  0  0  0
    3.4143   -1.9770    1.7296 H   0  0  0  0  0  0  0  0  0  0  0  0
    3.5212   -6.9485    4.3530 H   0  0  0  0  0  0  0  0  0  0  0  0
    3.3238   -8.3395    3.2989 H   0  0  0  0  0  0  0  0  0  0  0  0
    1.9178   -7.4272    3.8205 H   0  0  0  0  0  0  0  0  0  0  0  0
    2.4947   -7.8915    1.1496 H   0  0  0  0  0  0  0  0  0  0  0  0
    5.2552   -6.4489    2.5963 H   0  0  0  0  0  0  0  0  0  0  0  0
    4.7690   -7.3228    1.1626 H   0  0  0  0  0  0  0  0  0  0  0  0
    7.0211   -5.3277    1.1673 H   0  0  0  0  0  0  0  0  0  0  0  0
    6.9666   -2.7780    0.7104 H   0  0  0  0  0  0  0  0  0  0  0  0
    7.3414   -3.7342   -0.7173 H   0  0  0  0  0  0  0  0  0  0  0  0
    5.0154   -0.4762   -2.9793 H   0  0  0  0  0  0  0  0  0  0  0  0
    2.6468   -1.1963   -2.8335 H   0  0  0  0  0  0  0  0  0  0  0  0
    2.0372   -3.0416   -1.2667 H   0  0  0  0  0  0  0  0  0  0  0  0
    3.1407   -5.0798   -0.1683 H   0  0  0  0  0  0  0  0  0  0  0  0
  1  2  1  0
  1 19  1  0
  1 20  1  0
  1 21  1  0
  2 18  1  0
  2  3  1  0
  3  4  2  0
  3  5  1  0
  5  6  1  0
  5  7  1  6
  5  8  1  0
  6 22  1  0
  6 23  1  0
  6 24  1  0
  7 25  1  0
  8  9  1  0
  8 26  1  0
  8 27  1  0
  9 18  1  0
  9 10  2  0
 10 11  1  0
 10 28  1  0
 11 12  1  0
 11 29  1  0
 11 30  1  0
 12 17  2  0
 12 13  1  0
 13 14  2  0
 14 15  1  0
 14 31  1  0
 15 16  2  0
 15 32  1  0
 16 17  1  0
 16 33  1  0
 17 18  1  0
 18 34  1  6
M  END
>  <i_m_ct_stereo_status>  (105) 
1

>  <s_m_source_file>  (105) 
/var/tmp/pbs.5076255.sched01/tmpguie9axe/40t6mruo9t.sdf

>  <i_m_source_file_index>  (105) 
2

>  <i_lp_mmshare_version>  (105) 
48012

>  <i_f3d_flags>  (105) 
0

>  <s_epik_input>  (105) 
W0NIM11bQ0BdKFtPSF0pKFtDSDJdMSlDKD1PKU4oW0NIM10pW0NASF0oQzE9MiljM2MoW0NIMl1bQ0hdMiluW2NIXVtjSF1bY0hdMw==

>  <s_epik_cmdline>  (105) 
J2VwaWtfcHl0aG9uJywgJy1waHQnLCAnMi4wJywgJy1waCcsICc3LjAnLCAnLXRuJywgJzgnLCAnLW1hJywgJzIwMCcsICctaW1hZScsICc8aW5maWxlLm1hZT4nLCAnLW9tYWUnLCAnPG91dGZpbGUubWFlPic=

>  <r_epik_Ionization_Penalty>  (105) 
0.0129055

>  <r_epik_Ionization_Penalty_Charging>  (105) 
0

>  <r_epik_Ionization_Penalty_Neutral>  (105) 
0.0129055

>  <r_epik_State_Penalty>  (105) 
0.0100098

>  <r_epik_Charging_Adjusted_Penalty>  (105) 
0.0100098

>  <i_epik_Tot_Q>  (105) 
0

>  <i_epik_Tot_abs_Q>  (105) 
0

>  <s_lp_Force_Field>  (105) 
OPLS3e

>  <r_lp_Energy>  (105) 
44.8445

>  <b_lp_Chiralities_Consistent>  (105) 
1

>  <s_lp_Variant>  (105) 
29:0-1

>  <s_i_glide_gridfile>  (105) 
pfpi4k_grid

>  <i_i_glide_lignum>  (105) 
2

>  <i_i_glide_rotatable_bonds>  (105) 
1

>  <r_i_docking_score>  (105) 
-3.30473

>  <r_i_glide_ligand_efficiency>  (105) 
-0.183596

>  <r_i_glide_ligand_efficiency_sa>  (105) 
-0.481158

>  <r_i_glide_ligand_efficiency_ln>  (105) 
-0.849464

>  <r_i_glide_gscore>  (105) 
-3.30473

>  <r_i_glide_lipo>  (105) 
-0.371972

>  <r_i_glide_hbond>  (105) 
-0.0198758

>  <r_i_glide_metal>  (105) 
-0

>  <r_i_glide_rewards>  (105) 
-1.74348

>  <r_i_glide_evdw>  (105) 
-18.4189

>  <r_i_glide_ecoul>  (105) 
-1.58379

>  <r_i_glide_erotb>  (105) 
0

>  <r_i_glide_esite>  (105) 
-0.0108842

>  <r_i_glide_emodel>  (105) 
-24.9492

>  <r_i_glide_energy>  (105) 
-20.0027

>  <r_i_glide_einternal>  (105) 
0.0182366

>  <r_i_glide_intrahb_reward>  (105) 
-0

>  <i_i_glide_confnum>  (105) 
1

>  <i_i_glide_posenum>  (105) 
16

>  <r_i_glide_eff_state_penalty>  (105) 
0

>  <ligand_id>  (105) 
29

>  <original_smiles>  (105) 
CN1C(=O)C(C)(O)CC2=CCc3ncccc3C21

>  <smiles>  (105) 
[H]OC1(C([H])([H])[H])C(=O)N(C([H])([H])[H])C2([H])C(=C([H])C([H])([H])c3nc([H])c([H])c([H])c32)C1([H])[H]

$$$$
29:1:0
     RDKit          3D

 35 37  0  0  1  0  0  0  0  0999 V2000
    6.3277   -0.8644    1.0170 C   0  0  0  0  0  0  0  0  0  0  0  0
    5.3013   -1.8052    0.5468 N   0  0  0  0  0  0  0  0  0  0  0  0
    5.3443   -2.2904   -0.7165 C   0  0  0  0  0  0  0  0  0  0  0  0
    6.1194   -1.8497   -1.5682 O   0  0  0  0  0  0  0  0  0  0  0  0
    4.4390   -3.4914   -1.0642 C   0  0  1  0  0  0  0  0  0  0  0  0
    3.0898   -2.9783   -1.5964 C   0  0  0  0  0  0  0  0  0  0  0  0
    5.0117   -4.2561   -2.0955 O   0  0  0  0  0  0  0  0  0  0  0  0
    4.2918   -4.4088    0.1728 C   0  0  0  0  0  0  0  0  0  0  0  0
    3.7131   -3.6202    1.3271 C   0  0  0  0  0  0  0  0  0  0  0  0
    2.6490   -4.0370    2.0370 C   0  0  0  0  0  0  0  0  0  0  0  0
    1.9625   -3.1207    3.0300 C   0  0  0  0  0  0  0  0  0  0  0  0
    2.0701   -1.6642    2.6045 C   0  0  0  0  0  0  0  0  0  0  0  0
    1.0605   -0.8150    2.9060 N   0  0  0  0  0  0  0  0  0  0  0  0
    1.0425    0.4669    2.4832 C   0  0  0  0  0  0  0  0  0  0  0  0
    2.0961    0.9548    1.6889 C   0  0  0  0  0  0  0  0  0  0  0  0
    3.1684    0.1088    1.3520 C   0  0  0  0  0  0  0  0  0  0  0  0
    3.1769   -1.2202    1.8371 C   0  0  0  0  0  0  0  0  0  0  0  0
    4.3052   -2.2244    1.5625 C   0  0  2  0  0  0  0  0  0  0  0  0
    7.0096   -0.5350    0.2358 H   0  0  0  0  0  0  0  0  0  0  0  0
    6.9478   -1.3173    1.7918 H   0  0  0  0  0  0  0  0  0  0  0  0
    5.8963    0.0422    1.4324 H   0  0  0  0  0  0  0  0  0  0  0  0
    2.6245   -2.3071   -0.8772 H   0  0  0  0  0  0  0  0  0  0  0  0
    2.3948   -3.7976   -1.7958 H   0  0  0  0  0  0  0  0  0  0  0  0
    3.2211   -2.4126   -2.5198 H   0  0  0  0  0  0  0  0  0  0  0  0
    4.4050   -4.9570   -2.3191 H   0  0  0  0  0  0  0  0  0  0  0  0
    3.6680   -5.2805   -0.0467 H   0  0  0  0  0  0  0  0  0  0  0  0
    5.2724   -4.7835    0.4783 H   0  0  0  0  0  0  0  0  0  0  0  0
    2.2001   -5.0062    1.8661 H   0  0  0  0  0  0  0  0  0  0  0  0
    0.9100   -3.3895    3.0517 H   0  0  0  0  0  0  0  0  0  0  0  0
    2.3661   -3.2738    4.0287 H   0  0  0  0  0  0  0  0  0  0  0  0
    0.1844    1.0622    2.7546 H   0  0  0  0  0  0  0  0  0  0  0  0
    2.0679    1.9716    1.3278 H   0  0  0  0  0  0  0  0  0  0  0  0
    3.9482    0.4857    0.7051 H   0  0  0  0  0  0  0  0  0  0  0  0
    4.8594   -2.3174    2.4977 H   0  0  0  0  0  0  0  0  0  0  0  0
    0.2685   -1.1597    3.4513 H   0  0  0  0  0  0  0  0  0  0  0  0
  1  2  1  0
  1 19  1  0
  1 20  1  0
  1 21  1  0
  2 18  1  0
  2  3  1  0
  3  4  2  0
  3  5  1  0
  5  6  1  0
  5  7  1  6
  5  8  1  0
  6 22  1  0
  6 23  1  0
  6 24  1  0
  7 25  1  0
  8  9  1  0
  8 26  1  0
  8 27  1  0
  9 18  1  0
  9 10  2  0
 10 11  1  0
 10 28  1  0
 11 12  1  0
 11 29  1  0
 11 30  1  0
 12 17  2  0
 12 13  1  0
 13 14  2  0
 13 35  1  0
 14 15  1  0
 14 31  1  0
 15 16  2  0
 15 32  1  0
 16 17  1  0
 16 33  1  0
 17 18  1  0
 18 34  1  1
M  CHG  1  13   1
M  END
>  <i_m_ct_stereo_status>  (106) 
1

>  <s_m_source_file>  (106) 
/var/tmp/pbs.5076255.sched01/tmpguie9axe/40t6mruo9t.sdf

>  <i_m_source_file_index>  (106) 
3

>  <i_lp_mmshare_version>  (106) 
48012

>  <i_f3d_flags>  (106) 
0

>  <s_epik_input>  (106) 
W0NIM11bQ0BdKFtPSF0pKFtDSDJdMSlDKD1PKU4oW0NIM10pW0NASF0oQzE9MiljM2MoW0NIMl1bQ0hdMiluW2NIXVtjSF1bY0hdMw==

>  <s_epik_cmdline>  (106) 
J2VwaWtfcHl0aG9uJywgJy1waHQnLCAnMi4wJywgJy1waCcsICc3LjAnLCAnLXRuJywgJzgnLCAnLW1hJywgJzIwMCcsICctaW1hZScsICc8aW5maWxlLm1hZT4nLCAnLW9tYWUnLCAnPG91dGZpbGUubWFlPic=

>  <r_epik_Ionization_Penalty>  (106) 
2.27403

>  <r_epik_Ionization_Penalty_Charging>  (106) 
2.27401

>  <r_epik_Ionization_Penalty_Neutral>  (106) 
2.38713e-05

>  <r_epik_State_Penalty>  (106) 
2.42279

>  <r_epik_Charging_Adjusted_Penalty>  (106) 
4.6968

>  <i_epik_Tot_Q>  (106) 
1

>  <i_epik_Tot_abs_Q>  (106) 
1

>  <s_lp_Force_Field>  (106) 
OPLS3e

>  <r_lp_Energy>  (106) 
52.972

>  <b_lp_Chiralities_Consistent>  (106) 
1

>  <s_lp_Variant>  (106) 
29:0-2

>  <s_i_glide_gridfile>  (106) 
pfpi4k_grid

>  <i_i_glide_lignum>  (106) 
3

>  <i_i_glide_rotatable_bonds>  (106) 
1

>  <r_i_docking_score>  (106) 
-4.32208

>  <r_i_glide_ligand_efficiency>  (106) 
-0.240115

>  <r_i_glide_ligand_efficiency_sa>  (106) 
-0.62928

>  <r_i_glide_ligand_efficiency_ln>  (106) 
-1.11097

>  <r_i_glide_gscore>  (106) 
-4.32208

>  <r_i_glide_lipo>  (106) 
-0.117596

>  <r_i_glide_hbond>  (106) 
-0.130172

>  <r_i_glide_metal>  (106) 
-0

>  <r_i_glide_rewards>  (106) 
-1.81787

>  <r_i_glide_evdw>  (106) 
-18.5355

>  <r_i_glide_ecoul>  (106) 
-8.57526

>  <r_i_glide_erotb>  (106) 
0

>  <r_i_glide_esite>  (106) 
-0.043369

>  <r_i_glide_emodel>  (106) 
-34.6927

>  <r_i_glide_energy>  (106) 
-27.1108

>  <r_i_glide_einternal>  (106) 
0.0110523

>  <r_i_glide_intrahb_reward>  (106) 
-0

>  <i_i_glide_confnum>  (106) 
2

>  <i_i_glide_posenum>  (106) 
19

>  <r_i_glide_eff_state_penalty>  (106) 
0

>  <ligand_id>  (106) 
29

>  <original_smiles>  (106) 
CN1C(=O)C(C)(O)CC2=CCc3ncccc3C21

>  <smiles>  (106) 
[H]OC1(C([H])([H])[H])C(=O)N(C([H])([H])[H])C2([H])C(=C([H])C([H])([H])c3c2c([H])c([H])c([H])[n+]3[H])C1([H])[H]

$$$$
29:1:1
     RDKit          3D

 35 37  0  0  1  0  0  0  0  0999 V2000
    5.7595   -0.8596    0.5190 C   0  0  0  0  0  0  0  0  0  0  0  0
    5.0608   -1.9089   -0.2477 N   0  0  0  0  0  0  0  0  0  0  0  0
    4.6133   -1.6828   -1.5133 C   0  0  0  0  0  0  0  0  0  0  0  0
    4.6234   -0.5770   -2.0513 O   0  0  0  0  0  0  0  0  0  0  0  0
    4.1460   -2.8880   -2.3515 C   0  0  1  0  0  0  0  0  0  0  0  0
    2.6365   -3.1074   -2.1357 C   0  0  0  0  0  0  0  0  0  0  0  0
    4.2871   -2.6121   -3.7328 O   0  0  0  0  0  0  0  0  0  0  0  0
    5.0399   -4.0939   -2.0160 C   0  0  0  0  0  0  0  0  0  0  0  0
    4.9155   -4.4202   -0.5400 C   0  0  0  0  0  0  0  0  0  0  0  0
    4.6147   -5.6497   -0.0815 C   0  0  0  0  0  0  0  0  0  0  0  0
    4.2792   -5.9013    1.3710 C   0  0  0  0  0  0  0  0  0  0  0  0
    3.6104   -4.6798    1.9806 C   0  0  0  0  0  0  0  0  0  0  0  0
    2.6851   -4.8607    2.9491 N   0  0  0  0  0  0  0  0  0  0  0  0
    1.9840   -3.8382    3.4861 C   0  0  0  0  0  0  0  0  0  0  0  0
    2.1879   -2.5269    3.0137 C   0  0  0  0  0  0  0  0  0  0  0  0
    3.1408   -2.2932    2.0024 C   0  0  0  0  0  0  0  0  0  0  0  0
    3.8893   -3.3768    1.4914 C   0  0  0  0  0  0  0  0  0  0  0  0
    4.9842   -3.2306    0.4227 C   0  0  2  0  0  0  0  0  0  0  0  0
    5.7424    0.1188    0.0434 H   0  0  0  0  0  0  0  0  0  0  0  0
    6.8058   -1.1217    0.6737 H   0  0  0  0  0  0  0  0  0  0  0  0
    5.3285   -0.7035    1.5047 H   0  0  0  0  0  0  0  0  0  0  0  0
    2.4063   -3.2772   -1.0844 H   0  0  0  0  0  0  0  0  0  0  0  0
    2.2683   -3.9513   -2.7119 H   0  0  0  0  0  0  0  0  0  0  0  0
    2.0603   -2.2379   -2.4577 H   0  0  0  0  0  0  0  0  0  0  0  0
    3.7218   -1.8737   -3.9180 H   0  0  0  0  0  0  0  0  0  0  0  0
    4.7972   -4.9527   -2.6374 H   0  0  0  0  0  0  0  0  0  0  0  0
    6.0828   -3.8418   -2.2278 H   0  0  0  0  0  0  0  0  0  0  0  0
    4.5426   -6.4934   -0.7583 H   0  0  0  0  0  0  0  0  0  0  0  0
    3.5784   -6.7338    1.3963 H   0  0  0  0  0  0  0  0  0  0  0  0
    5.1720   -6.1941    1.9225 H   0  0  0  0  0  0  0  0  0  0  0  0
    1.2680   -4.0980    4.2521 H   0  0  0  0  0  0  0  0  0  0  0  0
    1.6188   -1.7004    3.4125 H   0  0  0  0  0  0  0  0  0  0  0  0
    3.2667   -1.2880    1.6285 H   0  0  0  0  0  0  0  0  0  0  0  0
    5.9339   -3.3624    0.9428 H   0  0  0  0  0  0  0  0  0  0  0  0
    2.5061   -5.8109    3.2831 H   0  0  0  0  0  0  0  0  0  0  0  0
  1  2  1  0
  1 19  1  0
  1 20  1  0
  1 21  1  0
  2 18  1  0
  2  3  1  0
  3  4  2  0
  3  5  1  0
  5  6  1  0
  5  7  1  6
  5  8  1  0
  6 22  1  0
  6 23  1  0
  6 24  1  0
  7 25  1  0
  8  9  1  0
  8 26  1  0
  8 27  1  0
  9 18  1  0
  9 10  2  0
 10 11  1  0
 10 28  1  0
 11 12  1  0
 11 29  1  0
 11 30  1  0
 12 17  2  0
 12 13  1  0
 13 14  2  0
 13 35  1  0
 14 15  1  0
 14 31  1  0
 15 16  2  0
 15 32  1  0
 16 17  1  0
 16 33  1  0
 17 18  1  0
 18 34  1  1
M  CHG  1  13   1
M  END
>  <i_m_ct_stereo_status>  (107) 
1

>  <s_m_source_file>  (107) 
/var/tmp/pbs.5076255.sched01/tmpguie9axe/40t6mruo9t.sdf

>  <i_m_source_file_index>  (107) 
3

>  <i_lp_mmshare_version>  (107) 
48012

>  <i_f3d_flags>  (107) 
0

>  <s_epik_input>  (107) 
W0NIM11bQ0BdKFtPSF0pKFtDSDJdMSlDKD1PKU4oW0NIM10pW0NASF0oQzE9MiljM2MoW0NIMl1bQ0hdMiluW2NIXVtjSF1bY0hdMw==

>  <s_epik_cmdline>  (107) 
J2VwaWtfcHl0aG9uJywgJy1waHQnLCAnMi4wJywgJy1waCcsICc3LjAnLCAnLXRuJywgJzgnLCAnLW1hJywgJzIwMCcsICctaW1hZScsICc8aW5maWxlLm1hZT4nLCAnLW9tYWUnLCAnPG91dGZpbGUubWFlPic=

>  <r_epik_Ionization_Penalty>  (107) 
2.27403

>  <r_epik_Ionization_Penalty_Charging>  (107) 
2.27401

>  <r_epik_Ionization_Penalty_Neutral>  (107) 
2.38713e-05

>  <r_epik_State_Penalty>  (107) 
2.42279

>  <r_epik_Charging_Adjusted_Penalty>  (107) 
4.6968

>  <i_epik_Tot_Q>  (107) 
1

>  <i_epik_Tot_abs_Q>  (107) 
1

>  <s_lp_Force_Field>  (107) 
OPLS3e

>  <r_lp_Energy>  (107) 
52.972

>  <b_lp_Chiralities_Consistent>  (107) 
1

>  <s_lp_Variant>  (107) 
29:0-2

>  <s_i_glide_gridfile>  (107) 
pfpi4k_grid

>  <i_i_glide_lignum>  (107) 
3

>  <i_i_glide_rotatable_bonds>  (107) 
1

>  <r_i_docking_score>  (107) 
-3.76952

>  <r_i_glide_ligand_efficiency>  (107) 
-0.209418

>  <r_i_glide_ligand_efficiency_sa>  (107) 
-0.54883

>  <r_i_glide_ligand_efficiency_ln>  (107) 
-0.968936

>  <r_i_glide_gscore>  (107) 
-3.76952

>  <r_i_glide_lipo>  (107) 
-0.273282

>  <r_i_glide_hbond>  (107) 
0

>  <r_i_glide_metal>  (107) 
-0

>  <r_i_glide_rewards>  (107) 
-1.73661

>  <r_i_glide_evdw>  (107) 
-19.4218

>  <r_i_glide_ecoul>  (107) 
-4.91783

>  <r_i_glide_erotb>  (107) 
0

>  <r_i_glide_esite>  (107) 
-0.050863

>  <r_i_glide_emodel>  (107) 
-29.9821

>  <r_i_glide_energy>  (107) 
-24.3396

>  <r_i_glide_einternal>  (107) 
1.70216

>  <r_i_glide_intrahb_reward>  (107) 
-0

>  <i_i_glide_confnum>  (107) 
2

>  <i_i_glide_posenum>  (107) 
1

>  <r_i_glide_eff_state_penalty>  (107) 
0

>  <ligand_id>  (107) 
29

>  <original_smiles>  (107) 
CN1C(=O)C(C)(O)CC2=CCc3ncccc3C21

>  <smiles>  (107) 
[H]OC1(C([H])([H])[H])C(=O)N(C([H])([H])[H])C2([H])C(=C([H])C([H])([H])c3c2c([H])c([H])c([H])[n+]3[H])C1([H])[H]

$$$$
29:1:2
     RDKit          3D

 35 37  0  0  1  0  0  0  0  0999 V2000
    3.2913   -5.8200    0.7341 C   0  0  0  0  0  0  0  0  0  0  0  0
    3.3446   -4.4189    1.1955 N   0  0  0  0  0  0  0  0  0  0  0  0
    2.6163   -4.0185    2.2640 C   0  0  0  0  0  0  0  0  0  0  0  0
    1.7403   -4.7200    2.7745 O   0  0  0  0  0  0  0  0  0  0  0  0
    2.9434   -2.6433    2.8845 C   0  0  1  0  0  0  0  0  0  0  0  0
    2.0560   -1.5707    2.2270 C   0  0  0  0  0  0  0  0  0  0  0  0
    2.6450   -2.6426    4.2702 O   0  0  0  0  0  0  0  0  0  0  0  0
    4.4537   -2.3574    2.7584 C   0  0  0  0  0  0  0  0  0  0  0  0
    4.8543   -2.3840    1.3022 C   0  0  0  0  0  0  0  0  0  0  0  0
    5.5443   -1.3875    0.7184 C   0  0  0  0  0  0  0  0  0  0  0  0
    5.7358   -1.3408   -0.7821 C   0  0  0  0  0  0  0  0  0  0  0  0
    4.5561   -1.9681   -1.5042 C   0  0  0  0  0  0  0  0  0  0  0  0
    4.1942   -1.4829   -2.7187 N   0  0  0  0  0  0  0  0  0  0  0  0
    3.1082   -1.9379   -3.3839 C   0  0  0  0  0  0  0  0  0  0  0  0
    2.3038   -2.9375   -2.8086 C   0  0  0  0  0  0  0  0  0  0  0  0
    2.6350   -3.4538   -1.5421 C   0  0  0  0  0  0  0  0  0  0  0  0
    3.8037   -2.9994   -0.8881 C   0  0  0  0  0  0  0  0  0  0  0  0
    4.2973   -3.5416    0.4643 C   0  0  2  0  0  0  0  0  0  0  0  0
    2.5429   -6.4284    1.2407 H   0  0  0  0  0  0  0  0  0  0  0  0
    4.2510   -6.3187    0.8748 H   0  0  0  0  0  0  0  0  0  0  0  0
    3.0535   -5.8932   -0.3168 H   0  0  0  0  0  0  0  0  0  0  0  0
    2.1971   -1.5520    1.1467 H   0  0  0  0  0  0  0  0  0  0  0  0
    2.2839   -0.5716    2.6015 H   0  0  0  0  0  0  0  0  0  0  0  0
    0.9977   -1.7682    2.4050 H   0  0  0  0  0  0  0  0  0  0  0  0
    2.8119   -1.7819    4.6228 H   0  0  0  0  0  0  0  0  0  0  0  0
    4.7148   -1.3963    3.2105 H   0  0  0  0  0  0  0  0  0  0  0  0
    5.0252   -3.1284    3.2831 H   0  0  0  0  0  0  0  0  0  0  0  0
    5.9178   -0.5476    1.2907 H   0  0  0  0  0  0  0  0  0  0  0  0
    5.7835   -0.2946   -1.0679 H   0  0  0  0  0  0  0  0  0  0  0  0
    6.6671   -1.8323   -1.0570 H   0  0  0  0  0  0  0  0  0  0  0  0
    2.8882   -1.4722   -4.3315 H   0  0  0  0  0  0  0  0  0  0  0  0
    1.4156   -3.2918   -3.3116 H   0  0  0  0  0  0  0  0  0  0  0  0
    1.9957   -4.2007   -1.1032 H   0  0  0  0  0  0  0  0  0  0  0  0
    5.1662   -4.1629    0.2423 H   0  0  0  0  0  0  0  0  0  0  0  0
    4.7340   -0.7260   -3.1313 H   0  0  0  0  0  0  0  0  0  0  0  0
  1  2  1  0
  1 19  1  0
  1 20  1  0
  1 21  1  0
  2 18  1  0
  2  3  1  0
  3  4  2  0
  3  5  1  0
  5  6  1  0
  5  7  1  1
  5  8  1  0
  6 22  1  0
  6 23  1  0
  6 24  1  0
  7 25  1  0
  8  9  1  0
  8 26  1  0
  8 27  1  0
  9 18  1  0
  9 10  2  0
 10 11  1  0
 10 28  1  0
 11 12  1  0
 11 29  1  0
 11 30  1  0
 12 17  2  0
 12 13  1  0
 13 14  2  0
 13 35  1  0
 14 15  1  0
 14 31  1  0
 15 16  2  0
 15 32  1  0
 16 17  1  0
 16 33  1  0
 17 18  1  0
 18 34  1  6
M  CHG  1  13   1
M  END
>  <i_m_ct_stereo_status>  (108) 
1

>  <s_m_source_file>  (108) 
/var/tmp/pbs.5076255.sched01/tmpguie9axe/40t6mruo9t.sdf

>  <i_m_source_file_index>  (108) 
3

>  <i_lp_mmshare_version>  (108) 
48012

>  <i_f3d_flags>  (108) 
0

>  <s_epik_input>  (108) 
W0NIM11bQ0BdKFtPSF0pKFtDSDJdMSlDKD1PKU4oW0NIM10pW0NASF0oQzE9MiljM2MoW0NIMl1bQ0hdMiluW2NIXVtjSF1bY0hdMw==

>  <s_epik_cmdline>  (108) 
J2VwaWtfcHl0aG9uJywgJy1waHQnLCAnMi4wJywgJy1waCcsICc3LjAnLCAnLXRuJywgJzgnLCAnLW1hJywgJzIwMCcsICctaW1hZScsICc8aW5maWxlLm1hZT4nLCAnLW9tYWUnLCAnPG91dGZpbGUubWFlPic=

>  <r_epik_Ionization_Penalty>  (108) 
2.27403

>  <r_epik_Ionization_Penalty_Charging>  (108) 
2.27401

>  <r_epik_Ionization_Penalty_Neutral>  (108) 
2.38713e-05

>  <r_epik_State_Penalty>  (108) 
2.42279

>  <r_epik_Charging_Adjusted_Penalty>  (108) 
4.6968

>  <i_epik_Tot_Q>  (108) 
1

>  <i_epik_Tot_abs_Q>  (108) 
1

>  <s_lp_Force_Field>  (108) 
OPLS3e

>  <r_lp_Energy>  (108) 
52.972

>  <b_lp_Chiralities_Consistent>  (108) 
1

>  <s_lp_Variant>  (108) 
29:0-2

>  <s_i_glide_gridfile>  (108) 
pfpi4k_grid

>  <i_i_glide_lignum>  (108) 
3

>  <i_i_glide_rotatable_bonds>  (108) 
1

>  <r_i_docking_score>  (108) 
-3.7479

>  <r_i_glide_ligand_efficiency>  (108) 
-0.208217

>  <r_i_glide_ligand_efficiency_sa>  (108) 
-0.545683

>  <r_i_glide_ligand_efficiency_ln>  (108) 
-0.963379

>  <r_i_glide_gscore>  (108) 
-3.7479

>  <r_i_glide_lipo>  (108) 
-0.513464

>  <r_i_glide_hbond>  (108) 
0

>  <r_i_glide_metal>  (108) 
-0

>  <r_i_glide_rewards>  (108) 
-1.73661

>  <r_i_glide_evdw>  (108) 
-18.7873

>  <r_i_glide_ecoul>  (108) 
-3.53192

>  <r_i_glide_erotb>  (108) 
0

>  <r_i_glide_esite>  (108) 
-0.0286749

>  <r_i_glide_emodel>  (108) 
-28.8721

>  <r_i_glide_energy>  (108) 
-22.3192

>  <r_i_glide_einternal>  (108) 
0.000348604

>  <r_i_glide_intrahb_reward>  (108) 
-0

>  <i_i_glide_confnum>  (108) 
1

>  <i_i_glide_posenum>  (108) 
34

>  <r_i_glide_eff_state_penalty>  (108) 
0

>  <ligand_id>  (108) 
29

>  <original_smiles>  (108) 
CN1C(=O)C(C)(O)CC2=CCc3ncccc3C21

>  <smiles>  (108) 
[H]OC1(C([H])([H])[H])C(=O)N(C([H])([H])[H])C2([H])C(=C([H])C([H])([H])c3c2c([H])c([H])c([H])[n+]3[H])C1([H])[H]

$$$$
30:0:0
     RDKit          3D

 29 31  0  0  1  0  0  0  0  0999 V2000
    3.5965   -1.8624   -3.7305 C   0  0  0  0  0  0  0  0  0  0  0  0
    4.0012   -2.8961   -2.6738 C   0  0  2  0  0  0  0  0  0  0  0  0
    2.8236   -3.4425   -2.1274 O   0  0  0  0  0  0  0  0  0  0  0  0
    4.7873   -2.2671   -1.5308 C   0  0  2  0  0  0  0  0  0  0  0  0
    6.1321   -1.8882   -1.9214 O   0  0  0  0  0  0  0  0  0  0  0  0
    6.6916   -2.6892   -0.8598 C   0  0  1  0  0  0  0  0  0  0  0  0
    6.9180   -1.9889    0.4757 C   0  0  0  0  0  0  0  0  0  0  0  0
    5.6290   -2.6337    1.0061 C   0  0  1  0  0  0  0  0  0  0  0  0
    4.6130   -1.7960    1.7538 C   0  0  0  0  0  0  0  0  0  0  0  0
    3.9002   -2.3102    2.8638 C   0  0  0  0  0  0  0  0  0  0  0  0
    2.9444   -1.5953    3.5007 N   0  0  0  0  0  0  0  0  0  0  0  0
    2.6976   -0.3609    3.0036 C   0  0  0  0  0  0  0  0  0  0  0  0
    3.3878    0.1483    1.8809 C   0  0  0  0  0  0  0  0  0  0  0  0
    4.3583   -0.5577    1.2632 N   0  0  0  0  0  0  0  0  0  0  0  0
    5.3123   -3.1423   -0.4068 C   0  0  1  0  0  0  0  0  0  0  0  0
    4.4768   -1.4025   -4.1809 H   0  0  0  0  0  0  0  0  0  0  0  0
    2.9871   -1.0641   -3.3034 H   0  0  0  0  0  0  0  0  0  0  0  0
    3.0141   -2.3338   -4.5226 H   0  0  0  0  0  0  0  0  0  0  0  0
    4.5633   -3.7056   -3.1357 H   0  0  0  0  0  0  0  0  0  0  0  0
    2.7960   -4.3824   -2.3234 H   0  0  0  0  0  0  0  0  0  0  0  0
    4.2658   -1.4095   -1.1289 H   0  0  0  0  0  0  0  0  0  0  0  0
    7.3634   -3.4892   -1.1702 H   0  0  0  0  0  0  0  0  0  0  0  0
    7.8230   -2.3200    0.9774 H   0  0  0  0  0  0  0  0  0  0  0  0
    6.8587   -0.9052    0.3740 H   0  0  0  0  0  0  0  0  0  0  0  0
    5.8890   -3.4900    1.6332 H   0  0  0  0  0  0  0  0  0  0  0  0
    4.0835   -3.3114    3.2301 H   0  0  0  0  0  0  0  0  0  0  0  0
    1.9542    0.2351    3.5115 H   0  0  0  0  0  0  0  0  0  0  0  0
    3.1764    1.1333    1.4864 H   0  0  0  0  0  0  0  0  0  0  0  0
    5.1739   -4.2141   -0.5263 H   0  0  0  0  0  0  0  0  0  0  0  0
  1  2  1  0
  1 16  1  0
  1 17  1  0
  1 18  1  0
  2  3  1  0
  2  4  1  0
  2 19  1  6
  3 20  1  0
  4 15  1  0
  4  5  1  0
  4 21  1  1
  5  6  1  0
  6 15  1  0
  6  7  1  0
  6 22  1  6
  7  8  1  0
  7 23  1  0
  7 24  1  0
  8  9  1  0
  8 15  1  0
  8 25  1  1
  9 14  1  0
  9 10  2  0
 10 11  1  0
 10 26  1  0
 11 12  2  0
 12 13  1  0
 12 27  1  0
 13 14  2  0
 13 28  1  0
 15 29  1  1
M  END
>  <i_m_ct_stereo_status>  (109) 
1

>  <s_m_source_file>  (109) 
/var/tmp/pbs.5076255.sched01/tmpguie9axe/40t6mruo9t.sdf

>  <i_m_source_file_index>  (109) 
4

>  <i_lp_mmshare_version>  (109) 
48012

>  <i_f3d_flags>  (109) 
0

>  <s_epik_input>  (109) 
W0NIM11bQ0BIXShbT0hdKVtDQEhdKE8xKVtDQEBIXShbQ0BASF0xMilbQ0BASF0oW0NIMl0yKWMzW2NIXW5bY0hdW2NIXW4z

>  <s_epik_cmdline>  (109) 
J2VwaWtfcHl0aG9uJywgJy1waHQnLCAnMi4wJywgJy1waCcsICc3LjAnLCAnLXRuJywgJzgnLCAnLW1hJywgJzIwMCcsICctaW1hZScsICc8aW5maWxlLm1hZT4nLCAnLW9tYWUnLCAnPG91dGZpbGUubWFlPic=

>  <r_lp_tautomer_probability>  (109) 
1

>  <r_epik_Ionization_Penalty>  (109) 
2.23322e-06

>  <r_epik_Ionization_Penalty_Charging>  (109) 
0

>  <r_epik_Ionization_Penalty_Neutral>  (109) 
2.23322e-06

>  <r_epik_State_Penalty>  (109) 
-0

>  <r_epik_Charging_Adjusted_Penalty>  (109) 
0

>  <i_epik_Tot_Q>  (109) 
0

>  <i_epik_Tot_abs_Q>  (109) 
0

>  <s_lp_Force_Field>  (109) 
OPLS3e

>  <r_lp_Energy>  (109) 
30.5904

>  <b_lp_Chiralities_Consistent>  (109) 
1

>  <s_lp_Variant>  (109) 
30:0-1

>  <s_i_glide_gridfile>  (109) 
pfpi4k_grid

>  <i_i_glide_lignum>  (109) 
4

>  <i_i_glide_rotatable_bonds>  (109) 
3

>  <r_i_docking_score>  (109) 
-3.80605

>  <r_i_glide_ligand_efficiency>  (109) 
-0.253737

>  <r_i_glide_ligand_efficiency_sa>  (109) 
-0.625769

>  <r_i_glide_ligand_efficiency_ln>  (109) 
-1.02643

>  <r_i_glide_gscore>  (109) 
-3.80605

>  <r_i_glide_lipo>  (109) 
-0.38252

>  <r_i_glide_hbond>  (109) 
-0.436253

>  <r_i_glide_metal>  (109) 
-0

>  <r_i_glide_rewards>  (109) 
-2.0029

>  <r_i_glide_evdw>  (109) 
-20.3391

>  <r_i_glide_ecoul>  (109) 
-4.95493

>  <r_i_glide_erotb>  (109) 
0.775814

>  <r_i_glide_esite>  (109) 
0

>  <r_i_glide_emodel>  (109) 
-31.4

>  <r_i_glide_energy>  (109) 
-25.294

>  <r_i_glide_einternal>  (109) 
1.59923

>  <r_i_glide_intrahb_reward>  (109) 
-0

>  <i_i_glide_confnum>  (109) 
5

>  <i_i_glide_posenum>  (109) 
37

>  <r_i_glide_eff_state_penalty>  (109) 
0

>  <ligand_id>  (109) 
30

>  <original_smiles>  (109) 
CC(O)C1OC2CC(c3cnccn3)C21

>  <smiles>  (109) 
[H]OC([H])(C([H])([H])[H])C1([H])OC2([H])C([H])([H])C([H])(c3nc([H])c([H])nc3[H])C21[H]

$$$$
30:0:1
     RDKit          3D

 29 31  0  0  1  0  0  0  0  0999 V2000
    2.6370   -2.5932   -3.2234 C   0  0  0  0  0  0  0  0  0  0  0  0
    4.1727   -2.5617   -3.2875 C   0  0  2  0  0  0  0  0  0  0  0  0
    4.5556   -3.7775   -3.8966 O   0  0  0  0  0  0  0  0  0  0  0  0
    4.7850   -2.4023   -1.8886 C   0  0  2  0  0  0  0  0  0  0  0  0
    6.1407   -1.8734   -1.9217 O   0  0  0  0  0  0  0  0  0  0  0  0
    6.6137   -3.0047   -1.1383 C   0  0  1  0  0  0  0  0  0  0  0  0
    6.6314   -2.8111    0.3812 C   0  0  0  0  0  0  0  0  0  0  0  0
    5.3144   -3.6024    0.4743 C   0  0  1  0  0  0  0  0  0  0  0  0
    4.1614   -3.0807    1.3031 C   0  0  0  0  0  0  0  0  0  0  0  0
    3.3184   -3.9645    2.0287 C   0  0  0  0  0  0  0  0  0  0  0  0
    2.2506   -3.5119    2.7270 N   0  0  0  0  0  0  0  0  0  0  0  0
    2.0289   -2.1786    2.6940 C   0  0  0  0  0  0  0  0  0  0  0  0
    2.8559   -1.2985    1.9458 C   0  0  0  0  0  0  0  0  0  0  0  0
    3.9247   -1.7531    1.2583 N   0  0  0  0  0  0  0  0  0  0  0  0
    5.2199   -3.6116   -1.0592 C   0  0  1  0  0  0  0  0  0  0  0  0
    2.2386   -1.6603   -2.8176 H   0  0  0  0  0  0  0  0  0  0  0  0
    2.2685   -3.4013   -2.5857 H   0  0  0  0  0  0  0  0  0  0  0  0
    2.2017   -2.7328   -4.2176 H   0  0  0  0  0  0  0  0  0  0  0  0
    4.4787   -1.7326   -3.9287 H   0  0  0  0  0  0  0  0  0  0  0  0
    4.2689   -4.4858   -3.3326 H   0  0  0  0  0  0  0  0  0  0  0  0
    4.1837   -1.7219   -1.3024 H   0  0  0  0  0  0  0  0  0  0  0  0
    7.3666   -3.6279   -1.6132 H   0  0  0  0  0  0  0  0  0  0  0  0
    7.4754   -3.2905    0.8832 H   0  0  0  0  0  0  0  0  0  0  0  0
    6.5364   -1.7576    0.6477 H   0  0  0  0  0  0  0  0  0  0  0  0
    5.5306   -4.6223    0.7967 H   0  0  0  0  0  0  0  0  0  0  0  0
    3.4856   -5.0275    2.0234 H   0  0  0  0  0  0  0  0  0  0  0  0
    1.1965   -1.7999    3.2631 H   0  0  0  0  0  0  0  0  0  0  0  0
    2.6624   -0.2372    1.9107 H   0  0  0  0  0  0  0  0  0  0  0  0
    5.1548   -4.5988   -1.5064 H   0  0  0  0  0  0  0  0  0  0  0  0
  1  2  1  0
  1 16  1  0
  1 17  1  0
  1 18  1  0
  2  3  1  0
  2  4  1  0
  2 19  1  6
  3 20  1  0
  4 15  1  0
  4  5  1  0
  4 21  1  1
  5  6  1  0
  6 15  1  0
  6  7  1  0
  6 22  1  6
  7  8  1  0
  7 23  1  0
  7 24  1  0
  8  9  1  0
  8 15  1  0
  8 25  1  1
  9 14  1  0
  9 10  2  0
 10 11  1  0
 10 26  1  0
 11 12  2  0
 12 13  1  0
 12 27  1  0
 13 14  2  0
 13 28  1  0
 15 29  1  6
M  END
>  <i_m_ct_stereo_status>  (110) 
1

>  <s_m_source_file>  (110) 
/var/tmp/pbs.5076255.sched01/tmpguie9axe/40t6mruo9t.sdf

>  <i_m_source_file_index>  (110) 
4

>  <i_lp_mmshare_version>  (110) 
48012

>  <i_f3d_flags>  (110) 
0

>  <s_epik_input>  (110) 
W0NIM11bQ0BIXShbT0hdKVtDQEhdKE8xKVtDQEBIXShbQ0BASF0xMilbQ0BASF0oW0NIMl0yKWMzW2NIXW5bY0hdW2NIXW4z

>  <s_epik_cmdline>  (110) 
J2VwaWtfcHl0aG9uJywgJy1waHQnLCAnMi4wJywgJy1waCcsICc3LjAnLCAnLXRuJywgJzgnLCAnLW1hJywgJzIwMCcsICctaW1hZScsICc8aW5maWxlLm1hZT4nLCAnLW9tYWUnLCAnPG91dGZpbGUubWFlPic=

>  <r_lp_tautomer_probability>  (110) 
1

>  <r_epik_Ionization_Penalty>  (110) 
2.23322e-06

>  <r_epik_Ionization_Penalty_Charging>  (110) 
0

>  <r_epik_Ionization_Penalty_Neutral>  (110) 
2.23322e-06

>  <r_epik_State_Penalty>  (110) 
-0

>  <r_epik_Charging_Adjusted_Penalty>  (110) 
0

>  <i_epik_Tot_Q>  (110) 
0

>  <i_epik_Tot_abs_Q>  (110) 
0

>  <s_lp_Force_Field>  (110) 
OPLS3e

>  <r_lp_Energy>  (110) 
30.5904

>  <b_lp_Chiralities_Consistent>  (110) 
1

>  <s_lp_Variant>  (110) 
30:0-1

>  <s_i_glide_gridfile>  (110) 
pfpi4k_grid

>  <i_i_glide_lignum>  (110) 
4

>  <i_i_glide_rotatable_bonds>  (110) 
3

>  <r_i_docking_score>  (110) 
-3.75971

>  <r_i_glide_ligand_efficiency>  (110) 
-0.250648

>  <r_i_glide_ligand_efficiency_sa>  (110) 
-0.61815

>  <r_i_glide_ligand_efficiency_ln>  (110) 
-1.01393

>  <r_i_glide_gscore>  (110) 
-3.75971

>  <r_i_glide_lipo>  (110) 
-0.514313

>  <r_i_glide_hbond>  (110) 
-0.12085

>  <r_i_glide_metal>  (110) 
-0

>  <r_i_glide_rewards>  (110) 
-2.0029

>  <r_i_glide_evdw>  (110) 
-21.5331

>  <r_i_glide_ecoul>  (110) 
-5.47205

>  <r_i_glide_erotb>  (110) 
0.775814

>  <r_i_glide_esite>  (110) 
0

>  <r_i_glide_emodel>  (110) 
-31.0891

>  <r_i_glide_energy>  (110) 
-27.0052

>  <r_i_glide_einternal>  (110) 
5.51737

>  <r_i_glide_intrahb_reward>  (110) 
-0

>  <i_i_glide_confnum>  (110) 
5

>  <i_i_glide_posenum>  (110) 
22

>  <r_i_glide_eff_state_penalty>  (110) 
0

>  <ligand_id>  (110) 
30

>  <original_smiles>  (110) 
CC(O)C1OC2CC(c3cnccn3)C21

>  <smiles>  (110) 
[H]OC([H])(C([H])([H])[H])C1([H])OC2([H])C([H])([H])C([H])(c3nc([H])c([H])nc3[H])C21[H]

$$$$
30:0:2
     RDKit          3D

 29 31  0  0  1  0  0  0  0  0999 V2000
    3.4218   -0.7573   -3.5275 C   0  0  0  0  0  0  0  0  0  0  0  0
    3.9018   -2.1990   -3.3273 C   0  0  2  0  0  0  0  0  0  0  0  0
    2.7713   -3.0448   -3.3791 O   0  0  0  0  0  0  0  0  0  0  0  0
    4.5825   -2.3965   -1.9770 C   0  0  2  0  0  0  0  0  0  0  0  0
    5.8880   -1.7574   -1.9144 O   0  0  0  0  0  0  0  0  0  0  0  0
    6.5163   -3.0252   -1.5866 C   0  0  1  0  0  0  0  0  0  0  0  0
    6.6419   -3.3505   -0.0991 C   0  0  0  0  0  0  0  0  0  0  0  0
    5.4079   -4.2642   -0.2229 C   0  0  1  0  0  0  0  0  0  0  0  0
    4.2870   -4.1701    0.7903 C   0  0  0  0  0  0  0  0  0  0  0  0
    3.5028   -5.3088    1.1268 C   0  0  0  0  0  0  0  0  0  0  0  0
    2.4598   -5.2243    1.9861 N   0  0  0  0  0  0  0  0  0  0  0  0
    2.2159   -4.0057    2.5112 C   0  0  0  0  0  0  0  0  0  0  0  0
    2.9721   -2.8605    2.1502 C   0  0  0  0  0  0  0  0  0  0  0  0
    4.0048   -2.9468    1.2877 N   0  0  0  0  0  0  0  0  0  0  0  0
    5.1855   -3.7512   -1.6500 C   0  0  1  0  0  0  0  0  0  0  0  0
    4.2557   -0.0562   -3.5018 H   0  0  0  0  0  0  0  0  0  0  0  0
    2.7218   -0.4575   -2.7467 H   0  0  0  0  0  0  0  0  0  0  0  0
    2.9141   -0.6410   -4.4854 H   0  0  0  0  0  0  0  0  0  0  0  0
    4.5657   -2.4838   -4.1421 H   0  0  0  0  0  0  0  0  0  0  0  0
    3.0037   -3.9268   -3.1207 H   0  0  0  0  0  0  0  0  0  0  0  0
    3.9611   -2.0512   -1.1587 H   0  0  0  0  0  0  0  0  0  0  0  0
    7.2679   -3.3883   -2.2878 H   0  0  0  0  0  0  0  0  0  0  0  0
    7.5604   -3.8708    0.1735 H   0  0  0  0  0  0  0  0  0  0  0  0
    6.4779   -2.4540    0.4989 H   0  0  0  0  0  0  0  0  0  0  0  0
    5.7364   -5.3048   -0.2716 H   0  0  0  0  0  0  0  0  0  0  0  0
    3.7037   -6.2721    0.6892 H   0  0  0  0  0  0  0  0  0  0  0  0
    1.4031   -3.9260    3.2191 H   0  0  0  0  0  0  0  0  0  0  0  0
    2.7518   -1.8872    2.5598 H   0  0  0  0  0  0  0  0  0  0  0  0
    5.1495   -4.5000   -2.4346 H   0  0  0  0  0  0  0  0  0  0  0  0
  1  2  1  0
  1 16  1  0
  1 17  1  0
  1 18  1  0
  2  3  1  0
  2  4  1  0
  2 19  1  6
  3 20  1  0
  4 15  1  0
  4  5  1  0
  4 21  1  1
  5  6  1  0
  6 15  1  0
  6  7  1  0
  6 22  1  6
  7  8  1  0
  7 23  1  0
  7 24  1  0
  8  9  1  0
  8 15  1  0
  8 25  1  6
  9 14  1  0
  9 10  2  0
 10 11  1  0
 10 26  1  0
 11 12  2  0
 12 13  1  0
 12 27  1  0
 13 14  2  0
 13 28  1  0
 15 29  1  6
M  END
>  <i_m_ct_stereo_status>  (111) 
1

>  <s_m_source_file>  (111) 
/var/tmp/pbs.5076255.sched01/tmpguie9axe/40t6mruo9t.sdf

>  <i_m_source_file_index>  (111) 
4

>  <i_lp_mmshare_version>  (111) 
48012

>  <i_f3d_flags>  (111) 
0

>  <s_epik_input>  (111) 
W0NIM11bQ0BIXShbT0hdKVtDQEhdKE8xKVtDQEBIXShbQ0BASF0xMilbQ0BASF0oW0NIMl0yKWMzW2NIXW5bY0hdW2NIXW4z

>  <s_epik_cmdline>  (111) 
J2VwaWtfcHl0aG9uJywgJy1waHQnLCAnMi4wJywgJy1waCcsICc3LjAnLCAnLXRuJywgJzgnLCAnLW1hJywgJzIwMCcsICctaW1hZScsICc8aW5maWxlLm1hZT4nLCAnLW9tYWUnLCAnPG91dGZpbGUubWFlPic=

>  <r_lp_tautomer_probability>  (111) 
1

>  <r_epik_Ionization_Penalty>  (111) 
2.23322e-06

>  <r_epik_Ionization_Penalty_Charging>  (111) 
0

>  <r_epik_Ionization_Penalty_Neutral>  (111) 
2.23322e-06

>  <r_epik_State_Penalty>  (111) 
-0

>  <r_epik_Charging_Adjusted_Penalty>  (111) 
0

>  <i_epik_Tot_Q>  (111) 
0

>  <i_epik_Tot_abs_Q>  (111) 
0

>  <s_lp_Force_Field>  (111) 
OPLS3e

>  <r_lp_Energy>  (111) 
30.5904

>  <b_lp_Chiralities_Consistent>  (111) 
1

>  <s_lp_Variant>  (111) 
30:0-1

>  <s_i_glide_gridfile>  (111) 
pfpi4k_grid

>  <i_i_glide_lignum>  (111) 
4

>  <i_i_glide_rotatable_bonds>  (111) 
3

>  <r_i_docking_score>  (111) 
-3.73736

>  <r_i_glide_ligand_efficiency>  (111) 
-0.249157

>  <r_i_glide_ligand_efficiency_sa>  (111) 
-0.614475

>  <r_i_glide_ligand_efficiency_ln>  (111) 
-1.0079

>  <r_i_glide_gscore>  (111) 
-3.73736

>  <r_i_glide_lipo>  (111) 
-0.639963

>  <r_i_glide_hbond>  (111) 
-0.23497

>  <r_i_glide_metal>  (111) 
-0

>  <r_i_glide_rewards>  (111) 
-2.0029

>  <r_i_glide_evdw>  (111) 
-22.4283

>  <r_i_glide_ecoul>  (111) 
-3.42618

>  <r_i_glide_erotb>  (111) 
0.775814

>  <r_i_glide_esite>  (111) 
0

>  <r_i_glide_emodel>  (111) 
-32.2666

>  <r_i_glide_energy>  (111) 
-25.8544

>  <r_i_glide_einternal>  (111) 
0.734679

>  <r_i_glide_intrahb_reward>  (111) 
-0

>  <i_i_glide_confnum>  (111) 
5

>  <i_i_glide_posenum>  (111) 
15

>  <r_i_glide_eff_state_penalty>  (111) 
0

>  <ligand_id>  (111) 
30

>  <original_smiles>  (111) 
CC(O)C1OC2CC(c3cnccn3)C21

>  <smiles>  (111) 
[H]OC([H])(C([H])([H])[H])C1([H])OC2([H])C([H])([H])C([H])(c3nc([H])c([H])nc3[H])C21[H]

$$$$
31:0:0
     RDKit          3D

 41 45  0  0  1  0  0  0  0  0999 V2000
    8.5907   -2.7930   -1.5165 C   0  0  0  0  0  0  0  0  0  0  0  0
    7.7447   -1.8934   -0.7448 O   0  0  0  0  0  0  0  0  0  0  0  0
    7.0421   -2.4576    0.3120 C   0  0  1  0  0  0  0  0  0  0  0  0
    6.4749   -1.4606    1.1473 O   0  0  0  0  0  0  0  0  0  0  0  0
    5.0323   -1.4064    1.0192 C   0  0  0  0  0  0  0  0  0  0  0  0
    4.7368   -2.8691    0.7603 C   0  0  1  0  0  0  0  0  0  0  0  0
    3.4505   -3.5402    0.2118 C   0  0  2  0  0  0  0  0  0  0  0  0
    3.6874   -5.1121    0.1854 C   0  0  0  0  0  0  0  0  0  0  0  0
    5.1302   -5.6307    0.3379 C   0  0  0  0  0  0  0  0  0  0  0  0
    5.5615   -6.8570    0.8998 C   0  0  0  0  0  0  0  0  0  0  0  0
    6.9024   -6.9846    1.3495 C   0  0  0  0  0  0  0  0  0  0  0  0
    7.7839   -5.8649    1.3602 C   0  0  0  0  0  0  0  0  0  0  0  0
    9.0279   -5.9435    1.9180 O   0  0  0  0  0  0  0  0  0  0  0  0
    7.3385   -4.6350    0.8352 C   0  0  0  0  0  0  0  0  0  0  0  0
    6.0961   -4.6394    0.2140 C   0  0  0  0  0  0  0  0  0  0  0  0
    5.8314   -3.2363   -0.1895 C   0  0  2  0  0  0  0  0  0  0  0  0
    5.4757   -2.9029   -1.6907 C   0  0  0  0  0  0  0  0  0  0  0  0
    4.1248   -3.3521   -2.1457 C   0  0  0  0  0  0  0  0  0  0  0  0
    3.1055   -3.0381   -1.1442 N   0  0  1  0  0  0  0  0  0  0  0  0
    1.7659   -3.4153   -1.6185 C   0  0  0  0  0  0  0  0  0  0  0  0
    7.8500   -3.3825    0.9748 O   0  0  0  0  0  0  0  0  0  0  0  0
    8.9923   -2.1693   -2.2967 H   0  0  0  0  0  0  0  0  0  0  0  0
    8.0757   -3.5959   -2.0454 H   0  0  0  0  0  0  0  0  0  0  0  0
    9.3671   -3.2872   -0.9378 H   0  0  0  0  0  0  0  0  0  0  0  0
    4.5857   -1.0490    1.9475 H   0  0  0  0  0  0  0  0  0  0  0  0
    4.7314   -0.7504    0.2051 H   0  0  0  0  0  0  0  0  0  0  0  0
    4.9104   -3.3068    1.7484 H   0  0  0  0  0  0  0  0  0  0  0  0
    2.6187   -3.3096    0.8802 H   0  0  0  0  0  0  0  0  0  0  0  0
    3.1292   -5.5451    1.0102 H   0  0  0  0  0  0  0  0  0  0  0  0
    3.2738   -5.5627   -0.7032 H   0  0  0  0  0  0  0  0  0  0  0  0
    4.8590   -7.6638    1.0362 H   0  0  0  0  0  0  0  0  0  0  0  0
    7.2266   -7.9056    1.7871 H   0  0  0  0  0  0  0  0  0  0  0  0
    9.4694   -6.7877    1.8455 H   0  0  0  0  0  0  0  0  0  0  0  0
    5.5517   -1.8280   -1.8624 H   0  0  0  0  0  0  0  0  0  0  0  0
    6.0902   -3.4062   -2.4384 H   0  0  0  0  0  0  0  0  0  0  0  0
    3.8833   -2.8973   -3.1076 H   0  0  0  0  0  0  0  0  0  0  0  0
    4.2227   -4.4177   -2.3428 H   0  0  0  0  0  0  0  0  0  0  0  0
    1.6257   -4.4917   -1.7611 H   0  0  0  0  0  0  0  0  0  0  0  0
    1.5163   -2.9123   -2.5564 H   0  0  0  0  0  0  0  0  0  0  0  0
    1.0315   -3.0819   -0.8888 H   0  0  0  0  0  0  0  0  0  0  0  0
    3.0723   -2.0222   -1.0771 H   0  0  0  0  0  0  0  0  0  0  0  0
  1  2  1  0
  1 22  1  0
  1 23  1  0
  1 24  1  0
  3  2  1  6
  3 16  1  0
  3 21  1  0
  3  4  1  0
  4  5  1  0
  5  6  1  0
  5 25  1  0
  5 26  1  0
  6 16  1  0
  6  7  1  0
  6 27  1  1
  7 19  1  0
  7  8  1  0
  7 28  1  1
  8  9  1  0
  8 29  1  0
  8 30  1  0
  9 15  2  0
  9 10  1  0
 10 11  2  0
 10 31  1  0
 11 12  1  0
 11 32  1  0
 12 13  1  0
 12 14  2  0
 13 33  1  0
 14 15  1  0
 14 21  1  0
 15 16  1  0
 16 17  1  6
 17 18  1  0
 17 34  1  0
 17 35  1  0
 18 19  1  0
 18 36  1  0
 18 37  1  0
 19 20  1  0
 19 41  1  1
 20 38  1  0
 20 39  1  0
 20 40  1  0
M  CHG  1  19   1
M  END
>  <i_m_ct_stereo_status>  (112) 
1

>  <s_m_source_file>  (112) 
/var/tmp/pbs.5076255.sched01/tmpguie9axe/40t6mruo9t.sdf

>  <i_m_source_file_index>  (112) 
5

>  <i_lp_mmshare_version>  (112) 
48012

>  <i_f3d_flags>  (112) 
0

>  <s_epik_input>  (112) 
W0NIM11PW0NAXTEoW0NAXTIzNClPW0NIMl1bQ0BIXTJbQ0BASF0oTihbQ0gzXSlbQ0gyXVtDSDJdNClbQ0gyXWM1YzNjKE8xKWMoW09IXSlbY0hdW2NIXTU=

>  <s_epik_cmdline>  (112) 
J2VwaWtfcHl0aG9uJywgJy1waHQnLCAnMi4wJywgJy1waCcsICc3LjAnLCAnLXRuJywgJzgnLCAnLW1hJywgJzIwMCcsICctaW1hZScsICc8aW5maWxlLm1hZT4nLCAnLW9tYWUnLCAnPG91dGZpbGUubWFlPic=

>  <r_lp_tautomer_probability>  (112) 
1

>  <r_epik_Ionization_Penalty>  (112) 
0.181502

>  <r_epik_Ionization_Penalty_Charging>  (112) 
0.173432

>  <r_epik_Ionization_Penalty_Neutral>  (112) 
0.00806961

>  <r_epik_State_Penalty>  (112) 
0.222833

>  <r_epik_Charging_Adjusted_Penalty>  (112) 
0.396265

>  <i_epik_Tot_Q>  (112) 
1

>  <i_epik_Tot_abs_Q>  (112) 
1

>  <s_lp_Force_Field>  (112) 
OPLS3e

>  <r_lp_Energy>  (112) 
53.2282

>  <b_lp_Chiralities_Consistent>  (112) 
1

>  <s_lp_Variant>  (112) 
31:0-1

>  <s_i_glide_gridfile>  (112) 
pfpi4k_grid

>  <i_i_glide_lignum>  (112) 
5

>  <i_i_glide_rotatable_bonds>  (112) 
2

>  <r_i_docking_score>  (112) 
-4.59992

>  <r_i_glide_ligand_efficiency>  (112) 
-0.219044

>  <r_i_glide_ligand_efficiency_sa>  (112) 
-0.604325

>  <r_i_glide_ligand_efficiency_ln>  (112) 
-1.13732

>  <r_i_glide_gscore>  (112) 
-4.59992

>  <r_i_glide_lipo>  (112) 
-0.705783

>  <r_i_glide_hbond>  (112) 
-0.16

>  <r_i_glide_metal>  (112) 
-0

>  <r_i_glide_rewards>  (112) 
-1.57742

>  <r_i_glide_evdw>  (112) 
-11.9425

>  <r_i_glide_ecoul>  (112) 
-10.3851

>  <r_i_glide_erotb>  (112) 
0

>  <r_i_glide_esite>  (112) 
-0.00181926

>  <r_i_glide_emodel>  (112) 
-24.0852

>  <r_i_glide_energy>  (112) 
-22.3276

>  <r_i_glide_einternal>  (112) 
8.28702

>  <r_i_glide_intrahb_reward>  (112) 
-0

>  <i_i_glide_confnum>  (112) 
1

>  <i_i_glide_posenum>  (112) 
22

>  <r_i_glide_eff_state_penalty>  (112) 
0

>  <ligand_id>  (112) 
31

>  <original_smiles>  (112) 
COC12OCC3C4Cc5ccc(O)c(c5C31CCN4C)O2

>  <smiles>  (112) 
[H]Oc1c([H])c([H])c2c3c1OC1(OC([H])([H])[H])OC([H])([H])C4([H])C31C([H])([H])C([H])([H])[N+]([H])(C([H])([H])[H])C4([H])C2([H])[H]

$$$$
31:0:1
     RDKit          3D

 41 45  0  0  1  0  0  0  0  0999 V2000
    9.2936   -2.9092    0.4608 C   0  0  0  0  0  0  0  0  0  0  0  0
    8.0970   -3.0418   -0.2943 O   0  0  0  0  0  0  0  0  0  0  0  0
    6.9420   -2.9218    0.4759 C   0  0  1  0  0  0  0  0  0  0  0  0
    6.8354   -1.6354    1.0572 O   0  0  0  0  0  0  0  0  0  0  0  0
    5.8228   -0.8302    0.4173 C   0  0  0  0  0  0  0  0  0  0  0  0
    4.8112   -1.9036    0.0784 C   0  0  1  0  0  0  0  0  0  0  0  0
    3.5933   -1.8455   -0.8752 C   0  0  2  0  0  0  0  0  0  0  0  0
    2.8286   -3.2294   -0.8182 C   0  0  0  0  0  0  0  0  0  0  0  0
    3.5712   -4.4171   -0.1587 C   0  0  0  0  0  0  0  0  0  0  0  0
    3.0135   -5.5242    0.5093 C   0  0  0  0  0  0  0  0  0  0  0  0
    3.8186   -6.2761    1.4049 C   0  0  0  0  0  0  0  0  0  0  0  0
    5.1410   -5.8667    1.7204 C   0  0  0  0  0  0  0  0  0  0  0  0
    5.8389   -6.5044    2.7018 O   0  0  0  0  0  0  0  0  0  0  0  0
    5.7143   -4.7659    1.0521 C   0  0  0  0  0  0  0  0  0  0  0  0
    4.9415   -4.1980    0.0594 C   0  0  0  0  0  0  0  0  0  0  0  0
    5.6818   -3.0125   -0.4159 C   0  0  2  0  0  0  0  0  0  0  0  0
    6.0333   -2.9334   -1.9377 C   0  0  0  0  0  0  0  0  0  0  0  0
    4.8421   -2.6160   -2.8497 C   0  0  0  0  0  0  0  0  0  0  0  0
    4.0100   -1.5308   -2.2705 N   0  0  1  0  0  0  0  0  0  0  0  0
    2.8851   -1.1434   -3.1567 C   0  0  0  0  0  0  0  0  0  0  0  0
    6.8262   -4.0206    1.3645 O   0  0  0  0  0  0  0  0  0  0  0  0
   10.1511   -3.0558   -0.1882 H   0  0  0  0  0  0  0  0  0  0  0  0
    9.3756   -3.6369    1.2714 H   0  0  0  0  0  0  0  0  0  0  0  0
    9.3781   -1.9078    0.8788 H   0  0  0  0  0  0  0  0  0  0  0  0
    5.4331   -0.0911    1.1203 H   0  0  0  0  0  0  0  0  0  0  0  0
    6.2140   -0.3207   -0.4620 H   0  0  0  0  0  0  0  0  0  0  0  0
    4.3986   -2.1402    1.0615 H   0  0  0  0  0  0  0  0  0  0  0  0
    2.9623   -1.0335   -0.5272 H   0  0  0  0  0  0  0  0  0  0  0  0
    1.9302   -3.0735   -0.2268 H   0  0  0  0  0  0  0  0  0  0  0  0
    2.4572   -3.5605   -1.7913 H   0  0  0  0  0  0  0  0  0  0  0  0
    1.9634   -5.7550    0.4010 H   0  0  0  0  0  0  0  0  0  0  0  0
    3.3726   -7.1045    1.9312 H   0  0  0  0  0  0  0  0  0  0  0  0
    5.3710   -7.2303    3.0835 H   0  0  0  0  0  0  0  0  0  0  0  0
    6.7642   -2.1397   -2.0900 H   0  0  0  0  0  0  0  0  0  0  0  0
    6.5153   -3.8513   -2.2707 H   0  0  0  0  0  0  0  0  0  0  0  0
    5.1994   -2.2939   -3.8250 H   0  0  0  0  0  0  0  0  0  0  0  0
    4.2625   -3.5203   -3.0301 H   0  0  0  0  0  0  0  0  0  0  0  0
    2.2100   -1.9799   -3.3370 H   0  0  0  0  0  0  0  0  0  0  0  0
    3.2540   -0.8070   -4.1267 H   0  0  0  0  0  0  0  0  0  0  0  0
    2.3165   -0.3247   -2.7143 H   0  0  0  0  0  0  0  0  0  0  0  0
    4.5851   -0.6998   -2.2038 H   0  0  0  0  0  0  0  0  0  0  0  0
  1  2  1  0
  1 22  1  0
  1 23  1  0
  1 24  1  0
  3  2  1  6
  3 16  1  0
  3 21  1  0
  3  4  1  0
  4  5  1  0
  5  6  1  0
  5 25  1  0
  5 26  1  0
  6 16  1  0
  6  7  1  0
  6 27  1  1
  7 19  1  0
  7  8  1  0
  7 28  1  1
  8  9  1  0
  8 29  1  0
  8 30  1  0
  9 15  2  0
  9 10  1  0
 10 11  2  0
 10 31  1  0
 11 12  1  0
 11 32  1  0
 12 13  1  0
 12 14  2  0
 13 33  1  0
 14 15  1  0
 14 21  1  0
 15 16  1  0
 16 17  1  6
 17 18  1  0
 17 34  1  0
 17 35  1  0
 18 19  1  0
 18 36  1  0
 18 37  1  0
 19 20  1  0
 19 41  1  1
 20 38  1  0
 20 39  1  0
 20 40  1  0
M  CHG  1  19   1
M  END
>  <i_m_ct_stereo_status>  (113) 
1

>  <s_m_source_file>  (113) 
/var/tmp/pbs.5076255.sched01/tmpguie9axe/40t6mruo9t.sdf

>  <i_m_source_file_index>  (113) 
5

>  <i_lp_mmshare_version>  (113) 
48012

>  <i_f3d_flags>  (113) 
0

>  <s_epik_input>  (113) 
W0NIM11PW0NAXTEoW0NAXTIzNClPW0NIMl1bQ0BIXTJbQ0BASF0oTihbQ0gzXSlbQ0gyXVtDSDJdNClbQ0gyXWM1YzNjKE8xKWMoW09IXSlbY0hdW2NIXTU=

>  <s_epik_cmdline>  (113) 
J2VwaWtfcHl0aG9uJywgJy1waHQnLCAnMi4wJywgJy1waCcsICc3LjAnLCAnLXRuJywgJzgnLCAnLW1hJywgJzIwMCcsICctaW1hZScsICc8aW5maWxlLm1hZT4nLCAnLW9tYWUnLCAnPG91dGZpbGUubWFlPic=

>  <r_lp_tautomer_probability>  (113) 
1

>  <r_epik_Ionization_Penalty>  (113) 
0.181502

>  <r_epik_Ionization_Penalty_Charging>  (113) 
0.173432

>  <r_epik_Ionization_Penalty_Neutral>  (113) 
0.00806961

>  <r_epik_State_Penalty>  (113) 
0.222833

>  <r_epik_Charging_Adjusted_Penalty>  (113) 
0.396265

>  <i_epik_Tot_Q>  (113) 
1

>  <i_epik_Tot_abs_Q>  (113) 
1

>  <s_lp_Force_Field>  (113) 
OPLS3e

>  <r_lp_Energy>  (113) 
53.2282

>  <b_lp_Chiralities_Consistent>  (113) 
1

>  <s_lp_Variant>  (113) 
31:0-1

>  <s_i_glide_gridfile>  (113) 
pfpi4k_grid

>  <i_i_glide_lignum>  (113) 
5

>  <i_i_glide_rotatable_bonds>  (113) 
2

>  <r_i_docking_score>  (113) 
-3.57206

>  <r_i_glide_ligand_efficiency>  (113) 
-0.170098

>  <r_i_glide_ligand_efficiency_sa>  (113) 
-0.469287

>  <r_i_glide_ligand_efficiency_ln>  (113) 
-0.883184

>  <r_i_glide_gscore>  (113) 
-3.57206

>  <r_i_glide_lipo>  (113) 
-0.58799

>  <r_i_glide_hbond>  (113) 
0

>  <r_i_glide_metal>  (113) 
-0

>  <r_i_glide_rewards>  (113) 
-1.58416

>  <r_i_glide_evdw>  (113) 
-21.7096

>  <r_i_glide_ecoul>  (113) 
-1.83321

>  <r_i_glide_erotb>  (113) 
0

>  <r_i_glide_esite>  (113) 
-0.0394444

>  <r_i_glide_emodel>  (113) 
-29.4898

>  <r_i_glide_energy>  (113) 
-23.5428

>  <r_i_glide_einternal>  (113) 
0.141481

>  <r_i_glide_intrahb_reward>  (113) 
-0

>  <i_i_glide_confnum>  (113) 
1

>  <i_i_glide_posenum>  (113) 
15

>  <r_i_glide_eff_state_penalty>  (113) 
0

>  <ligand_id>  (113) 
31

>  <original_smiles>  (113) 
COC12OCC3C4Cc5ccc(O)c(c5C31CCN4C)O2

>  <smiles>  (113) 
[H]Oc1c([H])c([H])c2c3c1OC1(OC([H])([H])[H])OC([H])([H])C4([H])C31C([H])([H])C([H])([H])[N+]([H])(C([H])([H])[H])C4([H])C2([H])[H]

$$$$
31:0:2
     RDKit          3D

 41 45  0  0  1  0  0  0  0  0999 V2000
    9.3053   -2.9059    0.4580 C   0  0  0  0  0  0  0  0  0  0  0  0
    8.1078   -3.0293   -0.2982 O   0  0  0  0  0  0  0  0  0  0  0  0
    6.9536   -2.9005    0.4709 C   0  0  1  0  0  0  0  0  0  0  0  0
    6.8548   -1.6155    1.0542 O   0  0  0  0  0  0  0  0  0  0  0  0
    5.8401   -0.8059    0.4190 C   0  0  0  0  0  0  0  0  0  0  0  0
    4.8246   -1.8724    0.0775 C   0  0  1  0  0  0  0  0  0  0  0  0
    3.6077   -1.8044   -0.8767 C   0  0  2  0  0  0  0  0  0  0  0  0
    2.8360   -3.1847   -0.8217 C   0  0  0  0  0  0  0  0  0  0  0  0
    3.5737   -4.3759   -0.1660 C   0  0  0  0  0  0  0  0  0  0  0  0
    3.0100   -5.4806    0.5035 C   0  0  0  0  0  0  0  0  0  0  0  0
    3.8128   -6.2371    1.3986 C   0  0  0  0  0  0  0  0  0  0  0  0
    5.1386   -5.8341    1.7091 C   0  0  0  0  0  0  0  0  0  0  0  0
    5.8344   -6.4759    2.6890 O   0  0  0  0  0  0  0  0  0  0  0  0
    5.7172   -4.7378    1.0414 C   0  0  0  0  0  0  0  0  0  0  0  0
    4.9455   -4.1650    0.0523 C   0  0  0  0  0  0  0  0  0  0  0  0
    5.6911   -2.9827   -0.4207 C   0  0  2  0  0  0  0  0  0  0  0  0
    6.0424   -2.9038   -1.9421 C   0  0  0  0  0  0  0  0  0  0  0  0
    4.8526   -2.5795   -2.8525 C   0  0  0  0  0  0  0  0  0  0  0  0
    4.0241   -1.4921   -2.2724 N   0  0  1  0  0  0  0  0  0  0  0  0
    2.9012   -1.0975   -3.1581 C   0  0  0  0  0  0  0  0  0  0  0  0
    6.8327   -4.0000    1.3587 O   0  0  0  0  0  0  0  0  0  0  0  0
   10.1604   -3.0575   -0.1917 H   0  0  0  0  0  0  0  0  0  0  0  0
    9.3837   -3.6344    1.2679 H   0  0  0  0  0  0  0  0  0  0  0  0
    9.3961   -1.9053    0.8776 H   0  0  0  0  0  0  0  0  0  0  0  0
    5.4571   -0.0639    1.1236 H   0  0  0  0  0  0  0  0  0  0  0  0
    6.2137   -0.2981   -0.4657 H   0  0  0  0  0  0  0  0  0  0  0  0
    4.4123   -2.1067    1.0603 H   0  0  0  0  0  0  0  0  0  0  0  0
    2.9802   -0.9908   -0.5287 H   0  0  0  0  0  0  0  0  0  0  0  0
    1.9391   -3.0340   -0.2294 H   0  0  0  0  0  0  0  0  0  0  0  0
    2.4635   -3.5130   -1.7936 H   0  0  0  0  0  0  0  0  0  0  0  0
    1.9594   -5.7074    0.3973 H   0  0  0  0  0  0  0  0  0  0  0  0
    3.3735   -7.0636    1.9314 H   0  0  0  0  0  0  0  0  0  0  0  0
    6.7092   -6.1396    2.8018 H   0  0  0  0  0  0  0  0  0  0  0  0
    6.7786   -2.1143   -2.0938 H   0  0  0  0  0  0  0  0  0  0  0  0
    6.5204   -3.8236   -2.2756 H   0  0  0  0  0  0  0  0  0  0  0  0
    5.2099   -2.2597   -3.8271 H   0  0  0  0  0  0  0  0  0  0  0  0
    4.2683   -3.4796   -3.0336 H   0  0  0  0  0  0  0  0  0  0  0  0
    2.2133   -1.9244   -3.3375 H   0  0  0  0  0  0  0  0  0  0  0  0
    3.2726   -0.7630   -4.1262 H   0  0  0  0  0  0  0  0  0  0  0  0
    2.3396   -0.2757   -2.7150 H   0  0  0  0  0  0  0  0  0  0  0  0
    4.6052   -0.6634   -2.2050 H   0  0  0  0  0  0  0  0  0  0  0  0
  1  2  1  0
  1 22  1  0
  1 23  1  0
  1 24  1  0
  3  2  1  6
  3 16  1  0
  3 21  1  0
  3  4  1  0
  4  5  1  0
  5  6  1  0
  5 25  1  0
  5 26  1  0
  6 16  1  0
  6  7  1  0
  6 27  1  1
  7 19  1  0
  7  8  1  0
  7 28  1  1
  8  9  1  0
  8 29  1  0
  8 30  1  0
  9 15  2  0
  9 10  1  0
 10 11  2  0
 10 31  1  0
 11 12  1  0
 11 32  1  0
 12 13  1  0
 12 14  2  0
 13 33  1  0
 14 15  1  0
 14 21  1  0
 15 16  1  0
 16 17  1  6
 17 18  1  0
 17 34  1  0
 17 35  1  0
 18 19  1  0
 18 36  1  0
 18 37  1  0
 19 20  1  0
 19 41  1  1
 20 38  1  0
 20 39  1  0
 20 40  1  0
M  CHG  1  19   1
M  END
>  <i_m_ct_stereo_status>  (114) 
1

>  <s_m_source_file>  (114) 
/var/tmp/pbs.5076255.sched01/tmpguie9axe/40t6mruo9t.sdf

>  <i_m_source_file_index>  (114) 
5

>  <i_lp_mmshare_version>  (114) 
48012

>  <i_f3d_flags>  (114) 
0

>  <s_epik_input>  (114) 
W0NIM11PW0NAXTEoW0NAXTIzNClPW0NIMl1bQ0BIXTJbQ0BASF0oTihbQ0gzXSlbQ0gyXVtDSDJdNClbQ0gyXWM1YzNjKE8xKWMoW09IXSlbY0hdW2NIXTU=

>  <s_epik_cmdline>  (114) 
J2VwaWtfcHl0aG9uJywgJy1waHQnLCAnMi4wJywgJy1waCcsICc3LjAnLCAnLXRuJywgJzgnLCAnLW1hJywgJzIwMCcsICctaW1hZScsICc8aW5maWxlLm1hZT4nLCAnLW9tYWUnLCAnPG91dGZpbGUubWFlPic=

>  <r_lp_tautomer_probability>  (114) 
1

>  <r_epik_Ionization_Penalty>  (114) 
0.181502

>  <r_epik_Ionization_Penalty_Charging>  (114) 
0.173432

>  <r_epik_Ionization_Penalty_Neutral>  (114) 
0.00806961

>  <r_epik_State_Penalty>  (114) 
0.222833

>  <r_epik_Charging_Adjusted_Penalty>  (114) 
0.396265

>  <i_epik_Tot_Q>  (114) 
1

>  <i_epik_Tot_abs_Q>  (114) 
1

>  <s_lp_Force_Field>  (114) 
OPLS3e

>  <r_lp_Energy>  (114) 
53.2282

>  <b_lp_Chiralities_Consistent>  (114) 
1

>  <s_lp_Variant>  (114) 
31:0-1

>  <s_i_glide_gridfile>  (114) 
pfpi4k_grid

>  <i_i_glide_lignum>  (114) 
5

>  <i_i_glide_rotatable_bonds>  (114) 
2

>  <r_i_docking_score>  (114) 
-3.55307

>  <r_i_glide_ligand_efficiency>  (114) 
-0.169194

>  <r_i_glide_ligand_efficiency_sa>  (114) 
-0.466794

>  <r_i_glide_ligand_efficiency_ln>  (114) 
-0.878491

>  <r_i_glide_gscore>  (114) 
-3.55307

>  <r_i_glide_lipo>  (114) 
-0.573851

>  <r_i_glide_hbond>  (114) 
0

>  <r_i_glide_metal>  (114) 
-0

>  <r_i_glide_rewards>  (114) 
-1.58538

>  <r_i_glide_evdw>  (114) 
-21.8987

>  <r_i_glide_ecoul>  (114) 
-1.72003

>  <r_i_glide_erotb>  (114) 
0

>  <r_i_glide_esite>  (114) 
-0.0409055

>  <r_i_glide_emodel>  (114) 
-29.5376

>  <r_i_glide_energy>  (114) 
-23.6187

>  <r_i_glide_einternal>  (114) 
0.132768

>  <r_i_glide_intrahb_reward>  (114) 
-0

>  <i_i_glide_confnum>  (114) 
1

>  <i_i_glide_posenum>  (114) 
32

>  <r_i_glide_eff_state_penalty>  (114) 
0

>  <ligand_id>  (114) 
31

>  <original_smiles>  (114) 
COC12OCC3C4Cc5ccc(O)c(c5C31CCN4C)O2

>  <smiles>  (114) 
[H]Oc1c([H])c([H])c2c3c1OC1(OC([H])([H])[H])OC([H])([H])C4([H])C31C([H])([H])C([H])([H])[N+]([H])(C([H])([H])[H])C4([H])C2([H])[H]

$$$$
31:1:0
     RDKit          3D

 40 44  0  0  1  0  0  0  0  0999 V2000
    7.8423   -4.2878    0.9125 C   0  0  0  0  0  0  0  0  0  0  0  0
    7.4319   -2.9155    0.8353 O   0  0  0  0  0  0  0  0  0  0  0  0
    6.0776   -2.6375    1.1139 C   0  0  1  0  0  0  0  0  0  0  0  0
    5.8710   -1.2607    1.3794 O   0  0  0  0  0  0  0  0  0  0  0  0
    5.1493   -0.6135    0.3088 C   0  0  0  0  0  0  0  0  0  0  0  0
    4.2408   -1.7371   -0.1504 C   0  0  1  0  0  0  0  0  0  0  0  0
    3.4335   -1.8750   -1.4698 C   0  0  2  0  0  0  0  0  0  0  0  0
    2.6658   -3.2690   -1.4409 C   0  0  0  0  0  0  0  0  0  0  0  0
    3.0707   -4.2814   -0.3377 C   0  0  0  0  0  0  0  0  0  0  0  0
    2.2867   -5.2716    0.2863 C   0  0  0  0  0  0  0  0  0  0  0  0
    2.7122   -5.8337    1.5197 C   0  0  0  0  0  0  0  0  0  0  0  0
    3.8603   -5.3217    2.1916 C   0  0  0  0  0  0  0  0  0  0  0  0
    4.1752   -5.7682    3.4405 O   0  0  0  0  0  0  0  0  0  0  0  0
    4.6375   -4.3396    1.5763 C   0  0  0  0  0  0  0  0  0  0  0  0
    4.2858   -3.9899    0.2918 C   0  0  0  0  0  0  0  0  0  0  0  0
    5.1799   -2.8969   -0.1212 C   0  0  2  0  0  0  0  0  0  0  0  0
    6.0106   -3.0447   -1.4402 C   0  0  0  0  0  0  0  0  0  0  0  0
    5.2295   -2.8961   -2.7309 C   0  0  0  0  0  0  0  0  0  0  0  0
    4.3305   -1.7540   -2.6318 N   0  0  0  0  0  0  0  0  0  0  0  0
    3.5972   -1.5916   -3.8833 C   0  0  0  0  0  0  0  0  0  0  0  0
    5.5925   -3.4942    2.1232 O   0  0  0  0  0  0  0  0  0  0  0  0
    8.9043   -4.3671    0.6867 H   0  0  0  0  0  0  0  0  0  0  0  0
    7.3138   -4.9313    0.2123 H   0  0  0  0  0  0  0  0  0  0  0  0
    7.6932   -4.7129    1.9019 H   0  0  0  0  0  0  0  0  0  0  0  0
    4.5813    0.2471    0.6766 H   0  0  0  0  0  0  0  0  0  0  0  0
    5.8370   -0.2975   -0.4730 H   0  0  0  0  0  0  0  0  0  0  0  0
    3.5151   -1.8025    0.6647 H   0  0  0  0  0  0  0  0  0  0  0  0
    2.7253   -1.0529   -1.5340 H   0  0  0  0  0  0  0  0  0  0  0  0
    1.6292   -3.0707   -1.2182 H   0  0  0  0  0  0  0  0  0  0  0  0
    2.6428   -3.7757   -2.4056 H   0  0  0  0  0  0  0  0  0  0  0  0
    1.3468   -5.5678   -0.1451 H   0  0  0  0  0  0  0  0  0  0  0  0
    2.1010   -6.5871    2.0015 H   0  0  0  0  0  0  0  0  0  0  0  0
    3.5982   -6.4471    3.7575 H   0  0  0  0  0  0  0  0  0  0  0  0
    6.8053   -2.2925   -1.4590 H   0  0  0  0  0  0  0  0  0  0  0  0
    6.5034   -4.0084   -1.5088 H   0  0  0  0  0  0  0  0  0  0  0  0
    5.9556   -2.7355   -3.5227 H   0  0  0  0  0  0  0  0  0  0  0  0
    4.7105   -3.8200   -2.9641 H   0  0  0  0  0  0  0  0  0  0  0  0
    4.2943   -1.4238   -4.7063 H   0  0  0  0  0  0  0  0  0  0  0  0
    2.9370   -0.7226   -3.8287 H   0  0  0  0  0  0  0  0  0  0  0  0
    2.9892   -2.4646   -4.1339 H   0  0  0  0  0  0  0  0  0  0  0  0
  1  2  1  0
  1 22  1  0
  1 23  1  0
  1 24  1  0
  3  2  1  6
  3 16  1  0
  3 21  1  0
  3  4  1  0
  4  5  1  0
  5  6  1  0
  5 25  1  0
  5 26  1  0
  6 16  1  0
  6  7  1  0
  6 27  1  1
  7 19  1  0
  7  8  1  0
  7 28  1  6
  8  9  1  0
  8 29  1  0
  8 30  1  0
  9 15  2  0
  9 10  1  0
 10 11  2  0
 10 31  1  0
 11 12  1  0
 11 32  1  0
 12 13  1  0
 12 14  2  0
 13 33  1  0
 14 15  1  0
 14 21  1  0
 15 16  1  0
 16 17  1  6
 17 18  1  0
 17 34  1  0
 17 35  1  0
 18 19  1  0
 18 36  1  0
 18 37  1  0
 19 20  1  0
 20 38  1  0
 20 39  1  0
 20 40  1  0
M  END
>  <i_m_ct_stereo_status>  (115) 
1

>  <s_m_source_file>  (115) 
/var/tmp/pbs.5076255.sched01/tmpguie9axe/40t6mruo9t.sdf

>  <i_m_source_file_index>  (115) 
6

>  <i_lp_mmshare_version>  (115) 
48012

>  <i_f3d_flags>  (115) 
0

>  <s_epik_input>  (115) 
W0NIM11PW0NAXTEoW0NAXTIzNClPW0NIMl1bQ0BIXTJbQ0BASF0oTihbQ0gzXSlbQ0gyXVtDSDJdNClbQ0gyXWM1YzNjKE8xKWMoW09IXSlbY0hdW2NIXTU=

>  <s_epik_cmdline>  (115) 
J2VwaWtfcHl0aG9uJywgJy1waHQnLCAnMi4wJywgJy1waCcsICc3LjAnLCAnLXRuJywgJzgnLCAnLW1hJywgJzIwMCcsICctaW1hZScsICc8aW5maWxlLm1hZT4nLCAnLW9tYWUnLCAnPG91dGZpbGUubWFlPic=

>  <r_lp_tautomer_probability>  (115) 
1

>  <r_epik_Ionization_Penalty>  (115) 
0.814463

>  <r_epik_Ionization_Penalty_Charging>  (115) 
0

>  <r_epik_Ionization_Penalty_Neutral>  (115) 
0.814463

>  <r_epik_State_Penalty>  (115) 
0.698726

>  <r_epik_Charging_Adjusted_Penalty>  (115) 
0.698726

>  <i_epik_Tot_Q>  (115) 
0

>  <i_epik_Tot_abs_Q>  (115) 
0

>  <s_lp_Force_Field>  (115) 
OPLS3e

>  <r_lp_Energy>  (115) 
43.8994

>  <b_lp_Chiralities_Consistent>  (115) 
1

>  <s_lp_Variant>  (115) 
31:0-2

>  <s_i_glide_gridfile>  (115) 
pfpi4k_grid

>  <i_i_glide_lignum>  (115) 
6

>  <i_i_glide_rotatable_bonds>  (115) 
2

>  <r_i_docking_score>  (115) 
-3.44067

>  <r_i_glide_ligand_efficiency>  (115) 
-0.163841

>  <r_i_glide_ligand_efficiency_sa>  (115) 
-0.452026

>  <r_i_glide_ligand_efficiency_ln>  (115) 
-0.850698

>  <r_i_glide_gscore>  (115) 
-3.44067

>  <r_i_glide_lipo>  (115) 
-0.782913

>  <r_i_glide_hbond>  (115) 
0

>  <r_i_glide_metal>  (115) 
-0

>  <r_i_glide_rewards>  (115) 
-1.57166

>  <r_i_glide_evdw>  (115) 
-21.1489

>  <r_i_glide_ecoul>  (115) 
-0.191001

>  <r_i_glide_erotb>  (115) 
0

>  <r_i_glide_esite>  (115) 
0

>  <r_i_glide_emodel>  (115) 
-23.0907

>  <r_i_glide_energy>  (115) 
-21.3399

>  <r_i_glide_einternal>  (115) 
5.32815

>  <r_i_glide_intrahb_reward>  (115) 
-0

>  <i_i_glide_confnum>  (115) 
1

>  <i_i_glide_posenum>  (115) 
35

>  <r_i_glide_eff_state_penalty>  (115) 
0

>  <ligand_id>  (115) 
31

>  <original_smiles>  (115) 
COC12OCC3C4Cc5ccc(O)c(c5C31CCN4C)O2

>  <smiles>  (115) 
[H]Oc1c([H])c([H])c2c3c1OC1(OC([H])([H])[H])OC([H])([H])C4([H])C([H])(N(C([H])([H])[H])C([H])([H])C([H])([H])C314)C2([H])[H]

$$$$
31:1:1
     RDKit          3D

 40 44  0  0  1  0  0  0  0  0999 V2000
    8.9123   -2.8416    0.3365 C   0  0  0  0  0  0  0  0  0  0  0  0
    7.7627   -3.0332   -0.4805 O   0  0  0  0  0  0  0  0  0  0  0  0
    6.5628   -2.7385    0.1715 C   0  0  1  0  0  0  0  0  0  0  0  0
    6.4561   -1.3551    0.4437 O   0  0  0  0  0  0  0  0  0  0  0  0
    5.4690   -0.7211   -0.4018 C   0  0  0  0  0  0  0  0  0  0  0  0
    4.4616   -1.8283   -0.5570 C   0  0  1  0  0  0  0  0  0  0  0  0
    3.3231   -1.9679   -1.5962 C   0  0  2  0  0  0  0  0  0  0  0  0
    2.5504   -3.3241   -1.3070 C   0  0  0  0  0  0  0  0  0  0  0  0
    3.2134   -4.3236   -0.3271 C   0  0  0  0  0  0  0  0  0  0  0  0
    2.6013   -5.2621    0.5249 C   0  0  0  0  0  0  0  0  0  0  0  0
    3.3382   -5.8054    1.6113 C   0  0  0  0  0  0  0  0  0  0  0  0
    4.6459   -5.3400    1.9123 C   0  0  0  0  0  0  0  0  0  0  0  0
    5.2783   -5.7568    3.0478 O   0  0  0  0  0  0  0  0  0  0  0  0
    5.2737   -4.4066    1.0614 C   0  0  0  0  0  0  0  0  0  0  0  0
    4.5705   -4.0646   -0.0739 C   0  0  0  0  0  0  0  0  0  0  0  0
    5.3473   -3.0145   -0.7514 C   0  0  2  0  0  0  0  0  0  0  0  0
    5.7726   -3.2663   -2.2344 C   0  0  0  0  0  0  0  0  0  0  0  0
    4.6473   -3.1146   -3.2658 C   0  0  0  0  0  0  0  0  0  0  0  0
    3.8667   -1.9211   -2.9621 N   0  0  0  0  0  0  0  0  0  0  0  0
    2.8161   -1.7521   -3.9593 C   0  0  0  0  0  0  0  0  0  0  0  0
    6.3757   -3.6140    1.2758 O   0  0  0  0  0  0  0  0  0  0  0  0
    9.8064   -3.1156   -0.2181 H   0  0  0  0  0  0  0  0  0  0  0  0
    8.8959   -3.4524    1.2415 H   0  0  0  0  0  0  0  0  0  0  0  0
    9.0108   -1.7958    0.6221 H   0  0  0  0  0  0  0  0  0  0  0  0
    5.0449    0.1448    0.1023 H   0  0  0  0  0  0  0  0  0  0  0  0
    5.8563   -0.4307   -1.3748 H   0  0  0  0  0  0  0  0  0  0  0  0
    3.9903   -1.8446    0.4292 H   0  0  0  0  0  0  0  0  0  0  0  0
    2.6529   -1.1166   -1.5020 H   0  0  0  0  0  0  0  0  0  0  0  0
    1.6259   -3.0600   -0.8076 H   0  0  0  0  0  0  0  0  0  0  0  0
    2.2304   -3.8523   -2.2062 H   0  0  0  0  0  0  0  0  0  0  0  0
    1.5645   -5.5257    0.4002 H   0  0  0  0  0  0  0  0  0  0  0  0
    2.8563   -6.5110    2.2739 H   0  0  0  0  0  0  0  0  0  0  0  0
    4.7728   -6.3806    3.5456 H   0  0  0  0  0  0  0  0  0  0  0  0
    6.5510   -2.5538   -2.5082 H   0  0  0  0  0  0  0  0  0  0  0  0
    6.2108   -4.2530   -2.3415 H   0  0  0  0  0  0  0  0  0  0  0  0
    5.0403   -3.0162   -4.2717 H   0  0  0  0  0  0  0  0  0  0  0  0
    4.0443   -4.0146   -3.2905 H   0  0  0  0  0  0  0  0  0  0  0  0
    3.2615   -1.6270   -4.9456 H   0  0  0  0  0  0  0  0  0  0  0  0
    2.2359   -0.8512   -3.7631 H   0  0  0  0  0  0  0  0  0  0  0  0
    2.1271   -2.5985   -4.0060 H   0  0  0  0  0  0  0  0  0  0  0  0
  1  2  1  0
  1 22  1  0
  1 23  1  0
  1 24  1  0
  3  2  1  6
  3 16  1  0
  3 21  1  0
  3  4  1  0
  4  5  1  0
  5  6  1  0
  5 25  1  0
  5 26  1  0
  6 16  1  0
  6  7  1  0
  6 27  1  1
  7 19  1  0
  7  8  1  0
  7 28  1  6
  8  9  1  0
  8 29  1  0
  8 30  1  0
  9 15  2  0
  9 10  1  0
 10 11  2  0
 10 31  1  0
 11 12  1  0
 11 32  1  0
 12 13  1  0
 12 14  2  0
 13 33  1  0
 14 15  1  0
 14 21  1  0
 15 16  1  0
 16 17  1  6
 17 18  1  0
 17 34  1  0
 17 35  1  0
 18 19  1  0
 18 36  1  0
 18 37  1  0
 19 20  1  0
 20 38  1  0
 20 39  1  0
 20 40  1  0
M  END
>  <i_m_ct_stereo_status>  (116) 
1

>  <s_m_source_file>  (116) 
/var/tmp/pbs.5076255.sched01/tmpguie9axe/40t6mruo9t.sdf

>  <i_m_source_file_index>  (116) 
6

>  <i_lp_mmshare_version>  (116) 
48012

>  <i_f3d_flags>  (116) 
0

>  <s_epik_input>  (116) 
W0NIM11PW0NAXTEoW0NAXTIzNClPW0NIMl1bQ0BIXTJbQ0BASF0oTihbQ0gzXSlbQ0gyXVtDSDJdNClbQ0gyXWM1YzNjKE8xKWMoW09IXSlbY0hdW2NIXTU=

>  <s_epik_cmdline>  (116) 
J2VwaWtfcHl0aG9uJywgJy1waHQnLCAnMi4wJywgJy1waCcsICc3LjAnLCAnLXRuJywgJzgnLCAnLW1hJywgJzIwMCcsICctaW1hZScsICc8aW5maWxlLm1hZT4nLCAnLW9tYWUnLCAnPG91dGZpbGUubWFlPic=

>  <r_lp_tautomer_probability>  (116) 
1

>  <r_epik_Ionization_Penalty>  (116) 
0.814463

>  <r_epik_Ionization_Penalty_Charging>  (116) 
0

>  <r_epik_Ionization_Penalty_Neutral>  (116) 
0.814463

>  <r_epik_State_Penalty>  (116) 
0.698726

>  <r_epik_Charging_Adjusted_Penalty>  (116) 
0.698726

>  <i_epik_Tot_Q>  (116) 
0

>  <i_epik_Tot_abs_Q>  (116) 
0

>  <s_lp_Force_Field>  (116) 
OPLS3e

>  <r_lp_Energy>  (116) 
43.8994

>  <b_lp_Chiralities_Consistent>  (116) 
1

>  <s_lp_Variant>  (116) 
31:0-2

>  <s_i_glide_gridfile>  (116) 
pfpi4k_grid

>  <i_i_glide_lignum>  (116) 
6

>  <i_i_glide_rotatable_bonds>  (116) 
2

>  <r_i_docking_score>  (116) 
-3.42532

>  <r_i_glide_ligand_efficiency>  (116) 
-0.163111

>  <r_i_glide_ligand_efficiency_sa>  (116) 
-0.45001

>  <r_i_glide_ligand_efficiency_ln>  (116) 
-0.846905

>  <r_i_glide_gscore>  (116) 
-3.42532

>  <r_i_glide_lipo>  (116) 
-0.687419

>  <r_i_glide_hbond>  (116) 
0

>  <r_i_glide_metal>  (116) 
-0

>  <r_i_glide_rewards>  (116) 
-1.53194

>  <r_i_glide_evdw>  (116) 
-22.0386

>  <r_i_glide_ecoul>  (116) 
-0.69361

>  <r_i_glide_erotb>  (116) 
0

>  <r_i_glide_esite>  (116) 
0

>  <r_i_glide_emodel>  (116) 
-27.3913

>  <r_i_glide_energy>  (116) 
-22.7322

>  <r_i_glide_einternal>  (116) 
0.0133014

>  <r_i_glide_intrahb_reward>  (116) 
-0

>  <i_i_glide_confnum>  (116) 
1

>  <i_i_glide_posenum>  (116) 
24

>  <r_i_glide_eff_state_penalty>  (116) 
0

>  <ligand_id>  (116) 
31

>  <original_smiles>  (116) 
COC12OCC3C4Cc5ccc(O)c(c5C31CCN4C)O2

>  <smiles>  (116) 
[H]Oc1c([H])c([H])c2c3c1OC1(OC([H])([H])[H])OC([H])([H])C4([H])C([H])(N(C([H])([H])[H])C([H])([H])C([H])([H])C314)C2([H])[H]

$$$$
31:1:2
     RDKit          3D

 40 44  0  0  1  0  0  0  0  0999 V2000
    9.3052   -2.8983    0.4575 C   0  0  0  0  0  0  0  0  0  0  0  0
    8.1156   -3.0190   -0.3131 O   0  0  0  0  0  0  0  0  0  0  0  0
    6.9507   -2.8956    0.4449 C   0  0  1  0  0  0  0  0  0  0  0  0
    6.8434   -1.6064    1.0209 O   0  0  0  0  0  0  0  0  0  0  0  0
    5.8358   -0.8072    0.3641 C   0  0  0  0  0  0  0  0  0  0  0  0
    4.8229   -1.8787    0.0310 C   0  0  1  0  0  0  0  0  0  0  0  0
    3.6264   -1.8167   -0.9430 C   0  0  2  0  0  0  0  0  0  0  0  0
    2.8611   -3.2058   -0.9003 C   0  0  0  0  0  0  0  0  0  0  0  0
    3.5849   -4.3864   -0.2089 C   0  0  0  0  0  0  0  0  0  0  0  0
    3.0222   -5.4845    0.4807 C   0  0  0  0  0  0  0  0  0  0  0  0
    3.8214   -6.2332    1.3816 C   0  0  0  0  0  0  0  0  0  0  0  0
    5.1436   -5.8256    1.6994 C   0  0  0  0  0  0  0  0  0  0  0  0
    5.8400   -6.4593    2.6841 O   0  0  0  0  0  0  0  0  0  0  0  0
    5.7186   -4.7322    1.0219 C   0  0  0  0  0  0  0  0  0  0  0  0
    4.9528   -4.1711    0.0234 C   0  0  0  0  0  0  0  0  0  0  0  0
    5.6951   -2.9909   -0.4536 C   0  0  2  0  0  0  0  0  0  0  0  0
    6.0486   -2.9255   -1.9727 C   0  0  0  0  0  0  0  0  0  0  0  0
    4.8712   -2.5661   -2.8886 C   0  0  0  0  0  0  0  0  0  0  0  0
    4.0952   -1.4771   -2.2982 N   0  0  0  0  0  0  0  0  0  0  0  0
    2.9881   -1.1144   -3.1792 C   0  0  0  0  0  0  0  0  0  0  0  0
    6.8328   -3.9925    1.3401 O   0  0  0  0  0  0  0  0  0  0  0  0
   10.1684   -3.0535   -0.1804 H   0  0  0  0  0  0  0  0  0  0  0  0
    9.3676   -3.6284    1.2670 H   0  0  0  0  0  0  0  0  0  0  0  0
    9.3923   -1.8983    0.8785 H   0  0  0  0  0  0  0  0  0  0  0  0
    5.4390   -0.0516    1.0463 H   0  0  0  0  0  0  0  0  0  0  0  0
    6.2114   -0.3205   -0.5293 H   0  0  0  0  0  0  0  0  0  0  0  0
    4.4033   -2.1090    1.0153 H   0  0  0  0  0  0  0  0  0  0  0  0
    2.9818   -1.0104   -0.6057 H   0  0  0  0  0  0  0  0  0  0  0  0
    1.9721   -3.0505   -0.3021 H   0  0  0  0  0  0  0  0  0  0  0  0
    2.4890   -3.5356   -1.8704 H   0  0  0  0  0  0  0  0  0  0  0  0
    1.9761   -5.7272    0.3666 H   0  0  0  0  0  0  0  0  0  0  0  0
    3.3876   -7.0660    1.9205 H   0  0  0  0  0  0  0  0  0  0  0  0
    6.7102   -6.1115    2.8018 H   0  0  0  0  0  0  0  0  0  0  0  0
    6.7991   -2.1507   -2.1248 H   0  0  0  0  0  0  0  0  0  0  0  0
    6.5087   -3.8588   -2.3060 H   0  0  0  0  0  0  0  0  0  0  0  0
    5.2474   -2.2363   -3.8540 H   0  0  0  0  0  0  0  0  0  0  0  0
    4.2620   -3.4439   -3.0845 H   0  0  0  0  0  0  0  0  0  0  0  0
    3.3590   -0.7853   -4.1502 H   0  0  0  0  0  0  0  0  0  0  0  0
    2.4156   -0.2903   -2.7509 H   0  0  0  0  0  0  0  0  0  0  0  0
    2.2982   -1.9417   -3.3554 H   0  0  0  0  0  0  0  0  0  0  0  0
  1  2  1  0
  1 22  1  0
  1 23  1  0
  1 24  1  0
  3  2  1  6
  3 16  1  0
  3 21  1  0
  3  4  1  0
  4  5  1  0
  5  6  1  0
  5 25  1  0
  5 26  1  0
  6 16  1  0
  6  7  1  0
  6 27  1  1
  7 19  1  0
  7  8  1  0
  7 28  1  1
  8  9  1  0
  8 29  1  0
  8 30  1  0
  9 15  2  0
  9 10  1  0
 10 11  2  0
 10 31  1  0
 11 12  1  0
 11 32  1  0
 12 13  1  0
 12 14  2  0
 13 33  1  0
 14 15  1  0
 14 21  1  0
 15 16  1  0
 16 17  1  6
 17 18  1  0
 17 34  1  0
 17 35  1  0
 18 19  1  0
 18 36  1  0
 18 37  1  0
 19 20  1  0
 20 38  1  0
 20 39  1  0
 20 40  1  0
M  END
>  <i_m_ct_stereo_status>  (117) 
1

>  <s_m_source_file>  (117) 
/var/tmp/pbs.5076255.sched01/tmpguie9axe/40t6mruo9t.sdf

>  <i_m_source_file_index>  (117) 
6

>  <i_lp_mmshare_version>  (117) 
48012

>  <i_f3d_flags>  (117) 
0

>  <s_epik_input>  (117) 
W0NIM11PW0NAXTEoW0NAXTIzNClPW0NIMl1bQ0BIXTJbQ0BASF0oTihbQ0gzXSlbQ0gyXVtDSDJdNClbQ0gyXWM1YzNjKE8xKWMoW09IXSlbY0hdW2NIXTU=

>  <s_epik_cmdline>  (117) 
J2VwaWtfcHl0aG9uJywgJy1waHQnLCAnMi4wJywgJy1waCcsICc3LjAnLCAnLXRuJywgJzgnLCAnLW1hJywgJzIwMCcsICctaW1hZScsICc8aW5maWxlLm1hZT4nLCAnLW9tYWUnLCAnPG91dGZpbGUubWFlPic=

>  <r_lp_tautomer_probability>  (117) 
1

>  <r_epik_Ionization_Penalty>  (117) 
0.814463

>  <r_epik_Ionization_Penalty_Charging>  (117) 
0

>  <r_epik_Ionization_Penalty_Neutral>  (117) 
0.814463

>  <r_epik_State_Penalty>  (117) 
0.698726

>  <r_epik_Charging_Adjusted_Penalty>  (117) 
0.698726

>  <i_epik_Tot_Q>  (117) 
0

>  <i_epik_Tot_abs_Q>  (117) 
0

>  <s_lp_Force_Field>  (117) 
OPLS3e

>  <r_lp_Energy>  (117) 
43.8994

>  <b_lp_Chiralities_Consistent>  (117) 
1

>  <s_lp_Variant>  (117) 
31:0-2

>  <s_i_glide_gridfile>  (117) 
pfpi4k_grid

>  <i_i_glide_lignum>  (117) 
6

>  <i_i_glide_rotatable_bonds>  (117) 
2

>  <r_i_docking_score>  (117) 
-3.35428

>  <r_i_glide_ligand_efficiency>  (117) 
-0.159728

>  <r_i_glide_ligand_efficiency_sa>  (117) 
-0.440676

>  <r_i_glide_ligand_efficiency_ln>  (117) 
-0.829338

>  <r_i_glide_gscore>  (117) 
-3.35428

>  <r_i_glide_lipo>  (117) 
-0.599241

>  <r_i_glide_hbond>  (117) 
0

>  <r_i_glide_metal>  (117) 
-0

>  <r_i_glide_rewards>  (117) 
-1.5953

>  <r_i_glide_evdw>  (117) 
-23.5747

>  <r_i_glide_ecoul>  (117) 
0.126691

>  <r_i_glide_erotb>  (117) 
0

>  <r_i_glide_esite>  (117) 
0

>  <r_i_glide_emodel>  (117) 
-28.0471

>  <r_i_glide_energy>  (117) 
-23.4481

>  <r_i_glide_einternal>  (117) 
0.100731

>  <r_i_glide_intrahb_reward>  (117) 
-0

>  <i_i_glide_confnum>  (117) 
1

>  <i_i_glide_posenum>  (117) 
25

>  <r_i_glide_eff_state_penalty>  (117) 
0

>  <ligand_id>  (117) 
31

>  <original_smiles>  (117) 
COC12OCC3C4Cc5ccc(O)c(c5C31CCN4C)O2

>  <smiles>  (117) 
[H]Oc1c([H])c([H])c2c3c1OC1(OC([H])([H])[H])OC([H])([H])C4([H])C([H])(N(C([H])([H])[H])C([H])([H])C([H])([H])C314)C2([H])[H]

$$$$
32:0:0
     RDKit          3D

 33 35  0  0  1  0  0  0  0  0999 V2000
    1.3917    1.2311    1.6379 C   0  0  0  0  0  0  0  0  0  0  0  0
    0.5118    2.1201    2.4229 N   0  0  0  0  0  0  0  0  0  0  0  0
    1.2385    2.7537    3.5468 C   0  0  0  0  0  0  0  0  0  0  0  0
    0.3256    3.7079    4.3326 C   0  0  0  0  0  0  0  0  0  0  0  0
   -0.9084    3.0289    4.7328 N   0  0  0  0  0  0  0  0  0  0  0  0
   -1.3615    3.0354    6.0527 C   0  0  0  0  0  0  0  0  0  0  0  0
   -2.1108    1.9980    6.4531 N   0  0  0  0  0  0  0  0  0  0  0  0
   -2.5761    1.9975    7.7080 N   0  0  0  0  0  0  0  0  0  0  0  0
   -2.2953    3.0295    8.5376 C   0  0  0  0  0  0  0  0  0  0  0  0
   -2.7844    3.0545    9.8586 C   0  0  0  0  0  0  0  0  0  0  0  0
   -2.4968    4.1339   10.7168 C   0  0  0  0  0  0  0  0  0  0  0  0
   -1.7105    5.2055   10.2540 C   0  0  0  0  0  0  0  0  0  0  0  0
   -1.2117    5.1862    8.9373 C   0  0  0  0  0  0  0  0  0  0  0  0
   -1.4985    4.1100    8.0708 C   0  0  0  0  0  0  0  0  0  0  0  0
   -1.0333    4.0903    6.8026 N   0  0  0  0  0  0  0  0  0  0  0  0
   -1.6381    2.3410    3.6625 C   0  0  0  0  0  0  0  0  0  0  0  0
   -0.7051    1.4043    2.8835 C   0  0  0  0  0  0  0  0  0  0  0  0
    1.7593    0.3942    2.2342 H   0  0  0  0  0  0  0  0  0  0  0  0
    2.2533    1.7850    1.2762 H   0  0  0  0  0  0  0  0  0  0  0  0
    0.8530    0.8269    0.7829 H   0  0  0  0  0  0  0  0  0  0  0  0
    1.6074    1.9746    4.2156 H   0  0  0  0  0  0  0  0  0  0  0  0
    2.1122    3.2906    3.1752 H   0  0  0  0  0  0  0  0  0  0  0  0
    0.8946    4.0875    5.1876 H   0  0  0  0  0  0  0  0  0  0  0  0
    0.0660    4.5704    3.7182 H   0  0  0  0  0  0  0  0  0  0  0  0
   -3.3806    2.2405   10.2330 H   0  0  0  0  0  0  0  0  0  0  0  0
   -2.8768    4.1237   11.7302 H   0  0  0  0  0  0  0  0  0  0  0  0
   -1.4869    6.0360   10.9116 H   0  0  0  0  0  0  0  0  0  0  0  0
   -0.6060    6.0089    8.5898 H   0  0  0  0  0  0  0  0  0  0  0  0
   -2.4961    1.7719    4.0327 H   0  0  0  0  0  0  0  0  0  0  0  0
   -2.0437    3.0899    2.9821 H   0  0  0  0  0  0  0  0  0  0  0  0
   -1.2369    0.9670    2.0370 H   0  0  0  0  0  0  0  0  0  0  0  0
   -0.4078    0.5759    3.5285 H   0  0  0  0  0  0  0  0  0  0  0  0
    0.2200    2.8784    1.8058 H   0  0  0  0  0  0  0  0  0  0  0  0
  1  2  1  0
  1 18  1  0
  1 19  1  0
  1 20  1  0
  2 17  1  0
  2  3  1  0
  2 33  1  0
  3  4  1  0
  3 21  1  0
  3 22  1  0
  4  5  1  0
  4 23  1  0
  4 24  1  0
  5  6  1  0
  5 16  1  0
  6 15  1  0
  6  7  2  0
  7  8  1  0
  8  9  2  0
  9 14  1  0
  9 10  1  0
 10 11  2  0
 10 25  1  0
 11 12  1  0
 11 26  1  0
 12 13  2  0
 12 27  1  0
 13 14  1  0
 13 28  1  0
 14 15  2  0
 16 17  1  0
 16 29  1  0
 16 30  1  0
 17 31  1  0
 17 32  1  0
M  CHG  1   2   1
M  END
>  <i_m_ct_stereo_status>  (118) 
1

>  <s_m_source_file>  (118) 
/var/tmp/pbs.5076255.sched01/tmpguie9axe/40t6mruo9t.sdf

>  <i_m_source_file_index>  (118) 
7

>  <i_lp_mmshare_version>  (118) 
48012

>  <i_f3d_flags>  (118) 
0

>  <s_epik_input>  (118) 
W0NIM11OMVtDSDJdW0NIMl1OKFtDSDJdW0NIMl0xKWMobm4yKW5jKGMyMylbY0hdW2NIXVtjSF1bY0hdMw==

>  <s_epik_cmdline>  (118) 
J2VwaWtfcHl0aG9uJywgJy1waHQnLCAnMi4wJywgJy1waCcsICc3LjAnLCAnLXRuJywgJzgnLCAnLW1hJywgJzIwMCcsICctaW1hZScsICc8aW5maWxlLm1hZT4nLCAnLW9tYWUnLCAnPG91dGZpbGUubWFlPic=

>  <r_lp_tautomer_probability>  (118) 
1

>  <r_epik_Ionization_Penalty>  (118) 
0.0647498

>  <r_epik_Ionization_Penalty_Charging>  (118) 
0.0647487

>  <r_epik_Ionization_Penalty_Neutral>  (118) 
1.09346e-06

>  <r_epik_State_Penalty>  (118) 
0.0567826

>  <r_epik_Charging_Adjusted_Penalty>  (118) 
0.121531

>  <i_epik_Tot_Q>  (118) 
1

>  <i_epik_Tot_abs_Q>  (118) 
1

>  <s_lp_Force_Field>  (118) 
OPLS3e

>  <r_lp_Energy>  (118) 
45.3966

>  <b_lp_Chiralities_Consistent>  (118) 
1

>  <s_lp_Variant>  (118) 
32:0-1

>  <s_i_glide_gridfile>  (118) 
pfpi4k_grid

>  <i_i_glide_lignum>  (118) 
7

>  <i_i_glide_rotatable_bonds>  (118) 
1

>  <r_i_docking_score>  (118) 
-3.93471

>  <r_i_glide_ligand_efficiency>  (118) 
-0.231454

>  <r_i_glide_ligand_efficiency_sa>  (118) 
-0.595132

>  <r_i_glide_ligand_efficiency_ln>  (118) 
-1.02648

>  <r_i_glide_gscore>  (118) 
-3.93471

>  <r_i_glide_lipo>  (118) 
-0.00129745

>  <r_i_glide_hbond>  (118) 
-0.2

>  <r_i_glide_metal>  (118) 
-0

>  <r_i_glide_rewards>  (118) 
-1.86528

>  <r_i_glide_evdw>  (118) 
-18.0238

>  <r_i_glide_ecoul>  (118) 
-7.63138

>  <r_i_glide_erotb>  (118) 
0.322106

>  <r_i_glide_esite>  (118) 
-0.144343

>  <r_i_glide_emodel>  (118) 
-34.5005

>  <r_i_glide_energy>  (118) 
-25.6551

>  <r_i_glide_einternal>  (118) 
0.59901

>  <r_i_glide_intrahb_reward>  (118) 
-0

>  <i_i_glide_confnum>  (118) 
1

>  <i_i_glide_posenum>  (118) 
2

>  <r_i_glide_eff_state_penalty>  (118) 
0

>  <ligand_id>  (118) 
32

>  <original_smiles>  (118) 
CN1CCN(c2nnc3ccccc3n2)CC1

>  <smiles>  (118) 
[H]c1c([H])c([H])c2nc(N3C([H])([H])C([H])([H])[N+]([H])(C([H])([H])[H])C([H])([H])C3([H])[H])nnc2c1[H]

$$$$
32:0:1
     RDKit          3D

 33 35  0  0  1  0  0  0  0  0999 V2000
    6.0691   -3.1471   -0.7150 C   0  0  0  0  0  0  0  0  0  0  0  0
    4.8235   -3.4241    0.0286 N   0  0  0  0  0  0  0  0  0  0  0  0
    5.0816   -4.1873    1.2767 C   0  0  0  0  0  0  0  0  0  0  0  0
    3.7879   -4.4089    2.0719 C   0  0  0  0  0  0  0  0  0  0  0  0
    2.7522   -5.0019    1.2220 N   0  0  0  0  0  0  0  0  0  0  0  0
    2.0688   -6.1573    1.6004 C   0  0  0  0  0  0  0  0  0  0  0  0
    0.7830   -6.2596    1.2249 N   0  0  0  0  0  0  0  0  0  0  0  0
    0.0845   -7.3176    1.6583 N   0  0  0  0  0  0  0  0  0  0  0  0
    0.6832   -8.2659    2.4243 C   0  0  0  0  0  0  0  0  0  0  0  0
   -0.0227   -9.3992    2.8778 C   0  0  0  0  0  0  0  0  0  0  0  0
    0.6130  -10.3843    3.6615 C   0  0  0  0  0  0  0  0  0  0  0  0
    1.9673  -10.2421    4.0072 C   0  0  0  0  0  0  0  0  0  0  0  0
    2.6812   -9.1113    3.5613 C   0  0  0  0  0  0  0  0  0  0  0  0
    2.0524   -8.1212    2.7755 C   0  0  0  0  0  0  0  0  0  0  0  0
    2.7297   -7.0351    2.3537 N   0  0  0  0  0  0  0  0  0  0  0  0
    2.4939   -4.3122   -0.0446 C   0  0  0  0  0  0  0  0  0  0  0  0
    3.8057   -4.0951   -0.8154 C   0  0  0  0  0  0  0  0  0  0  0  0
    6.5305   -4.0831   -1.0229 H   0  0  0  0  0  0  0  0  0  0  0  0
    6.7885   -2.6088   -0.0974 H   0  0  0  0  0  0  0  0  0  0  0  0
    5.8773   -2.5549   -1.6104 H   0  0  0  0  0  0  0  0  0  0  0  0
    5.5145   -5.1546    1.0176 H   0  0  0  0  0  0  0  0  0  0  0  0
    5.8143   -3.6670    1.8953 H   0  0  0  0  0  0  0  0  0  0  0  0
    4.0151   -5.0092    2.9567 H   0  0  0  0  0  0  0  0  0  0  0  0
    3.4123   -3.4551    2.4438 H   0  0  0  0  0  0  0  0  0  0  0  0
   -1.0612   -9.5260    2.6208 H   0  0  0  0  0  0  0  0  0  0  0  0
    0.0572  -11.2472    4.0012 H   0  0  0  0  0  0  0  0  0  0  0  0
    2.4534  -10.9950    4.6151 H   0  0  0  0  0  0  0  0  0  0  0  0
    3.7202   -9.0037    3.8335 H   0  0  0  0  0  0  0  0  0  0  0  0
    1.7992   -4.8729   -0.6760 H   0  0  0  0  0  0  0  0  0  0  0  0
    2.0350   -3.3424    0.1589 H   0  0  0  0  0  0  0  0  0  0  0  0
    3.6182   -3.5183   -1.7233 H   0  0  0  0  0  0  0  0  0  0  0  0
    4.2065   -5.0595   -1.1212 H   0  0  0  0  0  0  0  0  0  0  0  0
    4.4230   -2.5355    0.3047 H   0  0  0  0  0  0  0  0  0  0  0  0
  1  2  1  0
  1 18  1  0
  1 19  1  0
  1 20  1  0
  2 17  1  0
  2  3  1  0
  2 33  1  0
  3  4  1  0
  3 21  1  0
  3 22  1  0
  4  5  1  0
  4 23  1  0
  4 24  1  0
  5  6  1  0
  5 16  1  0
  6 15  1  0
  6  7  2  0
  7  8  1  0
  8  9  2  0
  9 14  1  0
  9 10  1  0
 10 11  2  0
 10 25  1  0
 11 12  1  0
 11 26  1  0
 12 13  2  0
 12 27  1  0
 13 14  1  0
 13 28  1  0
 14 15  2  0
 16 17  1  0
 16 29  1  0
 16 30  1  0
 17 31  1  0
 17 32  1  0
M  CHG  1   2   1
M  END
>  <i_m_ct_stereo_status>  (119) 
1

>  <s_m_source_file>  (119) 
/var/tmp/pbs.5076255.sched01/tmpguie9axe/40t6mruo9t.sdf

>  <i_m_source_file_index>  (119) 
7

>  <i_lp_mmshare_version>  (119) 
48012

>  <i_f3d_flags>  (119) 
0

>  <s_epik_input>  (119) 
W0NIM11OMVtDSDJdW0NIMl1OKFtDSDJdW0NIMl0xKWMobm4yKW5jKGMyMylbY0hdW2NIXVtjSF1bY0hdMw==

>  <s_epik_cmdline>  (119) 
J2VwaWtfcHl0aG9uJywgJy1waHQnLCAnMi4wJywgJy1waCcsICc3LjAnLCAnLXRuJywgJzgnLCAnLW1hJywgJzIwMCcsICctaW1hZScsICc8aW5maWxlLm1hZT4nLCAnLW9tYWUnLCAnPG91dGZpbGUubWFlPic=

>  <r_lp_tautomer_probability>  (119) 
1

>  <r_epik_Ionization_Penalty>  (119) 
0.0647498

>  <r_epik_Ionization_Penalty_Charging>  (119) 
0.0647487

>  <r_epik_Ionization_Penalty_Neutral>  (119) 
1.09346e-06

>  <r_epik_State_Penalty>  (119) 
0.0567826

>  <r_epik_Charging_Adjusted_Penalty>  (119) 
0.121531

>  <i_epik_Tot_Q>  (119) 
1

>  <i_epik_Tot_abs_Q>  (119) 
1

>  <s_lp_Force_Field>  (119) 
OPLS3e

>  <r_lp_Energy>  (119) 
45.3966

>  <b_lp_Chiralities_Consistent>  (119) 
1

>  <s_lp_Variant>  (119) 
32:0-1

>  <s_i_glide_gridfile>  (119) 
pfpi4k_grid

>  <i_i_glide_lignum>  (119) 
7

>  <i_i_glide_rotatable_bonds>  (119) 
1

>  <r_i_docking_score>  (119) 
-3.70647

>  <r_i_glide_ligand_efficiency>  (119) 
-0.218028

>  <r_i_glide_ligand_efficiency_sa>  (119) 
-0.56061

>  <r_i_glide_ligand_efficiency_ln>  (119) 
-0.966935

>  <r_i_glide_gscore>  (119) 
-3.70647

>  <r_i_glide_lipo>  (119) 
-0.0973892

>  <r_i_glide_hbond>  (119) 
0

>  <r_i_glide_metal>  (119) 
-0

>  <r_i_glide_rewards>  (119) 
-1.83894

>  <r_i_glide_evdw>  (119) 
-18.025

>  <r_i_glide_ecoul>  (119) 
-6.39543

>  <r_i_glide_erotb>  (119) 
0.322106

>  <r_i_glide_esite>  (119) 
-0.231682

>  <r_i_glide_emodel>  (119) 
-32.4007

>  <r_i_glide_energy>  (119) 
-24.4204

>  <r_i_glide_einternal>  (119) 
1.24123

>  <r_i_glide_intrahb_reward>  (119) 
-0

>  <i_i_glide_confnum>  (119) 
3

>  <i_i_glide_posenum>  (119) 
3

>  <r_i_glide_eff_state_penalty>  (119) 
0

>  <ligand_id>  (119) 
32

>  <original_smiles>  (119) 
CN1CCN(c2nnc3ccccc3n2)CC1

>  <smiles>  (119) 
[H]c1c([H])c([H])c2nc(N3C([H])([H])C([H])([H])[N+]([H])(C([H])([H])[H])C([H])([H])C3([H])[H])nnc2c1[H]

$$$$
32:0:2
     RDKit          3D

 33 35  0  0  1  0  0  0  0  0999 V2000
    1.4727  -11.4666    5.2607 C   0  0  0  0  0  0  0  0  0  0  0  0
    1.6231  -10.8262    3.9501 N   0  0  0  0  0  0  0  0  0  0  0  0
    3.0357  -10.4803    3.6705 C   0  0  0  0  0  0  0  0  0  0  0  0
    3.1892   -9.8655    2.2756 C   0  0  0  0  0  0  0  0  0  0  0  0
    2.2614   -8.7399    2.1091 N   0  0  0  0  0  0  0  0  0  0  0  0
    2.6820   -7.4912    1.6437 C   0  0  0  0  0  0  0  0  0  0  0  0
    1.7386   -6.6027    1.2796 N   0  0  0  0  0  0  0  0  0  0  0  0
    2.1358   -5.4145    0.7991 N   0  0  0  0  0  0  0  0  0  0  0  0
    3.4588   -5.1287    0.6907 C   0  0  0  0  0  0  0  0  0  0  0  0
    3.8975   -3.8862    0.1927 C   0  0  0  0  0  0  0  0  0  0  0  0
    5.2732   -3.5966    0.0861 C   0  0  0  0  0  0  0  0  0  0  0  0
    6.2257   -4.5543    0.4789 C   0  0  0  0  0  0  0  0  0  0  0  0
    5.7956   -5.7996    0.9756 C   0  0  0  0  0  0  0  0  0  0  0  0
    4.4187   -6.0960    1.0858 C   0  0  0  0  0  0  0  0  0  0  0  0
    4.0034   -7.2886    1.5633 N   0  0  0  0  0  0  0  0  0  0  0  0
    0.8570   -9.0326    2.4151 C   0  0  0  0  0  0  0  0  0  0  0  0
    0.7269   -9.6573    3.8091 C   0  0  0  0  0  0  0  0  0  0  0  0
    1.7748  -10.7927    6.0632 H   0  0  0  0  0  0  0  0  0  0  0  0
    2.0987  -12.3597    5.2932 H   0  0  0  0  0  0  0  0  0  0  0  0
    0.4391  -11.7730    5.4384 H   0  0  0  0  0  0  0  0  0  0  0  0
    3.3806   -9.7625    4.4149 H   0  0  0  0  0  0  0  0  0  0  0  0
    3.6760  -11.3622    3.7564 H   0  0  0  0  0  0  0  0  0  0  0  0
    4.2499   -9.6203    2.1436 H   0  0  0  0  0  0  0  0  0  0  0  0
    2.9661  -10.6131    1.5149 H   0  0  0  0  0  0  0  0  0  0  0  0
    3.1714   -3.1502   -0.1050 H   0  0  0  0  0  0  0  0  0  0  0  0
    5.5901   -2.6359   -0.2984 H   0  0  0  0  0  0  0  0  0  0  0  0
    7.2831   -4.3426    0.3938 H   0  0  0  0  0  0  0  0  0  0  0  0
    6.5247   -6.5372    1.2704 H   0  0  0  0  0  0  0  0  0  0  0  0
    0.2089   -8.1531    2.3688 H   0  0  0  0  0  0  0  0  0  0  0  0
    0.4725   -9.7407    1.6915 H   0  0  0  0  0  0  0  0  0  0  0  0
   -0.3123   -9.9434    3.9988 H   0  0  0  0  0  0  0  0  0  0  0  0
    0.9920   -8.9138    4.5612 H   0  0  0  0  0  0  0  0  0  0  0  0
    1.3493  -11.5033    3.2509 H   0  0  0  0  0  0  0  0  0  0  0  0
  1  2  1  0
  1 18  1  0
  1 19  1  0
  1 20  1  0
  2 17  1  0
  2  3  1  0
  2 33  1  0
  3  4  1  0
  3 21  1  0
  3 22  1  0
  4  5  1  0
  4 23  1  0
  4 24  1  0
  5  6  1  0
  5 16  1  0
  6 15  1  0
  6  7  2  0
  7  8  1  0
  8  9  2  0
  9 14  1  0
  9 10  1  0
 10 11  2  0
 10 25  1  0
 11 12  1  0
 11 26  1  0
 12 13  2  0
 12 27  1  0
 13 14  1  0
 13 28  1  0
 14 15  2  0
 16 17  1  0
 16 29  1  0
 16 30  1  0
 17 31  1  0
 17 32  1  0
M  CHG  1   2   1
M  END
>  <i_m_ct_stereo_status>  (120) 
1

>  <s_m_source_file>  (120) 
/var/tmp/pbs.5076255.sched01/tmpguie9axe/40t6mruo9t.sdf

>  <i_m_source_file_index>  (120) 
7

>  <i_lp_mmshare_version>  (120) 
48012

>  <i_f3d_flags>  (120) 
0

>  <s_epik_input>  (120) 
W0NIM11OMVtDSDJdW0NIMl1OKFtDSDJdW0NIMl0xKWMobm4yKW5jKGMyMylbY0hdW2NIXVtjSF1bY0hdMw==

>  <s_epik_cmdline>  (120) 
J2VwaWtfcHl0aG9uJywgJy1waHQnLCAnMi4wJywgJy1waCcsICc3LjAnLCAnLXRuJywgJzgnLCAnLW1hJywgJzIwMCcsICctaW1hZScsICc8aW5maWxlLm1hZT4nLCAnLW9tYWUnLCAnPG91dGZpbGUubWFlPic=

>  <r_lp_tautomer_probability>  (120) 
1

>  <r_epik_Ionization_Penalty>  (120) 
0.0647498

>  <r_epik_Ionization_Penalty_Charging>  (120) 
0.0647487

>  <r_epik_Ionization_Penalty_Neutral>  (120) 
1.09346e-06

>  <r_epik_State_Penalty>  (120) 
0.0567826

>  <r_epik_Charging_Adjusted_Penalty>  (120) 
0.121531

>  <i_epik_Tot_Q>  (120) 
1

>  <i_epik_Tot_abs_Q>  (120) 
1

>  <s_lp_Force_Field>  (120) 
OPLS3e

>  <r_lp_Energy>  (120) 
45.3966

>  <b_lp_Chiralities_Consistent>  (120) 
1

>  <s_lp_Variant>  (120) 
32:0-1

>  <s_i_glide_gridfile>  (120) 
pfpi4k_grid

>  <i_i_glide_lignum>  (120) 
7

>  <i_i_glide_rotatable_bonds>  (120) 
1

>  <r_i_docking_score>  (120) 
-3.66162

>  <r_i_glide_ligand_efficiency>  (120) 
-0.215389

>  <r_i_glide_ligand_efficiency_sa>  (120) 
-0.553826

>  <r_i_glide_ligand_efficiency_ln>  (120) 
-0.955234

>  <r_i_glide_gscore>  (120) 
-3.66162

>  <r_i_glide_lipo>  (120) 
-0.327122

>  <r_i_glide_hbond>  (120) 
0

>  <r_i_glide_metal>  (120) 
-0

>  <r_i_glide_rewards>  (120) 
-1.83894

>  <r_i_glide_evdw>  (120) 
-16.2579

>  <r_i_glide_ecoul>  (120) 
-6.02721

>  <r_i_glide_erotb>  (120) 
0.322106

>  <r_i_glide_esite>  (120) 
-0.100682

>  <r_i_glide_emodel>  (120) 
-30.6847

>  <r_i_glide_energy>  (120) 
-22.2851

>  <r_i_glide_einternal>  (120) 
0.179229

>  <r_i_glide_intrahb_reward>  (120) 
-0

>  <i_i_glide_confnum>  (120) 
1

>  <i_i_glide_posenum>  (120) 
6

>  <r_i_glide_eff_state_penalty>  (120) 
0

>  <ligand_id>  (120) 
32

>  <original_smiles>  (120) 
CN1CCN(c2nnc3ccccc3n2)CC1

>  <smiles>  (120) 
[H]c1c([H])c([H])c2nc(N3C([H])([H])C([H])([H])[N+]([H])(C([H])([H])[H])C([H])([H])C3([H])[H])nnc2c1[H]

$$$$
32:1:0
     RDKit          3D

 32 34  0  0  1  0  0  0  0  0999 V2000
    5.6374   -3.0432   -2.0689 C   0  0  0  0  0  0  0  0  0  0  0  0
    5.0722   -3.3748   -0.7696 N   0  0  0  0  0  0  0  0  0  0  0  0
    5.5088   -4.7140   -0.3727 C   0  0  0  0  0  0  0  0  0  0  0  0
    4.9324   -5.0870    1.0028 C   0  0  0  0  0  0  0  0  0  0  0  0
    3.4701   -5.0116    0.9764 N   0  0  0  0  0  0  0  0  0  0  0  0
    2.6326   -6.0633    1.3652 C   0  0  0  0  0  0  0  0  0  0  0  0
    1.3104   -5.8763    1.2343 N   0  0  0  0  0  0  0  0  0  0  0  0
    0.4762   -6.8535    1.6067 N   0  0  0  0  0  0  0  0  0  0  0  0
    0.9749   -8.0127    2.0976 C   0  0  0  0  0  0  0  0  0  0  0  0
    0.1199   -9.0592    2.4919 C   0  0  0  0  0  0  0  0  0  0  0  0
    0.6427  -10.2660    2.9989 C   0  0  0  0  0  0  0  0  0  0  0  0
    2.0359  -10.4311    3.1175 C   0  0  0  0  0  0  0  0  0  0  0  0
    2.8990   -9.3884    2.7300 C   0  0  0  0  0  0  0  0  0  0  0  0
    2.3845   -8.1775    2.2197 C   0  0  0  0  0  0  0  0  0  0  0  0
    3.2034   -7.1729    1.8427 N   0  0  0  0  0  0  0  0  0  0  0  0
    2.9874   -3.7125    0.4950 C   0  0  0  0  0  0  0  0  0  0  0  0
    3.6114   -3.3740   -0.8689 C   0  0  0  0  0  0  0  0  0  0  0  0
    5.3304   -3.7559   -2.8371 H   0  0  0  0  0  0  0  0  0  0  0  0
    6.7270   -3.0422   -2.0190 H   0  0  0  0  0  0  0  0  0  0  0  0
    5.3148   -2.0472   -2.3758 H   0  0  0  0  0  0  0  0  0  0  0  0
    5.1966   -5.4475   -1.1185 H   0  0  0  0  0  0  0  0  0  0  0  0
    6.5988   -4.7375   -0.3184 H   0  0  0  0  0  0  0  0  0  0  0  0
    5.3024   -6.0793    1.2621 H   0  0  0  0  0  0  0  0  0  0  0  0
    5.3120   -4.4112    1.7682 H   0  0  0  0  0  0  0  0  0  0  0  0
   -0.9476   -8.9437    2.3947 H   0  0  0  0  0  0  0  0  0  0  0  0
   -0.0272  -11.0575    3.2959 H   0  0  0  0  0  0  0  0  0  0  0  0
    2.4425  -11.3618    3.4960 H   0  0  0  0  0  0  0  0  0  0  0  0
    3.9680   -9.5231    2.8186 H   0  0  0  0  0  0  0  0  0  0  0  0
    1.9066   -3.6878    0.3722 H   0  0  0  0  0  0  0  0  0  0  0  0
    3.2345   -2.9456    1.2305 H   0  0  0  0  0  0  0  0  0  0  0  0
    3.2609   -2.3905   -1.1870 H   0  0  0  0  0  0  0  0  0  0  0  0
    3.2780   -4.0920   -1.6183 H   0  0  0  0  0  0  0  0  0  0  0  0
  1  2  1  0
  1 18  1  0
  1 19  1  0
  1 20  1  0
  2 17  1  0
  2  3  1  0
  3  4  1  0
  3 21  1  0
  3 22  1  0
  4  5  1  0
  4 23  1  0
  4 24  1  0
  5  6  1  0
  5 16  1  0
  6 15  1  0
  6  7  2  0
  7  8  1  0
  8  9  2  0
  9 14  1  0
  9 10  1  0
 10 11  2  0
 10 25  1  0
 11 12  1  0
 11 26  1  0
 12 13  2  0
 12 27  1  0
 13 14  1  0
 13 28  1  0
 14 15  2  0
 16 17  1  0
 16 29  1  0
 16 30  1  0
 17 31  1  0
 17 32  1  0
M  END
>  <i_m_ct_stereo_status>  (121) 
1

>  <s_m_source_file>  (121) 
/var/tmp/pbs.5076255.sched01/tmpguie9axe/40t6mruo9t.sdf

>  <i_m_source_file_index>  (121) 
8

>  <i_lp_mmshare_version>  (121) 
48012

>  <i_f3d_flags>  (121) 
0

>  <s_epik_input>  (121) 
W0NIM11OMVtDSDJdW0NIMl1OKFtDSDJdW0NIMl0xKWMobm4yKW5jKGMyMylbY0hdW2NIXVtjSF1bY0hdMw==

>  <s_epik_cmdline>  (121) 
J2VwaWtfcHl0aG9uJywgJy1waHQnLCAnMi4wJywgJy1waCcsICc3LjAnLCAnLXRuJywgJzgnLCAnLW1hJywgJzIwMCcsICctaW1hZScsICc8aW5maWxlLm1hZT4nLCAnLW9tYWUnLCAnPG91dGZpbGUubWFlPic=

>  <r_lp_tautomer_probability>  (121) 
1

>  <r_epik_Ionization_Penalty>  (121) 
1.34915

>  <r_epik_Ionization_Penalty_Charging>  (121) 
0

>  <r_epik_Ionization_Penalty_Neutral>  (121) 
1.34915

>  <r_epik_State_Penalty>  (121) 
1.42156

>  <r_epik_Charging_Adjusted_Penalty>  (121) 
1.42156

>  <i_epik_Tot_Q>  (121) 
0

>  <i_epik_Tot_abs_Q>  (121) 
0

>  <s_lp_Force_Field>  (121) 
OPLS3e

>  <r_lp_Energy>  (121) 
50.2656

>  <b_lp_Chiralities_Consistent>  (121) 
1

>  <s_lp_Variant>  (121) 
32:0-2

>  <s_i_glide_gridfile>  (121) 
pfpi4k_grid

>  <i_i_glide_lignum>  (121) 
8

>  <i_i_glide_rotatable_bonds>  (121) 
1

>  <r_i_docking_score>  (121) 
-3.72723

>  <r_i_glide_ligand_efficiency>  (121) 
-0.219249

>  <r_i_glide_ligand_efficiency_sa>  (121) 
-0.56375

>  <r_i_glide_ligand_efficiency_ln>  (121) 
-0.972351

>  <r_i_glide_gscore>  (121) 
-3.72723

>  <r_i_glide_lipo>  (121) 
-0.410606

>  <r_i_glide_hbond>  (121) 
0

>  <r_i_glide_metal>  (121) 
-0

>  <r_i_glide_rewards>  (121) 
-1.84581

>  <r_i_glide_evdw>  (121) 
-19.2541

>  <r_i_glide_ecoul>  (121) 
-4.16871

>  <r_i_glide_erotb>  (121) 
0.324512

>  <r_i_glide_esite>  (121) 
-0.207313

>  <r_i_glide_emodel>  (121) 
-29.7341

>  <r_i_glide_energy>  (121) 
-23.4228

>  <r_i_glide_einternal>  (121) 
0.00458044

>  <r_i_glide_intrahb_reward>  (121) 
-0

>  <i_i_glide_confnum>  (121) 
1

>  <i_i_glide_posenum>  (121) 
36

>  <r_i_glide_eff_state_penalty>  (121) 
0

>  <ligand_id>  (121) 
32

>  <original_smiles>  (121) 
CN1CCN(c2nnc3ccccc3n2)CC1

>  <smiles>  (121) 
[H]c1c([H])c([H])c2nc(N3C([H])([H])C([H])([H])N(C([H])([H])[H])C([H])([H])C3([H])[H])nnc2c1[H]

$$$$
32:1:1
     RDKit          3D

 32 34  0  0  1  0  0  0  0  0999 V2000
    6.3801   -2.2064    0.9324 C   0  0  0  0  0  0  0  0  0  0  0  0
    5.5757   -3.2743    0.3536 N   0  0  0  0  0  0  0  0  0  0  0  0
    5.8984   -4.5463    1.0039 C   0  0  0  0  0  0  0  0  0  0  0  0
    5.0609   -5.6867    0.3922 C   0  0  0  0  0  0  0  0  0  0  0  0
    3.6324   -5.3834    0.5004 N   0  0  0  0  0  0  0  0  0  0  0  0
    2.6890   -6.2563    1.0439 C   0  0  0  0  0  0  0  0  0  0  0  0
    1.4049   -5.8791    0.9606 N   0  0  0  0  0  0  0  0  0  0  0  0
    0.4631   -6.6732    1.4835 N   0  0  0  0  0  0  0  0  0  0  0  0
    0.8150   -7.8403    2.0763 C   0  0  0  0  0  0  0  0  0  0  0  0
   -0.1606   -8.6893    2.6403 C   0  0  0  0  0  0  0  0  0  0  0  0
    0.2086   -9.9040    3.2493 C   0  0  0  0  0  0  0  0  0  0  0  0
    1.5618  -10.2847    3.2935 C   0  0  0  0  0  0  0  0  0  0  0  0
    2.5455   -9.4442    2.7384 C   0  0  0  0  0  0  0  0  0  0  0  0
    2.1860   -8.2197    2.1323 C   0  0  0  0  0  0  0  0  0  0  0  0
    3.1209   -7.3944    1.6059 N   0  0  0  0  0  0  0  0  0  0  0  0
    3.2831   -4.0731   -0.0564 C   0  0  0  0  0  0  0  0  0  0  0  0
    4.1586   -2.9787    0.5738 C   0  0  0  0  0  0  0  0  0  0  0  0
    7.4411   -2.4017    0.7710 H   0  0  0  0  0  0  0  0  0  0  0  0
    6.2087   -2.1087    2.0068 H   0  0  0  0  0  0  0  0  0  0  0  0
    6.1410   -1.2507    0.4622 H   0  0  0  0  0  0  0  0  0  0  0  0
    6.9605   -4.7589    0.8717 H   0  0  0  0  0  0  0  0  0  0  0  0
    5.7172   -4.4848    2.0774 H   0  0  0  0  0  0  0  0  0  0  0  0
    5.3189   -5.8197   -0.6587 H   0  0  0  0  0  0  0  0  0  0  0  0
    5.3316   -6.6191    0.8863 H   0  0  0  0  0  0  0  0  0  0  0  0
   -1.2003   -8.4103    2.6027 H   0  0  0  0  0  0  0  0  0  0  0  0
   -0.5526  -10.5441    3.6764 H   0  0  0  0  0  0  0  0  0  0  0  0
    1.8463  -11.2216    3.7559 H   0  0  0  0  0  0  0  0  0  0  0  0
    3.5848   -9.7385    2.7766 H   0  0  0  0  0  0  0  0  0  0  0  0
    3.4090   -4.1036   -1.1403 H   0  0  0  0  0  0  0  0  0  0  0  0
    2.2449   -3.7935    0.1294 H   0  0  0  0  0  0  0  0  0  0  0  0
    3.9426   -2.8979    1.6406 H   0  0  0  0  0  0  0  0  0  0  0  0
    3.9022   -2.0194    0.1243 H   0  0  0  0  0  0  0  0  0  0  0  0
  1  2  1  0
  1 18  1  0
  1 19  1  0
  1 20  1  0
  2 17  1  0
  2  3  1  0
  3  4  1  0
  3 21  1  0
  3 22  1  0
  4  5  1  0
  4 23  1  0
  4 24  1  0
  5  6  1  0
  5 16  1  0
  6 15  1  0
  6  7  2  0
  7  8  1  0
  8  9  2  0
  9 14  1  0
  9 10  1  0
 10 11  2  0
 10 25  1  0
 11 12  1  0
 11 26  1  0
 12 13  2  0
 12 27  1  0
 13 14  1  0
 13 28  1  0
 14 15  2  0
 16 17  1  0
 16 29  1  0
 16 30  1  0
 17 31  1  0
 17 32  1  0
M  END
>  <i_m_ct_stereo_status>  (122) 
1

>  <s_m_source_file>  (122) 
/var/tmp/pbs.5076255.sched01/tmpguie9axe/40t6mruo9t.sdf

>  <i_m_source_file_index>  (122) 
8

>  <i_lp_mmshare_version>  (122) 
48012

>  <i_f3d_flags>  (122) 
0

>  <s_epik_input>  (122) 
W0NIM11OMVtDSDJdW0NIMl1OKFtDSDJdW0NIMl0xKWMobm4yKW5jKGMyMylbY0hdW2NIXVtjSF1bY0hdMw==

>  <s_epik_cmdline>  (122) 
J2VwaWtfcHl0aG9uJywgJy1waHQnLCAnMi4wJywgJy1waCcsICc3LjAnLCAnLXRuJywgJzgnLCAnLW1hJywgJzIwMCcsICctaW1hZScsICc8aW5maWxlLm1hZT4nLCAnLW9tYWUnLCAnPG91dGZpbGUubWFlPic=

>  <r_lp_tautomer_probability>  (122) 
1

>  <r_epik_Ionization_Penalty>  (122) 
1.34915

>  <r_epik_Ionization_Penalty_Charging>  (122) 
0

>  <r_epik_Ionization_Penalty_Neutral>  (122) 
1.34915

>  <r_epik_State_Penalty>  (122) 
1.42156

>  <r_epik_Charging_Adjusted_Penalty>  (122) 
1.42156

>  <i_epik_Tot_Q>  (122) 
0

>  <i_epik_Tot_abs_Q>  (122) 
0

>  <s_lp_Force_Field>  (122) 
OPLS3e

>  <r_lp_Energy>  (122) 
50.2656

>  <b_lp_Chiralities_Consistent>  (122) 
1

>  <s_lp_Variant>  (122) 
32:0-2

>  <s_i_glide_gridfile>  (122) 
pfpi4k_grid

>  <i_i_glide_lignum>  (122) 
8

>  <i_i_glide_rotatable_bonds>  (122) 
1

>  <r_i_docking_score>  (122) 
-3.7253

>  <r_i_glide_ligand_efficiency>  (122) 
-0.219135

>  <r_i_glide_ligand_efficiency_sa>  (122) 
-0.563459

>  <r_i_glide_ligand_efficiency_ln>  (122) 
-0.971848

>  <r_i_glide_gscore>  (122) 
-3.7253

>  <r_i_glide_lipo>  (122) 
-0.382606

>  <r_i_glide_hbond>  (122) 
0

>  <r_i_glide_metal>  (122) 
-0

>  <r_i_glide_rewards>  (122) 
-1.84581

>  <r_i_glide_evdw>  (122) 
-20.0519

>  <r_i_glide_ecoul>  (122) 
-4.03054

>  <r_i_glide_erotb>  (122) 
0.324512

>  <r_i_glide_esite>  (122) 
-0.214219

>  <r_i_glide_emodel>  (122) 
-30.2445

>  <r_i_glide_energy>  (122) 
-24.0825

>  <r_i_glide_einternal>  (122) 
0.240327

>  <r_i_glide_intrahb_reward>  (122) 
-0

>  <i_i_glide_confnum>  (122) 
4

>  <i_i_glide_posenum>  (122) 
21

>  <r_i_glide_eff_state_penalty>  (122) 
0

>  <ligand_id>  (122) 
32

>  <original_smiles>  (122) 
CN1CCN(c2nnc3ccccc3n2)CC1

>  <smiles>  (122) 
[H]c1c([H])c([H])c2nc(N3C([H])([H])C([H])([H])N(C([H])([H])[H])C([H])([H])C3([H])[H])nnc2c1[H]

$$$$
32:1:2
     RDKit          3D

 32 34  0  0  1  0  0  0  0  0999 V2000
    5.0098   -1.0450    0.5861 C   0  0  0  0  0  0  0  0  0  0  0  0
    4.7756   -2.4206    0.1707 N   0  0  0  0  0  0  0  0  0  0  0  0
    3.3463   -2.6003   -0.0938 C   0  0  0  0  0  0  0  0  0  0  0  0
    3.0771   -4.0404   -0.5567 C   0  0  0  0  0  0  0  0  0  0  0  0
    3.5347   -4.9964    0.4591 N   0  0  0  0  0  0  0  0  0  0  0  0
    2.7248   -6.0058    0.9820 C   0  0  0  0  0  0  0  0  0  0  0  0
    1.4046   -5.8700    0.7951 N   0  0  0  0  0  0  0  0  0  0  0  0
    0.5815   -6.8001    1.2934 N   0  0  0  0  0  0  0  0  0  0  0  0
    1.0886   -7.8633    1.9620 C   0  0  0  0  0  0  0  0  0  0  0  0
    0.2418   -8.8546    2.4920 C   0  0  0  0  0  0  0  0  0  0  0  0
    0.7662   -9.9644    3.1804 C   0  0  0  0  0  0  0  0  0  0  0  0
    2.1610  -10.0896    3.3394 C   0  0  0  0  0  0  0  0  0  0  0  0
    3.0181   -9.1013    2.8130 C   0  0  0  0  0  0  0  0  0  0  0  0
    2.4983   -7.9845    2.1250 C   0  0  0  0  0  0  0  0  0  0  0  0
    3.3093   -7.0248    1.6228 N   0  0  0  0  0  0  0  0  0  0  0  0
    4.9389   -4.7997    0.8198 C   0  0  0  0  0  0  0  0  0  0  0  0
    5.1784   -3.3356    1.2413 C   0  0  0  0  0  0  0  0  0  0  0  0
    4.4488   -0.7969    1.4887 H   0  0  0  0  0  0  0  0  0  0  0  0
    4.7063   -0.3558   -0.2028 H   0  0  0  0  0  0  0  0  0  0  0  0
    6.0697   -0.8828    0.7819 H   0  0  0  0  0  0  0  0  0  0  0  0
    2.7569   -2.3762    0.7971 H   0  0  0  0  0  0  0  0  0  0  0  0
    3.0211   -1.9080   -0.8726 H   0  0  0  0  0  0  0  0  0  0  0  0
    2.0144   -4.1335   -0.7815 H   0  0  0  0  0  0  0  0  0  0  0  0
    3.5995   -4.2480   -1.4910 H   0  0  0  0  0  0  0  0  0  0  0  0
   -0.8238   -8.7685    2.3586 H   0  0  0  0  0  0  0  0  0  0  0  0
    0.0980  -10.7163    3.5796 H   0  0  0  0  0  0  0  0  0  0  0  0
    2.5720  -10.9430    3.8643 H   0  0  0  0  0  0  0  0  0  0  0  0
    4.0863   -9.2020    2.9404 H   0  0  0  0  0  0  0  0  0  0  0  0
    5.2415   -5.4534    1.6371 H   0  0  0  0  0  0  0  0  0  0  0  0
    5.5657   -5.0574   -0.0324 H   0  0  0  0  0  0  0  0  0  0  0  0
    6.2360   -3.1858    1.4647 H   0  0  0  0  0  0  0  0  0  0  0  0
    4.6208   -3.1165    2.1523 H   0  0  0  0  0  0  0  0  0  0  0  0
  1  2  1  0
  1 18  1  0
  1 19  1  0
  1 20  1  0
  2 17  1  0
  2  3  1  0
  3  4  1  0
  3 21  1  0
  3 22  1  0
  4  5  1  0
  4 23  1  0
  4 24  1  0
  5  6  1  0
  5 16  1  0
  6 15  1  0
  6  7  2  0
  7  8  1  0
  8  9  2  0
  9 14  1  0
  9 10  1  0
 10 11  2  0
 10 25  1  0
 11 12  1  0
 11 26  1  0
 12 13  2  0
 12 27  1  0
 13 14  1  0
 13 28  1  0
 14 15  2  0
 16 17  1  0
 16 29  1  0
 16 30  1  0
 17 31  1  0
 17 32  1  0
M  END
>  <i_m_ct_stereo_status>  (123) 
1

>  <s_m_source_file>  (123) 
/var/tmp/pbs.5076255.sched01/tmpguie9axe/40t6mruo9t.sdf

>  <i_m_source_file_index>  (123) 
8

>  <i_lp_mmshare_version>  (123) 
48012

>  <i_f3d_flags>  (123) 
0

>  <s_epik_input>  (123) 
W0NIM11OMVtDSDJdW0NIMl1OKFtDSDJdW0NIMl0xKWMobm4yKW5jKGMyMylbY0hdW2NIXVtjSF1bY0hdMw==

>  <s_epik_cmdline>  (123) 
J2VwaWtfcHl0aG9uJywgJy1waHQnLCAnMi4wJywgJy1waCcsICc3LjAnLCAnLXRuJywgJzgnLCAnLW1hJywgJzIwMCcsICctaW1hZScsICc8aW5maWxlLm1hZT4nLCAnLW9tYWUnLCAnPG91dGZpbGUubWFlPic=

>  <r_lp_tautomer_probability>  (123) 
1

>  <r_epik_Ionization_Penalty>  (123) 
1.34915

>  <r_epik_Ionization_Penalty_Charging>  (123) 
0

>  <r_epik_Ionization_Penalty_Neutral>  (123) 
1.34915

>  <r_epik_State_Penalty>  (123) 
1.42156

>  <r_epik_Charging_Adjusted_Penalty>  (123) 
1.42156

>  <i_epik_Tot_Q>  (123) 
0

>  <i_epik_Tot_abs_Q>  (123) 
0

>  <s_lp_Force_Field>  (123) 
OPLS3e

>  <r_lp_Energy>  (123) 
50.2656

>  <b_lp_Chiralities_Consistent>  (123) 
1

>  <s_lp_Variant>  (123) 
32:0-2

>  <s_i_glide_gridfile>  (123) 
pfpi4k_grid

>  <i_i_glide_lignum>  (123) 
8

>  <i_i_glide_rotatable_bonds>  (123) 
1

>  <r_i_docking_score>  (123) 
-3.66275

>  <r_i_glide_ligand_efficiency>  (123) 
-0.215456

>  <r_i_glide_ligand_efficiency_sa>  (123) 
-0.553997

>  <r_i_glide_ligand_efficiency_ln>  (123) 
-0.955529

>  <r_i_glide_gscore>  (123) 
-3.66275

>  <r_i_glide_lipo>  (123) 
-0.238832

>  <r_i_glide_hbond>  (123) 
0

>  <r_i_glide_metal>  (123) 
-0

>  <r_i_glide_rewards>  (123) 
-1.84581

>  <r_i_glide_evdw>  (123) 
-19.4257

>  <r_i_glide_ecoul>  (123) 
-4.72721

>  <r_i_glide_erotb>  (123) 
0.324512

>  <r_i_glide_esite>  (123) 
-0.22225

>  <r_i_glide_emodel>  (123) 
-30.1802

>  <r_i_glide_energy>  (123) 
-24.1529

>  <r_i_glide_einternal>  (123) 
0.310089

>  <r_i_glide_intrahb_reward>  (123) 
-0

>  <i_i_glide_confnum>  (123) 
2

>  <i_i_glide_posenum>  (123) 
24

>  <r_i_glide_eff_state_penalty>  (123) 
0

>  <ligand_id>  (123) 
32

>  <original_smiles>  (123) 
CN1CCN(c2nnc3ccccc3n2)CC1

>  <smiles>  (123) 
[H]c1c([H])c([H])c2nc(N3C([H])([H])C([H])([H])N(C([H])([H])[H])C([H])([H])C3([H])[H])nnc2c1[H]

$$$$
33:0:0
     RDKit          3D

 46 48  0  0  1  0  0  0  0  0999 V2000
    3.4672   -1.6566   -4.2648 C   0  0  0  0  0  0  0  0  0  0  0  0
    3.7389   -2.3284   -2.9123 C   0  0  2  0  0  0  0  0  0  0  0  0
    2.5523   -3.2094   -2.4887 C   0  0  0  0  0  0  0  0  0  0  0  0
    2.4685   -3.4575   -0.9540 C   0  0  1  0  0  0  0  0  0  0  0  0
    1.8150   -4.6801   -0.7240 O   0  0  0  0  0  0  0  0  0  0  0  0
    3.8231   -3.3902   -0.2033 C   0  0  2  0  0  0  0  0  0  0  0  0
    3.7080   -3.4792    1.3686 C   0  0  0  0  0  0  0  0  0  0  0  0
    2.2974   -3.3058    1.9859 C   0  0  0  0  0  0  0  0  0  0  0  0
    4.1874   -4.8635    1.8744 C   0  0  0  0  0  0  0  0  0  0  0  0
    4.5510   -2.2801    1.8733 C   0  0  1  0  0  0  0  0  0  0  0  0
    6.0399   -2.6059    2.0218 C   0  0  0  0  0  0  0  0  0  0  0  0
    6.7010   -3.0114    0.7009 C   0  0  0  0  0  0  0  0  0  0  0  0
    7.6214   -3.8042    0.6741 O   0  0  0  0  0  0  0  0  0  0  0  0
    6.1702   -2.3067   -0.5648 C   0  0  1  0  0  0  0  0  0  0  0  0
    6.7588   -2.9712   -1.8218 C   0  0  0  0  0  0  0  0  0  0  0  0
    4.6108   -2.0626   -0.5138 C   0  0  1  0  0  0  0  0  0  0  0  0
    4.0614   -1.3498   -1.7845 C   0  0  1  0  0  0  0  0  0  0  0  0
    4.9686   -0.3597   -2.2259 O   0  0  0  0  0  0  0  0  0  0  0  0
    4.4080   -1.2167    0.7717 C   0  0  1  0  0  0  0  0  0  0  0  0
    3.1875   -0.5004    0.8721 O   0  0  0  0  0  0  0  0  0  0  0  0
    2.6121   -0.9857   -4.2264 H   0  0  0  0  0  0  0  0  0  0  0  0
    3.2657   -2.4434   -4.9855 H   0  0  0  0  0  0  0  0  0  0  0  0
    4.3340   -1.0943   -4.6150 H   0  0  0  0  0  0  0  0  0  0  0  0
    4.5724   -2.9931   -3.0864 H   0  0  0  0  0  0  0  0  0  0  0  0
    1.6029   -2.8289   -2.8668 H   0  0  0  0  0  0  0  0  0  0  0  0
    2.6967   -4.1299   -3.0472 H   0  0  0  0  0  0  0  0  0  0  0  0
    1.8343   -2.6797   -0.5402 H   0  0  0  0  0  0  0  0  0  0  0  0
    2.2306   -5.3205   -1.2908 H   0  0  0  0  0  0  0  0  0  0  0  0
    4.4206   -4.2375   -0.5512 H   0  0  0  0  0  0  0  0  0  0  0  0
    2.3369   -3.2172    3.0742 H   0  0  0  0  0  0  0  0  0  0  0  0
    1.6839   -4.1800    1.7823 H   0  0  0  0  0  0  0  0  0  0  0  0
    1.7716   -2.4233    1.6247 H   0  0  0  0  0  0  0  0  0  0  0  0
    4.2521   -4.8952    2.9660 H   0  0  0  0  0  0  0  0  0  0  0  0
    5.1600   -5.1505    1.4738 H   0  0  0  0  0  0  0  0  0  0  0  0
    3.4916   -5.6449    1.5621 H   0  0  0  0  0  0  0  0  0  0  0  0
    4.2019   -1.8989    2.8369 H   0  0  0  0  0  0  0  0  0  0  0  0
    6.5698   -1.7308    2.3895 H   0  0  0  0  0  0  0  0  0  0  0  0
    6.1962   -3.3963    2.7538 H   0  0  0  0  0  0  0  0  0  0  0  0
    6.6366   -1.3273   -0.5174 H   0  0  0  0  0  0  0  0  0  0  0  0
    7.8421   -3.0934   -1.7521 H   0  0  0  0  0  0  0  0  0  0  0  0
    6.6066   -2.3695   -2.7118 H   0  0  0  0  0  0  0  0  0  0  0  0
    6.3062   -3.9385   -2.0012 H   0  0  0  0  0  0  0  0  0  0  0  0
    3.1252   -0.8407   -1.5803 H   0  0  0  0  0  0  0  0  0  0  0  0
    4.9022    0.3756   -1.6616 H   0  0  0  0  0  0  0  0  0  0  0  0
    5.1858   -0.4597    0.8803 H   0  0  0  0  0  0  0  0  0  0  0  0
    2.4882   -0.9720    0.4313 H   0  0  0  0  0  0  0  0  0  0  0  0
  1  2  1  0
  1 21  1  0
  1 22  1  0
  1 23  1  0
  2 17  1  0
  2  3  1  0
  2 24  1  6
  3  4  1  0
  3 25  1  0
  3 26  1  0
  4  5  1  0
  4  6  1  0
  4 27  1  1
  5 28  1  0
  6 16  1  0
  6  7  1  0
  6 29  1  6
  7  8  1  0
  7  9  1  0
  7 10  1  0
  8 30  1  0
  8 31  1  0
  8 32  1  0
  9 33  1  0
  9 34  1  0
  9 35  1  0
 10 19  1  0
 10 11  1  0
 10 36  1  1
 11 12  1  0
 11 37  1  0
 11 38  1  0
 12 13  2  0
 12 14  1  0
 14 15  1  0
 16 14  1  6
 14 39  1  1
 15 40  1  0
 15 41  1  0
 15 42  1  0
 16 17  1  0
 16 19  1  0
 17 18  1  0
 17 43  1  1
 18 44  1  0
 19 20  1  0
 19 45  1  1
 20 46  1  0
M  END
>  <i_m_ct_stereo_status>  (124) 
1

>  <s_m_source_file>  (124) 
/var/tmp/pbs.5076255.sched01/tmpguie9axe/40t6mruo9t.sdf

>  <i_m_source_file_index>  (124) 
9

>  <i_lp_mmshare_version>  (124) 
48012

>  <i_f3d_flags>  (124) 
0

>  <s_epik_input>  (124) 
W09IXVtDQEhdMVtDQEhdKFtDSDNdKVtDSDJdW0NAQEhdKFtPSF0pW0NAQEhdKFtDQF0xMjMpQyhbQ0gzXSkoW0NIM10pW0NASF0oW0NAQEhdM1tPSF0pW0NIMl1DKD1PKVtDQEhdMltDSDNd

>  <s_epik_cmdline>  (124) 
J2VwaWtfcHl0aG9uJywgJy1waHQnLCAnMi4wJywgJy1waCcsICc3LjAnLCAnLXRuJywgJzgnLCAnLW1hJywgJzIwMCcsICctaW1hZScsICc8aW5maWxlLm1hZT4nLCAnLW9tYWUnLCAnPG91dGZpbGUubWFlPic=

>  <r_lp_tautomer_probability>  (124) 
1

>  <r_epik_Ionization_Penalty>  (124) 
9.03583e-07

>  <r_epik_Ionization_Penalty_Charging>  (124) 
0

>  <r_epik_Ionization_Penalty_Neutral>  (124) 
9.03583e-07

>  <r_epik_State_Penalty>  (124) 
-0

>  <r_epik_Charging_Adjusted_Penalty>  (124) 
0

>  <i_epik_Tot_Q>  (124) 
0

>  <i_epik_Tot_abs_Q>  (124) 
0

>  <s_lp_Force_Field>  (124) 
OPLS3e

>  <r_lp_Energy>  (124) 
39.6063

>  <b_lp_Chiralities_Consistent>  (124) 
1

>  <s_lp_Variant>  (124) 
33:0-1

>  <s_i_glide_gridfile>  (124) 
pfpi4k_grid

>  <i_i_glide_lignum>  (124) 
9

>  <i_i_glide_rotatable_bonds>  (124) 
3

>  <r_i_docking_score>  (124) 
-5.04714

>  <r_i_glide_ligand_efficiency>  (124) 
-0.252357

>  <r_i_glide_ligand_efficiency_sa>  (124) 
-0.685003

>  <r_i_glide_ligand_efficiency_ln>  (124) 
-1.26313

>  <r_i_glide_gscore>  (124) 
-5.04714

>  <r_i_glide_lipo>  (124) 
-0.269655

>  <r_i_glide_hbond>  (124) 
-0.688905

>  <r_i_glide_metal>  (124) 
-0

>  <r_i_glide_rewards>  (124) 
-1.60569

>  <r_i_glide_evdw>  (124) 
-15.8743

>  <r_i_glide_ecoul>  (124) 
-11.2612

>  <r_i_glide_erotb>  (124) 
0

>  <r_i_glide_esite>  (124) 
0

>  <r_i_glide_emodel>  (124) 
-33.8751

>  <r_i_glide_energy>  (124) 
-27.1355

>  <r_i_glide_einternal>  (124) 
1.39442

>  <r_i_glide_intrahb_reward>  (124) 
-0

>  <i_i_glide_confnum>  (124) 
1

>  <i_i_glide_posenum>  (124) 
20

>  <r_i_glide_eff_state_penalty>  (124) 
0

>  <ligand_id>  (124) 
33

>  <original_smiles>  (124) 
CC1CC(O)C2C(C)(C)C3CC(=O)C(C)C2(C1O)C3O

>  <smiles>  (124) 
[H]OC1([H])C([H])([H])C([H])(C([H])([H])[H])C([H])(O[H])C23C([H])(O[H])C([H])(C([H])([H])C(=O)C2([H])C([H])([H])[H])C(C([H])([H])[H])(C([H])([H])[H])C13[H]

$$$$
33:0:1
     RDKit          3D

 46 48  0  0  1  0  0  0  0  0999 V2000
    3.3690   -1.5610   -4.2860 C   0  0  0  0  0  0  0  0  0  0  0  0
    3.6616   -2.2970   -2.9726 C   0  0  2  0  0  0  0  0  0  0  0  0
    2.4631   -3.1357   -2.4984 C   0  0  0  0  0  0  0  0  0  0  0  0
    2.4882   -3.4442   -0.9716 C   0  0  1  0  0  0  0  0  0  0  0  0
    1.8123   -4.6589   -0.7343 O   0  0  0  0  0  0  0  0  0  0  0  0
    3.8954   -3.4813   -0.3291 C   0  0  2  0  0  0  0  0  0  0  0  0
    3.9029   -3.6448    1.2369 C   0  0  0  0  0  0  0  0  0  0  0  0
    2.5559   -3.4077    1.9705 C   0  0  0  0  0  0  0  0  0  0  0  0
    4.3367   -5.0769    1.6417 C   0  0  0  0  0  0  0  0  0  0  0  0
    4.8763   -2.5326    1.7021 C   0  0  1  0  0  0  0  0  0  0  0  0
    6.3479   -2.9625    1.6864 C   0  0  0  0  0  0  0  0  0  0  0  0
    6.8677   -3.3345    0.3024 C   0  0  0  0  0  0  0  0  0  0  0  0
    7.7360   -4.1832    0.1690 O   0  0  0  0  0  0  0  0  0  0  0  0
    6.2706   -2.5374   -0.8661 C   0  0  1  0  0  0  0  0  0  0  0  0
    6.6779   -3.1997   -2.1892 C   0  0  0  0  0  0  0  0  0  0  0  0
    4.7401   -2.1929   -0.6508 C   0  0  1  0  0  0  0  0  0  0  0  0
    4.1198   -1.3863   -1.8349 C   0  0  1  0  0  0  0  0  0  0  0  0
    5.0126   -0.4290   -2.3209 O   0  0  0  0  0  0  0  0  0  0  0  0
    4.7120   -1.3981    0.6811 C   0  0  1  0  0  0  0  0  0  0  0  0
    3.5543   -0.6241    0.9298 O   0  0  0  0  0  0  0  0  0  0  0  0
    2.5283   -0.8727   -4.1815 H   0  0  0  0  0  0  0  0  0  0  0  0
    3.1246   -2.3278   -5.0114 H   0  0  0  0  0  0  0  0  0  0  0  0
    4.2252   -1.0058   -4.6715 H   0  0  0  0  0  0  0  0  0  0  0  0
    4.4260   -3.0113   -3.2406 H   0  0  0  0  0  0  0  0  0  0  0  0
    1.5097   -2.6786   -2.7694 H   0  0  0  0  0  0  0  0  0  0  0  0
    2.4786   -4.0565   -3.0811 H   0  0  0  0  0  0  0  0  0  0  0  0
    1.9289   -2.6551   -0.4831 H   0  0  0  0  0  0  0  0  0  0  0  0
    2.2256   -5.2954   -1.3217 H   0  0  0  0  0  0  0  0  0  0  0  0
    4.4057   -4.3403   -0.7704 H   0  0  0  0  0  0  0  0  0  0  0  0
    2.6974   -3.3800    3.0528 H   0  0  0  0  0  0  0  0  0  0  0  0
    1.8461   -4.2115    1.7808 H   0  0  0  0  0  0  0  0  0  0  0  0
    2.0647   -2.4747    1.6995 H   0  0  0  0  0  0  0  0  0  0  0  0
    4.4948   -5.1592    2.7192 H   0  0  0  0  0  0  0  0  0  0  0  0
    5.2520   -5.4055    1.1487 H   0  0  0  0  0  0  0  0  0  0  0  0
    3.5696   -5.8017    1.3669 H   0  0  0  0  0  0  0  0  0  0  0  0
    4.6527   -2.1817    2.7122 H   0  0  0  0  0  0  0  0  0  0  0  0
    6.9499   -2.1220    2.0176 H   0  0  0  0  0  0  0  0  0  0  0  0
    6.5267   -3.7847    2.3725 H   0  0  0  0  0  0  0  0  0  0  0  0
    6.8130   -1.5964   -0.8230 H   0  0  0  0  0  0  0  0  0  0  0  0
    7.7566   -3.3821   -2.2080 H   0  0  0  0  0  0  0  0  0  0  0  0
    6.4841   -2.6058   -3.0704 H   0  0  0  0  0  0  0  0  0  0  0  0
    6.1664   -4.1509   -2.3307 H   0  0  0  0  0  0  0  0  0  0  0  0
    3.2345   -0.8433   -1.5135 H   0  0  0  0  0  0  0  0  0  0  0  0
    5.2218   -0.6502   -3.2141 H   0  0  0  0  0  0  0  0  0  0  0  0
    5.5460   -0.6934    0.7460 H   0  0  0  0  0  0  0  0  0  0  0  0
    2.7935   -1.0811    0.5899 H   0  0  0  0  0  0  0  0  0  0  0  0
  1  2  1  0
  1 21  1  0
  1 22  1  0
  1 23  1  0
  2 17  1  0
  2  3  1  0
  2 24  1  6
  3  4  1  0
  3 25  1  0
  3 26  1  0
  4  5  1  0
  4  6  1  0
  4 27  1  1
  5 28  1  0
  6 16  1  0
  6  7  1  0
  6 29  1  6
  7  8  1  0
  7  9  1  0
  7 10  1  0
  8 30  1  0
  8 31  1  0
  8 32  1  0
  9 33  1  0
  9 34  1  0
  9 35  1  0
 10 19  1  0
 10 11  1  0
 10 36  1  1
 11 12  1  0
 11 37  1  0
 11 38  1  0
 12 13  2  0
 12 14  1  0
 14 15  1  0
 16 14  1  6
 14 39  1  6
 15 40  1  0
 15 41  1  0
 15 42  1  0
 16 17  1  0
 16 19  1  0
 17 18  1  0
 17 43  1  1
 18 44  1  0
 19 20  1  0
 19 45  1  6
 20 46  1  0
M  END
>  <i_m_ct_stereo_status>  (125) 
1

>  <s_m_source_file>  (125) 
/var/tmp/pbs.5076255.sched01/tmpguie9axe/40t6mruo9t.sdf

>  <i_m_source_file_index>  (125) 
9

>  <i_lp_mmshare_version>  (125) 
48012

>  <i_f3d_flags>  (125) 
0

>  <s_epik_input>  (125) 
W09IXVtDQEhdMVtDQEhdKFtDSDNdKVtDSDJdW0NAQEhdKFtPSF0pW0NAQEhdKFtDQF0xMjMpQyhbQ0gzXSkoW0NIM10pW0NASF0oW0NAQEhdM1tPSF0pW0NIMl1DKD1PKVtDQEhdMltDSDNd

>  <s_epik_cmdline>  (125) 
J2VwaWtfcHl0aG9uJywgJy1waHQnLCAnMi4wJywgJy1waCcsICc3LjAnLCAnLXRuJywgJzgnLCAnLW1hJywgJzIwMCcsICctaW1hZScsICc8aW5maWxlLm1hZT4nLCAnLW9tYWUnLCAnPG91dGZpbGUubWFlPic=

>  <r_lp_tautomer_probability>  (125) 
1

>  <r_epik_Ionization_Penalty>  (125) 
9.03583e-07

>  <r_epik_Ionization_Penalty_Charging>  (125) 
0

>  <r_epik_Ionization_Penalty_Neutral>  (125) 
9.03583e-07

>  <r_epik_State_Penalty>  (125) 
-0

>  <r_epik_Charging_Adjusted_Penalty>  (125) 
0

>  <i_epik_Tot_Q>  (125) 
0

>  <i_epik_Tot_abs_Q>  (125) 
0

>  <s_lp_Force_Field>  (125) 
OPLS3e

>  <r_lp_Energy>  (125) 
39.6063

>  <b_lp_Chiralities_Consistent>  (125) 
1

>  <s_lp_Variant>  (125) 
33:0-1

>  <s_i_glide_gridfile>  (125) 
pfpi4k_grid

>  <i_i_glide_lignum>  (125) 
9

>  <i_i_glide_rotatable_bonds>  (125) 
3

>  <r_i_docking_score>  (125) 
-4.12062

>  <r_i_glide_ligand_efficiency>  (125) 
-0.206031

>  <r_i_glide_ligand_efficiency_sa>  (125) 
-0.559254

>  <r_i_glide_ligand_efficiency_ln>  (125) 
-1.03125

>  <r_i_glide_gscore>  (125) 
-4.12062

>  <r_i_glide_lipo>  (125) 
-0.353799

>  <r_i_glide_hbond>  (125) 
-0.325792

>  <r_i_glide_metal>  (125) 
-0

>  <r_i_glide_rewards>  (125) 
-1.65108

>  <r_i_glide_evdw>  (125) 
-16.7823

>  <r_i_glide_ecoul>  (125) 
-6.33883

>  <r_i_glide_erotb>  (125) 
0

>  <r_i_glide_esite>  (125) 
0

>  <r_i_glide_emodel>  (125) 
-28.1266

>  <r_i_glide_energy>  (125) 
-23.1211

>  <r_i_glide_einternal>  (125) 
1.90016

>  <r_i_glide_intrahb_reward>  (125) 
-0

>  <i_i_glide_confnum>  (125) 
1

>  <i_i_glide_posenum>  (125) 
1

>  <r_i_glide_eff_state_penalty>  (125) 
0

>  <ligand_id>  (125) 
33

>  <original_smiles>  (125) 
CC1CC(O)C2C(C)(C)C3CC(=O)C(C)C2(C1O)C3O

>  <smiles>  (125) 
[H]OC1([H])C([H])([H])C([H])(C([H])([H])[H])C([H])(O[H])C23C([H])(O[H])C([H])(C([H])([H])C(=O)C2([H])C([H])([H])[H])C(C([H])([H])[H])(C([H])([H])[H])C13[H]

$$$$
33:0:2
     RDKit          3D

 46 48  0  0  1  0  0  0  0  0999 V2000
    4.3759   -2.3440   -3.2902 C   0  0  0  0  0  0  0  0  0  0  0  0
    4.0698   -2.4247   -1.7901 C   0  0  2  0  0  0  0  0  0  0  0  0
    4.2496   -1.0620   -1.1388 C   0  0  0  0  0  0  0  0  0  0  0  0
    4.5140   -1.0787    0.3848 C   0  0  1  0  0  0  0  0  0  0  0  0
    3.9679    0.1176    0.9164 O   0  0  0  0  0  0  0  0  0  0  0  0
    3.9144   -2.3109    1.1220 C   0  0  2  0  0  0  0  0  0  0  0  0
    4.2905   -2.4321    2.6448 C   0  0  0  0  0  0  0  0  0  0  0  0
    5.4132   -1.4839    3.1245 C   0  0  0  0  0  0  0  0  0  0  0  0
    3.0911   -2.0814    3.5561 C   0  0  0  0  0  0  0  0  0  0  0  0
    4.7988   -3.9021    2.7893 C   0  0  1  0  0  0  0  0  0  0  0  0
    3.6802   -4.9282    3.0747 C   0  0  0  0  0  0  0  0  0  0  0  0
    2.6584   -4.9870    1.9416 C   0  0  0  0  0  0  0  0  0  0  0  0
    1.4837   -5.2719    2.1793 O   0  0  0  0  0  0  0  0  0  0  0  0
    3.1727   -4.7412    0.5054 C   0  0  1  0  0  0  0  0  0  0  0  0
    1.9882   -4.5760   -0.4615 C   0  0  0  0  0  0  0  0  0  0  0  0
    4.3276   -3.6670    0.4527 C   0  0  1  0  0  0  0  0  0  0  0  0
    4.8876   -3.4460   -0.9912 C   0  0  1  0  0  0  0  0  0  0  0  0
    5.0025   -4.6517   -1.6919 O   0  0  0  0  0  0  0  0  0  0  0  0
    5.3996   -4.2331    1.4115 C   0  0  1  0  0  0  0  0  0  0  0  0
    6.6931   -3.6836    1.2602 O   0  0  0  0  0  0  0  0  0  0  0  0
    5.4169   -2.0917   -3.4621 H   0  0  0  0  0  0  0  0  0  0  0  0
    3.7593   -1.5830   -3.7708 H   0  0  0  0  0  0  0  0  0  0  0  0
    4.1705   -3.2891   -3.7882 H   0  0  0  0  0  0  0  0  0  0  0  0
    3.0091   -2.6467   -1.7338 H   0  0  0  0  0  0  0  0  0  0  0  0
    4.9706   -0.4250   -1.6579 H   0  0  0  0  0  0  0  0  0  0  0  0
    3.2669   -0.6623   -1.3170 H   0  0  0  0  0  0  0  0  0  0  0  0
    5.5952   -1.0501    0.5233 H   0  0  0  0  0  0  0  0  0  0  0  0
    4.3855    0.8596    0.5156 H   0  0  0  0  0  0  0  0  0  0  0  0
    2.8306   -2.2014    1.0499 H   0  0  0  0  0  0  0  0  0  0  0  0
    5.7280   -1.7541    4.1326 H   0  0  0  0  0  0  0  0  0  0  0  0
    5.1130   -0.4379    3.1649 H   0  0  0  0  0  0  0  0  0  0  0  0
    6.3071   -1.5328    2.5096 H   0  0  0  0  0  0  0  0  0  0  0  0
    3.3099   -2.2993    4.6030 H   0  0  0  0  0  0  0  0  0  0  0  0
    2.1810   -2.6105    3.2834 H   0  0  0  0  0  0  0  0  0  0  0  0
    2.8620   -1.0181    3.4842 H   0  0  0  0  0  0  0  0  0  0  0  0
    5.5432   -4.0035    3.5829 H   0  0  0  0  0  0  0  0  0  0  0  0
    4.1038   -5.9256    3.1663 H   0  0  0  0  0  0  0  0  0  0  0  0
    3.1708   -4.7202    4.0154 H   0  0  0  0  0  0  0  0  0  0  0  0
    3.6277   -5.6942    0.2358 H   0  0  0  0  0  0  0  0  0  0  0  0
    1.2814   -5.4002   -0.3500 H   0  0  0  0  0  0  0  0  0  0  0  0
    2.2522   -4.5951   -1.5067 H   0  0  0  0  0  0  0  0  0  0  0  0
    1.4795   -3.6254   -0.3344 H   0  0  0  0  0  0  0  0  0  0  0  0
    5.8990   -3.0391   -0.9621 H   0  0  0  0  0  0  0  0  0  0  0  0
    4.1228   -4.9758   -1.8950 H   0  0  0  0  0  0  0  0  0  0  0  0
    5.5297   -5.3076    1.2826 H   0  0  0  0  0  0  0  0  0  0  0  0
    6.6525   -2.7607    1.4512 H   0  0  0  0  0  0  0  0  0  0  0  0
  1  2  1  0
  1 21  1  0
  1 22  1  0
  1 23  1  0
  2 17  1  0
  2  3  1  0
  2 24  1  6
  3  4  1  0
  3 25  1  0
  3 26  1  0
  4  5  1  0
  4  6  1  0
  4 27  1  6
  5 28  1  0
  6 16  1  0
  6  7  1  0
  6 29  1  1
  7  8  1  0
  7  9  1  0
  7 10  1  0
  8 30  1  0
  8 31  1  0
  8 32  1  0
  9 33  1  0
  9 34  1  0
  9 35  1  0
 10 19  1  0
 10 11  1  0
 10 36  1  1
 11 12  1  0
 11 37  1  0
 11 38  1  0
 12 13  2  0
 12 14  1  0
 14 15  1  0
 16 14  1  6
 14 39  1  6
 15 40  1  0
 15 41  1  0
 15 42  1  0
 16 17  1  0
 16 19  1  0
 17 18  1  0
 17 43  1  1
 18 44  1  0
 19 20  1  0
 19 45  1  1
 20 46  1  0
M  END
>  <i_m_ct_stereo_status>  (126) 
1

>  <s_m_source_file>  (126) 
/var/tmp/pbs.5076255.sched01/tmpguie9axe/40t6mruo9t.sdf

>  <i_m_source_file_index>  (126) 
9

>  <i_lp_mmshare_version>  (126) 
48012

>  <i_f3d_flags>  (126) 
0

>  <s_epik_input>  (126) 
W09IXVtDQEhdMVtDQEhdKFtDSDNdKVtDSDJdW0NAQEhdKFtPSF0pW0NAQEhdKFtDQF0xMjMpQyhbQ0gzXSkoW0NIM10pW0NASF0oW0NAQEhdM1tPSF0pW0NIMl1DKD1PKVtDQEhdMltDSDNd

>  <s_epik_cmdline>  (126) 
J2VwaWtfcHl0aG9uJywgJy1waHQnLCAnMi4wJywgJy1waCcsICc3LjAnLCAnLXRuJywgJzgnLCAnLW1hJywgJzIwMCcsICctaW1hZScsICc8aW5maWxlLm1hZT4nLCAnLW9tYWUnLCAnPG91dGZpbGUubWFlPic=

>  <r_lp_tautomer_probability>  (126) 
1

>  <r_epik_Ionization_Penalty>  (126) 
9.03583e-07

>  <r_epik_Ionization_Penalty_Charging>  (126) 
0

>  <r_epik_Ionization_Penalty_Neutral>  (126) 
9.03583e-07

>  <r_epik_State_Penalty>  (126) 
-0

>  <r_epik_Charging_Adjusted_Penalty>  (126) 
0

>  <i_epik_Tot_Q>  (126) 
0

>  <i_epik_Tot_abs_Q>  (126) 
0

>  <s_lp_Force_Field>  (126) 
OPLS3e

>  <r_lp_Energy>  (126) 
39.6063

>  <b_lp_Chiralities_Consistent>  (126) 
1

>  <s_lp_Variant>  (126) 
33:0-1

>  <s_i_glide_gridfile>  (126) 
pfpi4k_grid

>  <i_i_glide_lignum>  (126) 
9

>  <i_i_glide_rotatable_bonds>  (126) 
3

>  <r_i_docking_score>  (126) 
-3.80696

>  <r_i_glide_ligand_efficiency>  (126) 
-0.190348

>  <r_i_glide_ligand_efficiency_sa>  (126) 
-0.516684

>  <r_i_glide_ligand_efficiency_ln>  (126) 
-0.952757

>  <r_i_glide_gscore>  (126) 
-3.80696

>  <r_i_glide_lipo>  (126) 
-0.384722

>  <r_i_glide_hbond>  (126) 
-0.483784

>  <r_i_glide_metal>  (126) 
-0

>  <r_i_glide_rewards>  (126) 
-1.48381

>  <r_i_glide_evdw>  (126) 
-13.2628

>  <r_i_glide_ecoul>  (126) 
-5.20091

>  <r_i_glide_erotb>  (126) 
0

>  <r_i_glide_esite>  (126) 
-0.0113723

>  <r_i_glide_emodel>  (126) 
-23.8672

>  <r_i_glide_energy>  (126) 
-18.4637

>  <r_i_glide_einternal>  (126) 
0.384456

>  <r_i_glide_intrahb_reward>  (126) 
-0

>  <i_i_glide_confnum>  (126) 
1

>  <i_i_glide_posenum>  (126) 
27

>  <r_i_glide_eff_state_penalty>  (126) 
0

>  <ligand_id>  (126) 
33

>  <original_smiles>  (126) 
CC1CC(O)C2C(C)(C)C3CC(=O)C(C)C2(C1O)C3O

>  <smiles>  (126) 
[H]OC1([H])C([H])([H])C([H])(C([H])([H])[H])C([H])(O[H])C23C([H])(O[H])C([H])(C([H])([H])C(=O)C2([H])C([H])([H])[H])C(C([H])([H])[H])(C([H])([H])[H])C13[H]

$$$$
34:0:0
     RDKit          3D

 34 36  0  0  1  0  0  0  0  0999 V2000
    3.9898   -0.8828   -0.3466 C   0  0  0  0  0  0  0  0  0  0  0  0
    3.8245   -1.2585   -1.7367 N   0  0  0  0  0  0  0  0  0  0  0  0
    4.2114   -0.5024   -2.8288 C   0  0  0  0  0  0  0  0  0  0  0  0
    3.8206   -1.1822   -3.9476 C   0  0  0  0  0  0  0  0  0  0  0  0
    3.2274   -2.3822   -3.5728 N   0  0  0  0  0  0  0  0  0  0  0  0
    3.2265   -2.3537   -2.2436 C   0  0  0  0  0  0  0  0  0  0  0  0
    2.5473   -3.3792   -1.3809 C   0  0  0  0  0  0  0  0  0  0  0  0
    3.6285   -4.1630   -0.7377 N   0  0  0  0  0  0  0  0  0  0  0  0
    3.2388   -4.9329    0.4702 C   0  0  2  0  0  0  0  0  0  0  0  0
    4.3706   -5.8842    0.9085 C   0  0  0  0  0  0  0  0  0  0  0  0
    4.0125   -6.6416    2.2086 C   0  0  0  0  0  0  0  0  0  0  0  0
    2.6193   -7.1853    2.1895 C   0  0  0  0  0  0  0  0  0  0  0  0
    2.1281   -8.1203    2.9848 N   0  0  0  0  0  0  0  0  0  0  0  0
    0.8426   -8.1749    2.5119 C   0  0  0  0  0  0  0  0  0  0  0  0
    0.5374   -7.3047    1.5421 N   0  0  0  0  0  0  0  0  0  0  0  0
    1.7243   -6.6961    1.3385 N   0  0  0  0  0  0  0  0  0  0  0  0
    1.9254   -5.7323    0.2705 C   0  0  0  0  0  0  0  0  0  0  0  0
    4.4235    0.1176   -0.2845 H   0  0  0  0  0  0  0  0  0  0  0  0
    4.6560   -1.5905    0.1460 H   0  0  0  0  0  0  0  0  0  0  0  0
    3.0184   -0.8689    0.1533 H   0  0  0  0  0  0  0  0  0  0  0  0
    4.6891    0.4594   -2.7200 H   0  0  0  0  0  0  0  0  0  0  0  0
    3.9183   -0.8917   -4.9818 H   0  0  0  0  0  0  0  0  0  0  0  0
    1.8986   -2.9041   -0.6483 H   0  0  0  0  0  0  0  0  0  0  0  0
    1.9246   -4.0198   -2.0032 H   0  0  0  0  0  0  0  0  0  0  0  0
    3.9355   -4.8240   -1.4413 H   0  0  0  0  0  0  0  0  0  0  0  0
    3.0664   -4.2050    1.2584 H   0  0  0  0  0  0  0  0  0  0  0  0
    4.5110   -6.6207    0.1104 H   0  0  0  0  0  0  0  0  0  0  0  0
    5.3196   -5.3528    1.0330 H   0  0  0  0  0  0  0  0  0  0  0  0
    4.7010   -7.4724    2.3537 H   0  0  0  0  0  0  0  0  0  0  0  0
    4.0957   -5.9726    3.0687 H   0  0  0  0  0  0  0  0  0  0  0  0
    0.0975   -8.8487    2.8976 H   0  0  0  0  0  0  0  0  0  0  0  0
    1.0618   -5.0903    0.2119 H   0  0  0  0  0  0  0  0  0  0  0  0
    1.9288   -6.2515   -0.6766 H   0  0  0  0  0  0  0  0  0  0  0  0
    4.3887   -3.5388   -0.5013 H   0  0  0  0  0  0  0  0  0  0  0  0
  1  2  1  0
  1 18  1  0
  1 19  1  0
  1 20  1  0
  2  6  1  0
  2  3  1  0
  3  4  2  0
  3 21  1  0
  4  5  1  0
  4 22  1  0
  5  6  2  0
  6  7  1  0
  7  8  1  0
  7 23  1  0
  7 24  1  0
  8  9  1  0
  8 25  1  0
  8 34  1  0
  9 17  1  0
  9 10  1  0
  9 26  1  1
 10 11  1  0
 10 27  1  0
 10 28  1  0
 11 12  1  0
 11 29  1  0
 11 30  1  0
 12 16  1  0
 12 13  2  0
 13 14  1  0
 14 15  2  0
 14 31  1  0
 15 16  1  0
 16 17  1  0
 17 32  1  0
 17 33  1  0
M  CHG  1   8   1
M  END
>  <i_m_ct_stereo_status>  (127) 
1

>  <s_m_source_file>  (127) 
/var/tmp/pbs.5076255.sched01/tmpguie9axe/40t6mruo9t.sdf

>  <i_m_source_file_index>  (127) 
10

>  <i_lp_mmshare_version>  (127) 
48012

>  <i_f3d_flags>  (127) 
0

>  <s_epik_input>  (127) 
W0NIM11uMVtjSF1bY0hdbmMxW0NIMl1bTkhdW0NASF0oW0NIMl1bQ0gyXTIpW0NIMl1uKGMyMyluW2NIXW4z

>  <s_epik_cmdline>  (127) 
J2VwaWtfcHl0aG9uJywgJy1waHQnLCAnMi4wJywgJy1waCcsICc3LjAnLCAnLXRuJywgJzgnLCAnLW1hJywgJzIwMCcsICctaW1hZScsICc8aW5maWxlLm1hZT4nLCAnLW9tYWUnLCAnPG91dGZpbGUubWFlPic=

>  <r_epik_Ionization_Penalty>  (127) 
0.277235

>  <r_epik_Ionization_Penalty_Charging>  (127) 
0.277234

>  <r_epik_Ionization_Penalty_Neutral>  (127) 
1.51597e-06

>  <r_epik_State_Penalty>  (127) 
0.0821228

>  <r_epik_Charging_Adjusted_Penalty>  (127) 
0.359356

>  <i_epik_Tot_Q>  (127) 
1

>  <i_epik_Tot_abs_Q>  (127) 
1

>  <s_lp_Force_Field>  (127) 
OPLS3e

>  <r_lp_Energy>  (127) 
13.6314

>  <b_lp_Chiralities_Consistent>  (127) 
1

>  <s_lp_Variant>  (127) 
34:0-1

>  <s_i_glide_gridfile>  (127) 
pfpi4k_grid

>  <i_i_glide_lignum>  (127) 
10

>  <i_i_glide_rotatable_bonds>  (127) 
3

>  <r_i_docking_score>  (127) 
-3.45711

>  <r_i_glide_ligand_efficiency>  (127) 
-0.203359

>  <r_i_glide_ligand_efficiency_sa>  (127) 
-0.522894

>  <r_i_glide_ligand_efficiency_ln>  (127) 
-0.901882

>  <r_i_glide_gscore>  (127) 
-3.45711

>  <r_i_glide_lipo>  (127) 
-0.454483

>  <r_i_glide_hbond>  (127) 
0

>  <r_i_glide_metal>  (127) 
-0

>  <r_i_glide_rewards>  (127) 
-1.81846

>  <r_i_glide_evdw>  (127) 
-21.4492

>  <r_i_glide_ecoul>  (127) 
-5.6155

>  <r_i_glide_erotb>  (127) 
0.945279

>  <r_i_glide_esite>  (127) 
-0.214657

>  <r_i_glide_emodel>  (127) 
-33.491

>  <r_i_glide_energy>  (127) 
-27.0647

>  <r_i_glide_einternal>  (127) 
1.7982

>  <r_i_glide_intrahb_reward>  (127) 
-0

>  <i_i_glide_confnum>  (127) 
2

>  <i_i_glide_posenum>  (127) 
26

>  <r_i_glide_eff_state_penalty>  (127) 
0

>  <ligand_id>  (127) 
34

>  <original_smiles>  (127) 
Cn1ccnc1CNC1CCc2ncnn2C1

>  <smiles>  (127) 
[H]c1nc2n(n1)C([H])([H])C([H])([N+]([H])([H])C([H])([H])c1nc([H])c([H])n1C([H])([H])[H])C([H])([H])C2([H])[H]

$$$$
34:0:1
     RDKit          3D

 34 36  0  0  1  0  0  0  0  0999 V2000
    5.2816   -1.2315   -1.0335 C   0  0  0  0  0  0  0  0  0  0  0  0
    4.3014   -1.3539   -2.1025 N   0  0  0  0  0  0  0  0  0  0  0  0
    4.0823   -0.4141   -3.0952 C   0  0  0  0  0  0  0  0  0  0  0  0
    3.1384   -0.9384   -3.9426 C   0  0  0  0  0  0  0  0  0  0  0  0
    2.7539   -2.1882   -3.4919 N   0  0  0  0  0  0  0  0  0  0  0  0
    3.4533   -2.3728   -2.3794 C   0  0  0  0  0  0  0  0  0  0  0  0
    3.3969   -3.6568   -1.6346 C   0  0  0  0  0  0  0  0  0  0  0  0
    3.3815   -3.3630   -0.1818 N   0  0  0  0  0  0  0  0  0  0  0  0
    3.5469   -4.5496    0.7020 C   0  0  2  0  0  0  0  0  0  0  0  0
    4.7795   -5.4144    0.3134 C   0  0  0  0  0  0  0  0  0  0  0  0
    4.9896   -6.6084    1.2583 C   0  0  0  0  0  0  0  0  0  0  0  0
    3.7018   -7.3140    1.5395 C   0  0  0  0  0  0  0  0  0  0  0  0
    3.5725   -8.5469    1.9965 N   0  0  0  0  0  0  0  0  0  0  0  0
    2.2073   -8.6296    2.0682 C   0  0  0  0  0  0  0  0  0  0  0  0
    1.5284   -7.5404    1.6839 N   0  0  0  0  0  0  0  0  0  0  0  0
    2.5289   -6.7027    1.3416 N   0  0  0  0  0  0  0  0  0  0  0  0
    2.2643   -5.4018    0.7637 C   0  0  0  0  0  0  0  0  0  0  0  0
    5.7465   -0.2562   -1.0672 H   0  0  0  0  0  0  0  0  0  0  0  0
    6.0643   -1.9922   -1.1506 H   0  0  0  0  0  0  0  0  0  0  0  0
    4.8066   -1.3091   -0.0521 H   0  0  0  0  0  0  0  0  0  0  0  0
    4.5951    0.5347   -3.1293 H   0  0  0  0  0  0  0  0  0  0  0  0
    2.6909   -0.5210   -4.8245 H   0  0  0  0  0  0  0  0  0  0  0  0
    2.4865   -4.1862   -1.9089 H   0  0  0  0  0  0  0  0  0  0  0  0
    4.2633   -4.2280   -1.9481 H   0  0  0  0  0  0  0  0  0  0  0  0
    4.1661   -2.7658    0.0102 H   0  0  0  0  0  0  0  0  0  0  0  0
    3.7224   -4.1606    1.7095 H   0  0  0  0  0  0  0  0  0  0  0  0
    4.6060   -5.8640   -0.6690 H   0  0  0  0  0  0  0  0  0  0  0  0
    5.6904   -4.8152    0.2394 H   0  0  0  0  0  0  0  0  0  0  0  0
    5.6738   -7.3151    0.7816 H   0  0  0  0  0  0  0  0  0  0  0  0
    5.4308   -6.2865    2.2076 H   0  0  0  0  0  0  0  0  0  0  0  0
    1.6853   -9.5021    2.4130 H   0  0  0  0  0  0  0  0  0  0  0  0
    1.4990   -4.9136    1.3636 H   0  0  0  0  0  0  0  0  0  0  0  0
    1.8672   -5.5803   -0.2400 H   0  0  0  0  0  0  0  0  0  0  0  0
    2.5497   -2.8455    0.0609 H   0  0  0  0  0  0  0  0  0  0  0  0
  1  2  1  0
  1 18  1  0
  1 19  1  0
  1 20  1  0
  2  6  1  0
  2  3  1  0
  3  4  2  0
  3 21  1  0
  4  5  1  0
  4 22  1  0
  5  6  2  0
  6  7  1  0
  7  8  1  0
  7 23  1  0
  7 24  1  0
  8  9  1  0
  8 25  1  0
  8 34  1  0
  9 17  1  0
  9 10  1  0
  9 26  1  1
 10 11  1  0
 10 27  1  0
 10 28  1  0
 11 12  1  0
 11 29  1  0
 11 30  1  0
 12 16  1  0
 12 13  2  0
 13 14  1  0
 14 15  2  0
 14 31  1  0
 15 16  1  0
 16 17  1  0
 17 32  1  0
 17 33  1  0
M  CHG  1   8   1
M  END
>  <i_m_ct_stereo_status>  (128) 
1

>  <s_m_source_file>  (128) 
/var/tmp/pbs.5076255.sched01/tmpguie9axe/40t6mruo9t.sdf

>  <i_m_source_file_index>  (128) 
10

>  <i_lp_mmshare_version>  (128) 
48012

>  <i_f3d_flags>  (128) 
0

>  <s_epik_input>  (128) 
W0NIM11uMVtjSF1bY0hdbmMxW0NIMl1bTkhdW0NASF0oW0NIMl1bQ0gyXTIpW0NIMl1uKGMyMyluW2NIXW4z

>  <s_epik_cmdline>  (128) 
J2VwaWtfcHl0aG9uJywgJy1waHQnLCAnMi4wJywgJy1waCcsICc3LjAnLCAnLXRuJywgJzgnLCAnLW1hJywgJzIwMCcsICctaW1hZScsICc8aW5maWxlLm1hZT4nLCAnLW9tYWUnLCAnPG91dGZpbGUubWFlPic=

>  <r_epik_Ionization_Penalty>  (128) 
0.277235

>  <r_epik_Ionization_Penalty_Charging>  (128) 
0.277234

>  <r_epik_Ionization_Penalty_Neutral>  (128) 
1.51597e-06

>  <r_epik_State_Penalty>  (128) 
0.0821228

>  <r_epik_Charging_Adjusted_Penalty>  (128) 
0.359356

>  <i_epik_Tot_Q>  (128) 
1

>  <i_epik_Tot_abs_Q>  (128) 
1

>  <s_lp_Force_Field>  (128) 
OPLS3e

>  <r_lp_Energy>  (128) 
13.6314

>  <b_lp_Chiralities_Consistent>  (128) 
1

>  <s_lp_Variant>  (128) 
34:0-1

>  <s_i_glide_gridfile>  (128) 
pfpi4k_grid

>  <i_i_glide_lignum>  (128) 
10

>  <i_i_glide_rotatable_bonds>  (128) 
3

>  <r_i_docking_score>  (128) 
-3.45105

>  <r_i_glide_ligand_efficiency>  (128) 
-0.203003

>  <r_i_glide_ligand_efficiency_sa>  (128) 
-0.521977

>  <r_i_glide_ligand_efficiency_ln>  (128) 
-0.900302

>  <r_i_glide_gscore>  (128) 
-3.45105

>  <r_i_glide_lipo>  (128) 
-0.582514

>  <r_i_glide_hbond>  (128) 
0

>  <r_i_glide_metal>  (128) 
-0

>  <r_i_glide_rewards>  (128) 
-1.91039

>  <r_i_glide_evdw>  (128) 
-22.8924

>  <r_i_glide_ecoul>  (128) 
-4.51675

>  <r_i_glide_erotb>  (128) 
0.945279

>  <r_i_glide_esite>  (128) 
-0.0812893

>  <r_i_glide_emodel>  (128) 
-31.9147

>  <r_i_glide_energy>  (128) 
-27.4091

>  <r_i_glide_einternal>  (128) 
5.08923

>  <r_i_glide_intrahb_reward>  (128) 
-0

>  <i_i_glide_confnum>  (128) 
6

>  <i_i_glide_posenum>  (128) 
20

>  <r_i_glide_eff_state_penalty>  (128) 
0

>  <ligand_id>  (128) 
34

>  <original_smiles>  (128) 
Cn1ccnc1CNC1CCc2ncnn2C1

>  <smiles>  (128) 
[H]c1nc2n(n1)C([H])([H])C([H])([N+]([H])([H])C([H])([H])c1nc([H])c([H])n1C([H])([H])[H])C([H])([H])C2([H])[H]

$$$$
34:0:2
     RDKit          3D

 34 36  0  0  1  0  0  0  0  0999 V2000
    2.3184   -2.8562    2.1474 C   0  0  0  0  0  0  0  0  0  0  0  0
    3.0925   -2.3254    1.0469 N   0  0  0  0  0  0  0  0  0  0  0  0
    3.6089   -3.0690   -0.0073 C   0  0  0  0  0  0  0  0  0  0  0  0
    4.3038   -2.1944   -0.8009 C   0  0  0  0  0  0  0  0  0  0  0  0
    4.2131   -0.9117   -0.2626 N   0  0  0  0  0  0  0  0  0  0  0  0
    3.4734   -1.0489    0.8365 C   0  0  0  0  0  0  0  0  0  0  0  0
    3.1762    0.0794    1.7893 C   0  0  0  0  0  0  0  0  0  0  0  0
    1.7774    0.4946    1.5370 N   0  0  0  0  0  0  0  0  0  0  0  0
    1.1932    1.3991    2.5624 C   0  0  2  0  0  0  0  0  0  0  0  0
   -0.3130    1.6193    2.2986 C   0  0  0  0  0  0  0  0  0  0  0  0
   -0.9728    2.5109    3.3752 C   0  0  0  0  0  0  0  0  0  0  0  0
   -0.1485    3.7129    3.7058 C   0  0  0  0  0  0  0  0  0  0  0  0
   -0.5668    4.8122    4.3243 N   0  0  0  0  0  0  0  0  0  0  0  0
    0.6077    5.5223    4.3354 C   0  0  0  0  0  0  0  0  0  0  0  0
    1.6727    4.9154    3.8030 N   0  0  0  0  0  0  0  0  0  0  0  0
    1.1500    3.7381    3.3980 N   0  0  0  0  0  0  0  0  0  0  0  0
    1.9255    2.7625    2.6506 C   0  0  0  0  0  0  0  0  0  0  0  0
    2.2630   -3.9453    2.0689 H   0  0  0  0  0  0  0  0  0  0  0  0
    1.3131   -2.4372    2.1153 H   0  0  0  0  0  0  0  0  0  0  0  0
    2.7926   -2.5989    3.0960 H   0  0  0  0  0  0  0  0  0  0  0  0
    3.4655   -4.1352   -0.1072 H   0  0  0  0  0  0  0  0  0  0  0  0
    4.8542   -2.3961   -1.7052 H   0  0  0  0  0  0  0  0  0  0  0  0
    3.3392   -0.2447    2.8175 H   0  0  0  0  0  0  0  0  0  0  0  0
    3.8456    0.9117    1.5879 H   0  0  0  0  0  0  0  0  0  0  0  0
    1.7143    0.9420    0.6343 H   0  0  0  0  0  0  0  0  0  0  0  0
    1.2892    0.9098    3.5321 H   0  0  0  0  0  0  0  0  0  0  0  0
   -0.3998    2.1255    1.3335 H   0  0  0  0  0  0  0  0  0  0  0  0
   -0.8505    0.6725    2.2123 H   0  0  0  0  0  0  0  0  0  0  0  0
   -1.9538    2.8402    3.0289 H   0  0  0  0  0  0  0  0  0  0  0  0
   -1.1173    1.9406    4.2962 H   0  0  0  0  0  0  0  0  0  0  0  0
    0.6981    6.5054    4.7659 H   0  0  0  0  0  0  0  0  0  0  0  0
    2.9108    2.6731    3.1055 H   0  0  0  0  0  0  0  0  0  0  0  0
    2.0627    3.1746    1.6533 H   0  0  0  0  0  0  0  0  0  0  0  0
    1.2089   -0.3377    1.4730 H   0  0  0  0  0  0  0  0  0  0  0  0
  1  2  1  0
  1 18  1  0
  1 19  1  0
  1 20  1  0
  2  6  1  0
  2  3  1  0
  3  4  2  0
  3 21  1  0
  4  5  1  0
  4 22  1  0
  5  6  2  0
  6  7  1  0
  7  8  1  0
  7 23  1  0
  7 24  1  0
  8  9  1  0
  8 25  1  0
  8 34  1  0
  9 17  1  0
  9 10  1  0
  9 26  1  1
 10 11  1  0
 10 27  1  0
 10 28  1  0
 11 12  1  0
 11 29  1  0
 11 30  1  0
 12 16  1  0
 12 13  2  0
 13 14  1  0
 14 15  2  0
 14 31  1  0
 15 16  1  0
 16 17  1  0
 17 32  1  0
 17 33  1  0
M  CHG  1   8   1
M  END
>  <i_m_ct_stereo_status>  (129) 
1

>  <s_m_source_file>  (129) 
/var/tmp/pbs.5076255.sched01/tmpguie9axe/40t6mruo9t.sdf

>  <i_m_source_file_index>  (129) 
10

>  <i_lp_mmshare_version>  (129) 
48012

>  <i_f3d_flags>  (129) 
0

>  <s_epik_input>  (129) 
W0NIM11uMVtjSF1bY0hdbmMxW0NIMl1bTkhdW0NASF0oW0NIMl1bQ0gyXTIpW0NIMl1uKGMyMyluW2NIXW4z

>  <s_epik_cmdline>  (129) 
J2VwaWtfcHl0aG9uJywgJy1waHQnLCAnMi4wJywgJy1waCcsICc3LjAnLCAnLXRuJywgJzgnLCAnLW1hJywgJzIwMCcsICctaW1hZScsICc8aW5maWxlLm1hZT4nLCAnLW9tYWUnLCAnPG91dGZpbGUubWFlPic=

>  <r_epik_Ionization_Penalty>  (129) 
0.277235

>  <r_epik_Ionization_Penalty_Charging>  (129) 
0.277234

>  <r_epik_Ionization_Penalty_Neutral>  (129) 
1.51597e-06

>  <r_epik_State_Penalty>  (129) 
0.0821228

>  <r_epik_Charging_Adjusted_Penalty>  (129) 
0.359356

>  <i_epik_Tot_Q>  (129) 
1

>  <i_epik_Tot_abs_Q>  (129) 
1

>  <s_lp_Force_Field>  (129) 
OPLS3e

>  <r_lp_Energy>  (129) 
13.6314

>  <b_lp_Chiralities_Consistent>  (129) 
1

>  <s_lp_Variant>  (129) 
34:0-1

>  <s_i_glide_gridfile>  (129) 
pfpi4k_grid

>  <i_i_glide_lignum>  (129) 
10

>  <i_i_glide_rotatable_bonds>  (129) 
3

>  <r_i_docking_score>  (129) 
-3.08863

>  <r_i_glide_ligand_efficiency>  (129) 
-0.181684

>  <r_i_glide_ligand_efficiency_sa>  (129) 
-0.467162

>  <r_i_glide_ligand_efficiency_ln>  (129) 
-0.805756

>  <r_i_glide_gscore>  (129) 
-3.08863

>  <r_i_glide_lipo>  (129) 
-0.0252237

>  <r_i_glide_hbond>  (129) 
-0.00721473

>  <r_i_glide_metal>  (129) 
-0

>  <r_i_glide_rewards>  (129) 
-1.81846

>  <r_i_glide_evdw>  (129) 
-18.5099

>  <r_i_glide_ecoul>  (129) 
-5.89334

>  <r_i_glide_erotb>  (129) 
0.945279

>  <r_i_glide_esite>  (129) 
-0.373518

>  <r_i_glide_emodel>  (129) 
-30.8354

>  <r_i_glide_energy>  (129) 
-24.4033

>  <r_i_glide_einternal>  (129) 
0.375023

>  <r_i_glide_intrahb_reward>  (129) 
-0

>  <i_i_glide_confnum>  (129) 
2

>  <i_i_glide_posenum>  (129) 
1

>  <r_i_glide_eff_state_penalty>  (129) 
0

>  <ligand_id>  (129) 
34

>  <original_smiles>  (129) 
Cn1ccnc1CNC1CCc2ncnn2C1

>  <smiles>  (129) 
[H]c1nc2n(n1)C([H])([H])C([H])([N+]([H])([H])C([H])([H])c1nc([H])c([H])n1C([H])([H])[H])C([H])([H])C2([H])[H]

$$$$
34:1:0
     RDKit          3D

 34 36  0  0  1  0  0  0  0  0999 V2000
    1.3889    0.9870    5.0290 C   0  0  0  0  0  0  0  0  0  0  0  0
    0.6412    1.1114    3.7755 N   0  0  0  0  0  0  0  0  0  0  0  0
   -0.5102    1.8351    3.6110 C   0  0  0  0  0  0  0  0  0  0  0  0
   -0.8879    1.6749    2.3079 C   0  0  0  0  0  0  0  0  0  0  0  0
    0.0503    0.8803    1.7163 N   0  0  0  0  0  0  0  0  0  0  0  0
    0.9891    0.5327    2.6049 C   0  0  0  0  0  0  0  0  0  0  0  0
    2.1716   -0.3421    2.3120 C   0  0  0  0  0  0  0  0  0  0  0  0
    2.6170   -0.2328    0.9249 N   0  0  0  0  0  0  0  0  0  0  0  0
    3.7603   -1.0826    0.6299 C   0  0  2  0  0  0  0  0  0  0  0  0
    5.1002   -0.5023    1.1403 C   0  0  0  0  0  0  0  0  0  0  0  0
    6.2491   -1.4971    0.8648 C   0  0  0  0  0  0  0  0  0  0  0  0
    6.1816   -2.0704   -0.5161 C   0  0  0  0  0  0  0  0  0  0  0  0
    7.1563   -2.7084   -1.1468 N   0  0  0  0  0  0  0  0  0  0  0  0
    6.5044   -3.0455   -2.3040 C   0  0  0  0  0  0  0  0  0  0  0  0
    5.2565   -2.5989   -2.4239 N   0  0  0  0  0  0  0  0  0  0  0  0
    5.0578   -1.9909   -1.2340 N   0  0  0  0  0  0  0  0  0  0  0  0
    3.8283   -1.3125   -0.8968 C   0  0  0  0  0  0  0  0  0  0  0  0
    0.7823    1.3999    5.8403 H   0  0  0  0  0  0  0  0  0  0  0  0
    2.3181    1.5585    4.9515 H   0  0  0  0  0  0  0  0  0  0  0  0
    1.5969   -0.0663    5.2385 H   0  0  0  0  0  0  0  0  0  0  0  0
   -0.9707    2.4061    4.4060 H   0  0  0  0  0  0  0  0  0  0  0  0
   -1.7283    2.0720    1.7717 H   0  0  0  0  0  0  0  0  0  0  0  0
    2.9609   -0.0564    3.0074 H   0  0  0  0  0  0  0  0  0  0  0  0
    1.8667   -1.3637    2.5378 H   0  0  0  0  0  0  0  0  0  0  0  0
    1.8676   -0.5232    0.2826 H   0  0  0  0  0  0  0  0  0  0  0  0
    3.5968   -2.0546    1.0966 H   0  0  0  0  0  0  0  0  0  0  0  0
    5.3062    0.4266    0.6067 H   0  0  0  0  0  0  0  0  0  0  0  0
    5.0735   -0.2509    2.2016 H   0  0  0  0  0  0  0  0  0  0  0  0
    7.2223   -1.0254    1.0012 H   0  0  0  0  0  0  0  0  0  0  0  0
    6.1823   -2.3268    1.5688 H   0  0  0  0  0  0  0  0  0  0  0  0
    6.9795   -3.5885   -3.1079 H   0  0  0  0  0  0  0  0  0  0  0  0
    2.9880   -1.9010   -1.2528 H   0  0  0  0  0  0  0  0  0  0  0  0
    3.8290   -0.3718   -1.4419 H   0  0  0  0  0  0  0  0  0  0  0  0
    0.0306    0.5995    0.7339 H   0  0  0  0  0  0  0  0  0  0  0  0
  1  2  1  0
  1 18  1  0
  1 19  1  0
  1 20  1  0
  2  6  1  0
  2  3  1  0
  3  4  2  0
  3 21  1  0
  4  5  1  0
  4 22  1  0
  5  6  2  0
  5 34  1  0
  6  7  1  0
  7  8  1  0
  7 23  1  0
  7 24  1  0
  8  9  1  0
  8 25  1  0
  9 17  1  0
  9 10  1  0
  9 26  1  1
 10 11  1  0
 10 27  1  0
 10 28  1  0
 11 12  1  0
 11 29  1  0
 11 30  1  0
 12 16  1  0
 12 13  2  0
 13 14  1  0
 14 15  2  0
 14 31  1  0
 15 16  1  0
 16 17  1  0
 17 32  1  0
 17 33  1  0
M  CHG  1   5   1
M  END
>  <i_m_ct_stereo_status>  (130) 
1

>  <s_m_source_file>  (130) 
/var/tmp/pbs.5076255.sched01/tmpguie9axe/40t6mruo9t.sdf

>  <i_m_source_file_index>  (130) 
11

>  <i_lp_mmshare_version>  (130) 
48012

>  <i_f3d_flags>  (130) 
0

>  <s_epik_input>  (130) 
W0NIM11uMVtjSF1bY0hdbmMxW0NIMl1bTkhdW0NASF0oW0NIMl1bQ0gyXTIpW0NIMl1uKGMyMyluW2NIXW4z

>  <s_epik_cmdline>  (130) 
J2VwaWtfcHl0aG9uJywgJy1waHQnLCAnMi4wJywgJy1waCcsICc3LjAnLCAnLXRuJywgJzgnLCAnLW1hJywgJzIwMCcsICctaW1hZScsICc8aW5maWxlLm1hZT4nLCAnLW9tYWUnLCAnPG91dGZpbGUubWFlPic=

>  <r_lp_tautomer_probability>  (130) 
1

>  <r_epik_Ionization_Penalty>  (130) 
0.16879

>  <r_epik_Ionization_Penalty_Charging>  (130) 
0

>  <r_epik_Ionization_Penalty_Neutral>  (130) 
0.16879

>  <r_epik_State_Penalty>  (130) 
1.60078

>  <r_epik_Charging_Adjusted_Penalty>  (130) 
1.60078

>  <i_epik_Tot_Q>  (130) 
1

>  <i_epik_Tot_abs_Q>  (130) 
1

>  <s_lp_Force_Field>  (130) 
OPLS3e

>  <r_lp_Energy>  (130) 
32.6333

>  <b_lp_Chiralities_Consistent>  (130) 
1

>  <s_lp_Variant>  (130) 
34:0-2

>  <s_i_glide_gridfile>  (130) 
pfpi4k_grid

>  <i_i_glide_lignum>  (130) 
11

>  <i_i_glide_rotatable_bonds>  (130) 
3

>  <r_i_docking_score>  (130) 
-4.24545

>  <r_i_glide_ligand_efficiency>  (130) 
-0.249732

>  <r_i_glide_ligand_efficiency_sa>  (130) 
-0.642132

>  <r_i_glide_ligand_efficiency_ln>  (130) 
-1.10754

>  <r_i_glide_gscore>  (130) 
-4.24545

>  <r_i_glide_lipo>  (130) 
-0.290277

>  <r_i_glide_hbond>  (130) 
-0.506051

>  <r_i_glide_metal>  (130) 
-0

>  <r_i_glide_rewards>  (130) 
-1.87459

>  <r_i_glide_evdw>  (130) 
-16.7647

>  <r_i_glide_ecoul>  (130) 
-9.82571

>  <r_i_glide_erotb>  (130) 
0.945279

>  <r_i_glide_esite>  (130) 
-0.207719

>  <r_i_glide_emodel>  (130) 
-35.8748

>  <r_i_glide_energy>  (130) 
-26.5904

>  <r_i_glide_einternal>  (130) 
0.824785

>  <r_i_glide_intrahb_reward>  (130) 
-0

>  <i_i_glide_confnum>  (130) 
5

>  <i_i_glide_posenum>  (130) 
28

>  <r_i_glide_eff_state_penalty>  (130) 
0

>  <ligand_id>  (130) 
34

>  <original_smiles>  (130) 
Cn1ccnc1CNC1CCc2ncnn2C1

>  <smiles>  (130) 
[H]c1nc2n(n1)C([H])([H])C([H])(N([H])C([H])([H])c1n(C([H])([H])[H])c([H])c([H])[n+]1[H])C([H])([H])C2([H])[H]

$$$$
34:1:1
     RDKit          3D

 34 36  0  0  1  0  0  0  0  0999 V2000
    4.2120    0.4843    3.6044 C   0  0  0  0  0  0  0  0  0  0  0  0
    3.9814   -0.2161    2.3372 N   0  0  0  0  0  0  0  0  0  0  0  0
    4.8949   -0.9929    1.6766 C   0  0  0  0  0  0  0  0  0  0  0  0
    4.2782   -1.4501    0.5370 C   0  0  0  0  0  0  0  0  0  0  0  0
    3.0162   -0.9169    0.5440 N   0  0  0  0  0  0  0  0  0  0  0  0
    2.8286   -0.1908    1.6527 C   0  0  0  0  0  0  0  0  0  0  0  0
    1.5718    0.5354    2.0030 C   0  0  0  0  0  0  0  0  0  0  0  0
    1.1052    0.2121    3.3477 N   0  0  0  0  0  0  0  0  0  0  0  0
    0.0099    1.0605    3.8070 C   0  0  2  0  0  0  0  0  0  0  0  0
    0.3669    2.5695    3.8519 C   0  0  0  0  0  0  0  0  0  0  0  0
   -0.8594    3.3953    4.2705 C   0  0  0  0  0  0  0  0  0  0  0  0
   -1.5697    2.7990    5.4458 C   0  0  0  0  0  0  0  0  0  0  0  0
   -2.4748    3.4084    6.1988 N   0  0  0  0  0  0  0  0  0  0  0  0
   -2.7556    2.4024    7.0797 C   0  0  0  0  0  0  0  0  0  0  0  0
   -2.1256    1.2430    6.8809 N   0  0  0  0  0  0  0  0  0  0  0  0
   -1.3646    1.5306    5.7984 N   0  0  0  0  0  0  0  0  0  0  0  0
   -0.4219    0.5868    5.2199 C   0  0  0  0  0  0  0  0  0  0  0  0
    5.2761    0.4531    3.8387 H   0  0  0  0  0  0  0  0  0  0  0  0
    3.6558   -0.0151    4.3983 H   0  0  0  0  0  0  0  0  0  0  0  0
    3.8855    1.5227    3.5224 H   0  0  0  0  0  0  0  0  0  0  0  0
    5.8869   -1.1722    2.0538 H   0  0  0  0  0  0  0  0  0  0  0  0
    4.6387   -2.0933   -0.2519 H   0  0  0  0  0  0  0  0  0  0  0  0
    1.8382    1.5846    1.8849 H   0  0  0  0  0  0  0  0  0  0  0  0
    0.8055    0.3024    1.2617 H   0  0  0  0  0  0  0  0  0  0  0  0
    0.7575   -0.7380    3.3289 H   0  0  0  0  0  0  0  0  0  0  0  0
   -0.8396    0.9234    3.1346 H   0  0  0  0  0  0  0  0  0  0  0  0
    1.1724    2.7262    4.5725 H   0  0  0  0  0  0  0  0  0  0  0  0
    0.7069    2.9774    2.8992 H   0  0  0  0  0  0  0  0  0  0  0  0
   -0.5644    4.4175    4.5012 H   0  0  0  0  0  0  0  0  0  0  0  0
   -1.5571    3.4403    3.4309 H   0  0  0  0  0  0  0  0  0  0  0  0
   -3.4775    2.5177    7.8754 H   0  0  0  0  0  0  0  0  0  0  0  0
   -0.8729   -0.4040    5.1955 H   0  0  0  0  0  0  0  0  0  0  0  0
    0.4441    0.5322    5.8856 H   0  0  0  0  0  0  0  0  0  0  0  0
    2.2811   -1.0490   -0.1599 H   0  0  0  0  0  0  0  0  0  0  0  0
  1  2  1  0
  1 18  1  0
  1 19  1  0
  1 20  1  0
  2  6  1  0
  2  3  1  0
  3  4  2  0
  3 21  1  0
  4  5  1  0
  4 22  1  0
  5  6  2  0
  5 34  1  0
  6  7  1  0
  7  8  1  0
  7 23  1  0
  7 24  1  0
  8  9  1  0
  8 25  1  0
  9 17  1  0
  9 10  1  0
  9 26  1  6
 10 11  1  0
 10 27  1  0
 10 28  1  0
 11 12  1  0
 11 29  1  0
 11 30  1  0
 12 16  1  0
 12 13  2  0
 13 14  1  0
 14 15  2  0
 14 31  1  0
 15 16  1  0
 16 17  1  0
 17 32  1  0
 17 33  1  0
M  CHG  1   5   1
M  END
>  <i_m_ct_stereo_status>  (131) 
1

>  <s_m_source_file>  (131) 
/var/tmp/pbs.5076255.sched01/tmpguie9axe/40t6mruo9t.sdf

>  <i_m_source_file_index>  (131) 
11

>  <i_lp_mmshare_version>  (131) 
48012

>  <i_f3d_flags>  (131) 
0

>  <s_epik_input>  (131) 
W0NIM11uMVtjSF1bY0hdbmMxW0NIMl1bTkhdW0NASF0oW0NIMl1bQ0gyXTIpW0NIMl1uKGMyMyluW2NIXW4z

>  <s_epik_cmdline>  (131) 
J2VwaWtfcHl0aG9uJywgJy1waHQnLCAnMi4wJywgJy1waCcsICc3LjAnLCAnLXRuJywgJzgnLCAnLW1hJywgJzIwMCcsICctaW1hZScsICc8aW5maWxlLm1hZT4nLCAnLW9tYWUnLCAnPG91dGZpbGUubWFlPic=

>  <r_lp_tautomer_probability>  (131) 
1

>  <r_epik_Ionization_Penalty>  (131) 
0.16879

>  <r_epik_Ionization_Penalty_Charging>  (131) 
0

>  <r_epik_Ionization_Penalty_Neutral>  (131) 
0.16879

>  <r_epik_State_Penalty>  (131) 
1.60078

>  <r_epik_Charging_Adjusted_Penalty>  (131) 
1.60078

>  <i_epik_Tot_Q>  (131) 
1

>  <i_epik_Tot_abs_Q>  (131) 
1

>  <s_lp_Force_Field>  (131) 
OPLS3e

>  <r_lp_Energy>  (131) 
32.6333

>  <b_lp_Chiralities_Consistent>  (131) 
1

>  <s_lp_Variant>  (131) 
34:0-2

>  <s_i_glide_gridfile>  (131) 
pfpi4k_grid

>  <i_i_glide_lignum>  (131) 
11

>  <i_i_glide_rotatable_bonds>  (131) 
3

>  <r_i_docking_score>  (131) 
-3.98815

>  <r_i_glide_ligand_efficiency>  (131) 
-0.234597

>  <r_i_glide_ligand_efficiency_sa>  (131) 
-0.603215

>  <r_i_glide_ligand_efficiency_ln>  (131) 
-1.04042

>  <r_i_glide_gscore>  (131) 
-3.98815

>  <r_i_glide_lipo>  (131) 
-0.100674

>  <r_i_glide_hbond>  (131) 
-0.321314

>  <r_i_glide_metal>  (131) 
-0

>  <r_i_glide_rewards>  (131) 
-2.05373

>  <r_i_glide_evdw>  (131) 
-16.9738

>  <r_i_glide_ecoul>  (131) 
-9.84075

>  <r_i_glide_erotb>  (131) 
0.945279

>  <r_i_glide_esite>  (131) 
-0.1329

>  <r_i_glide_emodel>  (131) 
-35.3514

>  <r_i_glide_energy>  (131) 
-26.8146

>  <r_i_glide_einternal>  (131) 
0.894178

>  <r_i_glide_intrahb_reward>  (131) 
-0

>  <i_i_glide_confnum>  (131) 
5

>  <i_i_glide_posenum>  (131) 
3

>  <r_i_glide_eff_state_penalty>  (131) 
0

>  <ligand_id>  (131) 
34

>  <original_smiles>  (131) 
Cn1ccnc1CNC1CCc2ncnn2C1

>  <smiles>  (131) 
[H]c1nc2n(n1)C([H])([H])C([H])(N([H])C([H])([H])c1n(C([H])([H])[H])c([H])c([H])[n+]1[H])C([H])([H])C2([H])[H]

$$$$
34:1:2
     RDKit          3D

 34 36  0  0  1  0  0  0  0  0999 V2000
    2.0489    2.8035    2.7442 C   0  0  0  0  0  0  0  0  0  0  0  0
    0.9751    1.8542    3.0186 N   0  0  0  0  0  0  0  0  0  0  0  0
   -0.3222    2.1781    3.3152 C   0  0  0  0  0  0  0  0  0  0  0  0
   -0.9893    0.9999    3.4986 C   0  0  0  0  0  0  0  0  0  0  0  0
   -0.0751    0.0023    3.2973 N   0  0  0  0  0  0  0  0  0  0  0  0
    1.1209    0.5179    2.9915 C   0  0  0  0  0  0  0  0  0  0  0  0
    2.3525   -0.2715    2.6734 C   0  0  0  0  0  0  0  0  0  0  0  0
    2.7074   -0.2058    1.2631 N   0  0  0  0  0  0  0  0  0  0  0  0
    3.8403   -1.0580    0.9222 C   0  0  2  0  0  0  0  0  0  0  0  0
    5.1969   -0.5221    1.4417 C   0  0  0  0  0  0  0  0  0  0  0  0
    6.3290   -1.5203    1.1203 C   0  0  0  0  0  0  0  0  0  0  0  0
    6.2489   -2.0372   -0.2842 C   0  0  0  0  0  0  0  0  0  0  0  0
    7.2095   -2.6594   -0.9525 N   0  0  0  0  0  0  0  0  0  0  0  0
    6.5414   -2.9392   -2.1167 C   0  0  0  0  0  0  0  0  0  0  0  0
    5.3033   -2.4616   -2.2054 N   0  0  0  0  0  0  0  0  0  0  0  0
    5.1213   -1.9107   -0.9870 N   0  0  0  0  0  0  0  0  0  0  0  0
    3.8990   -1.2337   -0.6135 C   0  0  0  0  0  0  0  0  0  0  0  0
    1.7087    3.8031    3.0189 H   0  0  0  0  0  0  0  0  0  0  0  0
    2.2569    2.7816    1.6756 H   0  0  0  0  0  0  0  0  0  0  0  0
    2.9351    2.5425    3.3277 H   0  0  0  0  0  0  0  0  0  0  0  0
   -0.6626    3.2035    3.3566 H   0  0  0  0  0  0  0  0  0  0  0  0
   -2.0250    0.8153    3.7353 H   0  0  0  0  0  0  0  0  0  0  0  0
    3.1480    0.1201    3.3061 H   0  0  0  0  0  0  0  0  0  0  0  0
    2.1581   -1.3014    2.9736 H   0  0  0  0  0  0  0  0  0  0  0  0
    1.9164   -0.4786    0.6757 H   0  0  0  0  0  0  0  0  0  0  0  0
    3.6725   -2.0478    1.3511 H   0  0  0  0  0  0  0  0  0  0  0  0
    5.4179    0.4205    0.9369 H   0  0  0  0  0  0  0  0  0  0  0  0
    5.1871   -0.3152    2.5122 H   0  0  0  0  0  0  0  0  0  0  0  0
    7.3058   -1.0638    1.2726 H   0  0  0  0  0  0  0  0  0  0  0  0
    6.2581   -2.3754    1.7931 H   0  0  0  0  0  0  0  0  0  0  0  0
    6.9938   -3.4596   -2.9452 H   0  0  0  0  0  0  0  0  0  0  0  0
    3.0437   -1.7985   -0.9856 H   0  0  0  0  0  0  0  0  0  0  0  0
    3.9101   -0.2740   -1.1218 H   0  0  0  0  0  0  0  0  0  0  0  0
   -0.2741   -0.9885    3.3376 H   0  0  0  0  0  0  0  0  0  0  0  0
  1  2  1  0
  1 18  1  0
  1 19  1  0
  1 20  1  0
  2  6  1  0
  2  3  1  0
  3  4  2  0
  3 21  1  0
  4  5  1  0
  4 22  1  0
  5  6  2  0
  5 34  1  0
  6  7  1  0
  7  8  1  0
  7 23  1  0
  7 24  1  0
  8  9  1  0
  8 25  1  0
  9 17  1  0
  9 10  1  0
  9 26  1  1
 10 11  1  0
 10 27  1  0
 10 28  1  0
 11 12  1  0
 11 29  1  0
 11 30  1  0
 12 16  1  0
 12 13  2  0
 13 14  1  0
 14 15  2  0
 14 31  1  0
 15 16  1  0
 16 17  1  0
 17 32  1  0
 17 33  1  0
M  CHG  1   5   1
M  END
>  <i_m_ct_stereo_status>  (132) 
1

>  <s_m_source_file>  (132) 
/var/tmp/pbs.5076255.sched01/tmpguie9axe/40t6mruo9t.sdf

>  <i_m_source_file_index>  (132) 
11

>  <i_lp_mmshare_version>  (132) 
48012

>  <i_f3d_flags>  (132) 
0

>  <s_epik_input>  (132) 
W0NIM11uMVtjSF1bY0hdbmMxW0NIMl1bTkhdW0NASF0oW0NIMl1bQ0gyXTIpW0NIMl1uKGMyMyluW2NIXW4z

>  <s_epik_cmdline>  (132) 
J2VwaWtfcHl0aG9uJywgJy1waHQnLCAnMi4wJywgJy1waCcsICc3LjAnLCAnLXRuJywgJzgnLCAnLW1hJywgJzIwMCcsICctaW1hZScsICc8aW5maWxlLm1hZT4nLCAnLW9tYWUnLCAnPG91dGZpbGUubWFlPic=

>  <r_lp_tautomer_probability>  (132) 
1

>  <r_epik_Ionization_Penalty>  (132) 
0.16879

>  <r_epik_Ionization_Penalty_Charging>  (132) 
0

>  <r_epik_Ionization_Penalty_Neutral>  (132) 
0.16879

>  <r_epik_State_Penalty>  (132) 
1.60078

>  <r_epik_Charging_Adjusted_Penalty>  (132) 
1.60078

>  <i_epik_Tot_Q>  (132) 
1

>  <i_epik_Tot_abs_Q>  (132) 
1

>  <s_lp_Force_Field>  (132) 
OPLS3e

>  <r_lp_Energy>  (132) 
32.6333

>  <b_lp_Chiralities_Consistent>  (132) 
1

>  <s_lp_Variant>  (132) 
34:0-2

>  <s_i_glide_gridfile>  (132) 
pfpi4k_grid

>  <i_i_glide_lignum>  (132) 
11

>  <i_i_glide_rotatable_bonds>  (132) 
3

>  <r_i_docking_score>  (132) 
-3.88256

>  <r_i_glide_ligand_efficiency>  (132) 
-0.228386

>  <r_i_glide_ligand_efficiency_sa>  (132) 
-0.587244

>  <r_i_glide_ligand_efficiency_ln>  (132) 
-1.01287

>  <r_i_glide_gscore>  (132) 
-3.88256

>  <r_i_glide_lipo>  (132) 
-0.282408

>  <r_i_glide_hbond>  (132) 
-0.236845

>  <r_i_glide_metal>  (132) 
-0

>  <r_i_glide_rewards>  (132) 
-1.81846

>  <r_i_glide_evdw>  (132) 
-20.8994

>  <r_i_glide_ecoul>  (132) 
-8.71044

>  <r_i_glide_erotb>  (132) 
0.945279

>  <r_i_glide_esite>  (132) 
-0.138585

>  <r_i_glide_emodel>  (132) 
-38.466

>  <r_i_glide_energy>  (132) 
-29.6099

>  <r_i_glide_einternal>  (132) 
0.205484

>  <r_i_glide_intrahb_reward>  (132) 
-0

>  <i_i_glide_confnum>  (132) 
5

>  <i_i_glide_posenum>  (132) 
31

>  <r_i_glide_eff_state_penalty>  (132) 
0

>  <ligand_id>  (132) 
34

>  <original_smiles>  (132) 
Cn1ccnc1CNC1CCc2ncnn2C1

>  <smiles>  (132) 
[H]c1nc2n(n1)C([H])([H])C([H])(N([H])C([H])([H])c1n(C([H])([H])[H])c([H])c([H])[n+]1[H])C([H])([H])C2([H])[H]

$$$$
34:2:0
     RDKit          3D

 33 35  0  0  1  0  0  0  0  0999 V2000
    3.3174   -8.3474    1.7214 C   0  0  0  0  0  0  0  0  0  0  0  0
    1.9859   -7.7769    1.7807 N   0  0  0  0  0  0  0  0  0  0  0  0
    0.9195   -8.2943    2.5062 C   0  0  0  0  0  0  0  0  0  0  0  0
   -0.1543   -7.4697    2.2780 C   0  0  0  0  0  0  0  0  0  0  0  0
    0.2273   -6.4368    1.4309 N   0  0  0  0  0  0  0  0  0  0  0  0
    1.5167   -6.6679    1.1757 C   0  0  0  0  0  0  0  0  0  0  0  0
    2.3465   -5.8126    0.2667 C   0  0  0  0  0  0  0  0  0  0  0  0
    2.5340   -4.4600    0.7756 N   0  0  0  0  0  0  0  0  0  0  0  0
    3.2350   -3.5934   -0.1684 C   0  0  2  0  0  0  0  0  0  0  0  0
    3.5680   -2.2449    0.5169 C   0  0  0  0  0  0  0  0  0  0  0  0
    4.4338   -1.3619   -0.4068 C   0  0  0  0  0  0  0  0  0  0  0  0
    3.9160   -1.3394   -1.8111 C   0  0  0  0  0  0  0  0  0  0  0  0
    4.2532   -0.4739   -2.7571 N   0  0  0  0  0  0  0  0  0  0  0  0
    3.4884   -0.9461   -3.7874 C   0  0  0  0  0  0  0  0  0  0  0  0
    2.7840   -2.0481   -3.5383 N   0  0  0  0  0  0  0  0  0  0  0  0
    3.0590   -2.2718   -2.2362 N   0  0  0  0  0  0  0  0  0  0  0  0
    2.4433   -3.3388   -1.4771 C   0  0  0  0  0  0  0  0  0  0  0  0
    3.3174   -9.3476    2.1584 H   0  0  0  0  0  0  0  0  0  0  0  0
    4.0118   -7.7164    2.2784 H   0  0  0  0  0  0  0  0  0  0  0  0
    3.6565   -8.4329    0.6886 H   0  0  0  0  0  0  0  0  0  0  0  0
    1.0051   -9.1922    3.1046 H   0  0  0  0  0  0  0  0  0  0  0  0
   -1.1620   -7.5438    2.6667 H   0  0  0  0  0  0  0  0  0  0  0  0
    3.3217   -6.2647    0.0804 H   0  0  0  0  0  0  0  0  0  0  0  0
    1.8214   -5.7865   -0.6843 H   0  0  0  0  0  0  0  0  0  0  0  0
    3.0796   -4.5116    1.6237 H   0  0  0  0  0  0  0  0  0  0  0  0
    4.1830   -4.0709   -0.4249 H   0  0  0  0  0  0  0  0  0  0  0  0
    2.6358   -1.7142    0.7259 H   0  0  0  0  0  0  0  0  0  0  0  0
    4.0672   -2.3859    1.4792 H   0  0  0  0  0  0  0  0  0  0  0  0
    4.4910   -0.3411   -0.0270 H   0  0  0  0  0  0  0  0  0  0  0  0
    5.4482   -1.7589   -0.4315 H   0  0  0  0  0  0  0  0  0  0  0  0
    3.4753   -0.4821   -4.7667 H   0  0  0  0  0  0  0  0  0  0  0  0
    2.3872   -4.2175   -2.1042 H   0  0  0  0  0  0  0  0  0  0  0  0
    1.4177   -3.0615   -1.2602 H   0  0  0  0  0  0  0  0  0  0  0  0
  1  2  1  0
  1 18  1  0
  1 19  1  0
  1 20  1  0
  2  6  1  0
  2  3  1  0
  3  4  2  0
  3 21  1  0
  4  5  1  0
  4 22  1  0
  5  6  2  0
  6  7  1  0
  7  8  1  0
  7 23  1  0
  7 24  1  0
  8  9  1  0
  8 25  1  0
  9 17  1  0
  9 10  1  0
  9 26  1  6
 10 11  1  0
 10 27  1  0
 10 28  1  0
 11 12  1  0
 11 29  1  0
 11 30  1  0
 12 16  1  0
 12 13  2  0
 13 14  1  0
 14 15  2  0
 14 31  1  0
 15 16  1  0
 16 17  1  0
 17 32  1  0
 17 33  1  0
M  END
>  <i_m_ct_stereo_status>  (133) 
1

>  <s_m_source_file>  (133) 
/var/tmp/pbs.5076255.sched01/tmpguie9axe/40t6mruo9t.sdf

>  <i_m_source_file_index>  (133) 
12

>  <i_lp_mmshare_version>  (133) 
48012

>  <i_f3d_flags>  (133) 
0

>  <s_epik_input>  (133) 
W0NIM11uMVtjSF1bY0hdbmMxW0NIMl1bTkhdW0NASF0oW0NIMl1bQ0gyXTIpW0NIMl1uKGMyMyluW2NIXW4z

>  <s_epik_cmdline>  (133) 
J2VwaWtfcHl0aG9uJywgJy1waHQnLCAnMi4wJywgJy1waCcsICc3LjAnLCAnLXRuJywgJzgnLCAnLW1hJywgJzIwMCcsICctaW1hZScsICc8aW5maWxlLm1hZT4nLCAnLW9tYWUnLCAnPG91dGZpbGUubWFlPic=

>  <r_lp_tautomer_probability>  (133) 
1

>  <r_epik_Ionization_Penalty>  (133) 
1.85778

>  <r_epik_Ionization_Penalty_Charging>  (133) 
1.27195

>  <r_epik_Ionization_Penalty_Neutral>  (133) 
0.585823

>  <r_epik_State_Penalty>  (133) 
1.64431

>  <r_epik_Charging_Adjusted_Penalty>  (133) 
2.91626

>  <i_epik_Tot_Q>  (133) 
0

>  <i_epik_Tot_abs_Q>  (133) 
0

>  <s_lp_Force_Field>  (133) 
OPLS3e

>  <r_lp_Energy>  (133) 
27.1378

>  <b_lp_Chiralities_Consistent>  (133) 
1

>  <s_lp_Variant>  (133) 
34:0-3

>  <s_i_glide_gridfile>  (133) 
pfpi4k_grid

>  <i_i_glide_lignum>  (133) 
12

>  <i_i_glide_rotatable_bonds>  (133) 
3

>  <r_i_docking_score>  (133) 
-3.44723

>  <r_i_glide_ligand_efficiency>  (133) 
-0.202778

>  <r_i_glide_ligand_efficiency_sa>  (133) 
-0.5214

>  <r_i_glide_ligand_efficiency_ln>  (133) 
-0.899305

>  <r_i_glide_gscore>  (133) 
-3.44723

>  <r_i_glide_lipo>  (133) 
-0.112089

>  <r_i_glide_hbond>  (133) 
-0.204737

>  <r_i_glide_metal>  (133) 
-0

>  <r_i_glide_rewards>  (133) 
-2.10847

>  <r_i_glide_evdw>  (133) 
-23.0937

>  <r_i_glide_ecoul>  (133) 
-4.18822

>  <r_i_glide_erotb>  (133) 
0.95226

>  <r_i_glide_esite>  (133) 
-0.191278

>  <r_i_glide_emodel>  (133) 
-34.0255

>  <r_i_glide_energy>  (133) 
-27.2819

>  <r_i_glide_einternal>  (133) 
0.455762

>  <r_i_glide_intrahb_reward>  (133) 
-0

>  <i_i_glide_confnum>  (133) 
3

>  <i_i_glide_posenum>  (133) 
7

>  <r_i_glide_eff_state_penalty>  (133) 
0

>  <ligand_id>  (133) 
34

>  <original_smiles>  (133) 
Cn1ccnc1CNC1CCc2ncnn2C1

>  <smiles>  (133) 
[H]c1nc2n(n1)C([H])([H])C([H])(N([H])C([H])([H])c1nc([H])c([H])n1C([H])([H])[H])C([H])([H])C2([H])[H]

$$$$
34:2:1
     RDKit          3D

 33 35  0  0  1  0  0  0  0  0999 V2000
    1.8101   -9.6040    2.2767 C   0  0  0  0  0  0  0  0  0  0  0  0
    0.6946   -8.6970    2.4676 N   0  0  0  0  0  0  0  0  0  0  0  0
   -0.4453   -8.9636    3.2148 C   0  0  0  0  0  0  0  0  0  0  0  0
   -1.2528   -7.8587    3.1134 C   0  0  0  0  0  0  0  0  0  0  0  0
   -0.6319   -6.9013    2.3211 N   0  0  0  0  0  0  0  0  0  0  0  0
    0.5244   -7.4574    1.9642 C   0  0  0  0  0  0  0  0  0  0  0  0
    1.5227   -6.7853    1.0729 C   0  0  0  0  0  0  0  0  0  0  0  0
    1.8949   -5.4518    1.5300 N   0  0  0  0  0  0  0  0  0  0  0  0
    2.7758   -4.7732    0.5793 C   0  0  2  0  0  0  0  0  0  0  0  0
    4.2200   -5.3252    0.6431 C   0  0  0  0  0  0  0  0  0  0  0  0
    5.0900   -4.6966   -0.4616 C   0  0  0  0  0  0  0  0  0  0  0  0
    4.9127   -3.2180   -0.5410 C   0  0  0  0  0  0  0  0  0  0  0  0
    5.7198   -2.3677   -1.1637 N   0  0  0  0  0  0  0  0  0  0  0  0
    5.0407   -1.2035   -0.9287 C   0  0  0  0  0  0  0  0  0  0  0  0
    3.9304   -1.3017   -0.1993 N   0  0  0  0  0  0  0  0  0  0  0  0
    3.8504   -2.6303    0.0160 N   0  0  0  0  0  0  0  0  0  0  0  0
    2.7885   -3.2370    0.8010 C   0  0  0  0  0  0  0  0  0  0  0  0
    1.5477  -10.6012    2.6347 H   0  0  0  0  0  0  0  0  0  0  0  0
    2.6780   -9.2435    2.8307 H   0  0  0  0  0  0  0  0  0  0  0  0
    2.0639   -9.6814    1.2179 H   0  0  0  0  0  0  0  0  0  0  0  0
   -0.5905   -9.8978    3.7431 H   0  0  0  0  0  0  0  0  0  0  0  0
   -2.2238   -7.6855    3.5540 H   0  0  0  0  0  0  0  0  0  0  0  0
    2.4106   -7.4087    0.9772 H   0  0  0  0  0  0  0  0  0  0  0  0
    1.0787   -6.7094    0.0832 H   0  0  0  0  0  0  0  0  0  0  0  0
    2.3534   -5.5224    2.4274 H   0  0  0  0  0  0  0  0  0  0  0  0
    2.3865   -4.9357   -0.4273 H   0  0  0  0  0  0  0  0  0  0  0  0
    4.6503   -5.0752    1.6145 H   0  0  0  0  0  0  0  0  0  0  0  0
    4.2651   -6.4094    0.5528 H   0  0  0  0  0  0  0  0  0  0  0  0
    6.1428   -4.9162   -0.2939 H   0  0  0  0  0  0  0  0  0  0  0  0
    4.8104   -5.1133   -1.4286 H   0  0  0  0  0  0  0  0  0  0  0  0
    5.3917   -0.2552   -1.2938 H   0  0  0  0  0  0  0  0  0  0  0  0
    1.8414   -2.7783    0.5202 H   0  0  0  0  0  0  0  0  0  0  0  0
    2.9718   -2.9876    1.8455 H   0  0  0  0  0  0  0  0  0  0  0  0
  1  2  1  0
  1 18  1  0
  1 19  1  0
  1 20  1  0
  2  6  1  0
  2  3  1  0
  3  4  2  0
  3 21  1  0
  4  5  1  0
  4 22  1  0
  5  6  2  0
  6  7  1  0
  7  8  1  0
  7 23  1  0
  7 24  1  0
  8  9  1  0
  8 25  1  0
  9 17  1  0
  9 10  1  0
  9 26  1  6
 10 11  1  0
 10 27  1  0
 10 28  1  0
 11 12  1  0
 11 29  1  0
 11 30  1  0
 12 16  1  0
 12 13  2  0
 13 14  1  0
 14 15  2  0
 14 31  1  0
 15 16  1  0
 16 17  1  0
 17 32  1  0
 17 33  1  0
M  END
>  <i_m_ct_stereo_status>  (134) 
1

>  <s_m_source_file>  (134) 
/var/tmp/pbs.5076255.sched01/tmpguie9axe/40t6mruo9t.sdf

>  <i_m_source_file_index>  (134) 
12

>  <i_lp_mmshare_version>  (134) 
48012

>  <i_f3d_flags>  (134) 
0

>  <s_epik_input>  (134) 
W0NIM11uMVtjSF1bY0hdbmMxW0NIMl1bTkhdW0NASF0oW0NIMl1bQ0gyXTIpW0NIMl1uKGMyMyluW2NIXW4z

>  <s_epik_cmdline>  (134) 
J2VwaWtfcHl0aG9uJywgJy1waHQnLCAnMi4wJywgJy1waCcsICc3LjAnLCAnLXRuJywgJzgnLCAnLW1hJywgJzIwMCcsICctaW1hZScsICc8aW5maWxlLm1hZT4nLCAnLW9tYWUnLCAnPG91dGZpbGUubWFlPic=

>  <r_lp_tautomer_probability>  (134) 
1

>  <r_epik_Ionization_Penalty>  (134) 
1.85778

>  <r_epik_Ionization_Penalty_Charging>  (134) 
1.27195

>  <r_epik_Ionization_Penalty_Neutral>  (134) 
0.585823

>  <r_epik_State_Penalty>  (134) 
1.64431

>  <r_epik_Charging_Adjusted_Penalty>  (134) 
2.91626

>  <i_epik_Tot_Q>  (134) 
0

>  <i_epik_Tot_abs_Q>  (134) 
0

>  <s_lp_Force_Field>  (134) 
OPLS3e

>  <r_lp_Energy>  (134) 
27.1378

>  <b_lp_Chiralities_Consistent>  (134) 
1

>  <s_lp_Variant>  (134) 
34:0-3

>  <s_i_glide_gridfile>  (134) 
pfpi4k_grid

>  <i_i_glide_lignum>  (134) 
12

>  <i_i_glide_rotatable_bonds>  (134) 
3

>  <r_i_docking_score>  (134) 
-3.33805

>  <r_i_glide_ligand_efficiency>  (134) 
-0.196356

>  <r_i_glide_ligand_efficiency_sa>  (134) 
-0.504887

>  <r_i_glide_ligand_efficiency_ln>  (134) 
-0.870824

>  <r_i_glide_gscore>  (134) 
-3.33805

>  <r_i_glide_lipo>  (134) 
-0.150286

>  <r_i_glide_hbond>  (134) 
-0.198384

>  <r_i_glide_metal>  (134) 
-0

>  <r_i_glide_rewards>  (134) 
-1.87523

>  <r_i_glide_evdw>  (134) 
-22.4238

>  <r_i_glide_ecoul>  (134) 
-5.38224

>  <r_i_glide_erotb>  (134) 
0.95226

>  <r_i_glide_esite>  (134) 
-0.137892

>  <r_i_glide_emodel>  (134) 
-34.0141

>  <r_i_glide_energy>  (134) 
-27.806

>  <r_i_glide_einternal>  (134) 
1.0993

>  <r_i_glide_intrahb_reward>  (134) 
-0

>  <i_i_glide_confnum>  (134) 
4

>  <i_i_glide_posenum>  (134) 
29

>  <r_i_glide_eff_state_penalty>  (134) 
0

>  <ligand_id>  (134) 
34

>  <original_smiles>  (134) 
Cn1ccnc1CNC1CCc2ncnn2C1

>  <smiles>  (134) 
[H]c1nc2n(n1)C([H])([H])C([H])(N([H])C([H])([H])c1nc([H])c([H])n1C([H])([H])[H])C([H])([H])C2([H])[H]

$$$$
34:2:2
     RDKit          3D

 33 35  0  0  1  0  0  0  0  0999 V2000
    1.7080   -9.4798    2.3859 C   0  0  0  0  0  0  0  0  0  0  0  0
    0.6434   -8.4975    2.4687 N   0  0  0  0  0  0  0  0  0  0  0  0
   -0.5201   -8.6363    3.2168 C   0  0  0  0  0  0  0  0  0  0  0  0
   -1.2563   -7.5018    3.0051 C   0  0  0  0  0  0  0  0  0  0  0  0
   -0.5746   -6.6695    2.1237 N   0  0  0  0  0  0  0  0  0  0  0  0
    0.5642   -7.2997    1.8529 C   0  0  0  0  0  0  0  0  0  0  0  0
    1.6242   -6.7421    0.9435 C   0  0  0  0  0  0  0  0  0  0  0  0
    2.1128   -5.4308    1.3528 N   0  0  0  0  0  0  0  0  0  0  0  0
    3.0998   -4.9043    0.4068 C   0  0  2  0  0  0  0  0  0  0  0  0
    4.2255   -4.1681    1.1701 C   0  0  0  0  0  0  0  0  0  0  0  0
    5.3359   -3.7186    0.1971 C   0  0  0  0  0  0  0  0  0  0  0  0
    4.7886   -3.0740   -1.0355 C   0  0  0  0  0  0  0  0  0  0  0  0
    5.4646   -2.3207   -1.8995 N   0  0  0  0  0  0  0  0  0  0  0  0
    4.4634   -2.0529   -2.7960 C   0  0  0  0  0  0  0  0  0  0  0  0
    3.2719   -2.5924   -2.5279 N   0  0  0  0  0  0  0  0  0  0  0  0
    3.5072   -3.2476   -1.3710 N   0  0  0  0  0  0  0  0  0  0  0  0
    2.4652   -3.9598   -0.6453 C   0  0  0  0  0  0  0  0  0  0  0  0
    1.3777  -10.4266    2.8179 H   0  0  0  0  0  0  0  0  0  0  0  0
    2.5844   -9.1262    2.9320 H   0  0  0  0  0  0  0  0  0  0  0  0
    1.9752   -9.6591    1.3433 H   0  0  0  0  0  0  0  0  0  0  0  0
   -0.7320   -9.5077    3.8215 H   0  0  0  0  0  0  0  0  0  0  0  0
   -2.2193   -7.2212    3.4159 H   0  0  0  0  0  0  0  0  0  0  0  0
    2.4601   -7.4364    0.8845 H   0  0  0  0  0  0  0  0  0  0  0  0
    1.1936   -6.6564   -0.0522 H   0  0  0  0  0  0  0  0  0  0  0  0
    2.5651   -5.5417    2.2503 H   0  0  0  0  0  0  0  0  0  0  0  0
    3.5773   -5.7308   -0.1236 H   0  0  0  0  0  0  0  0  0  0  0  0
    3.8130   -3.2787    1.6508 H   0  0  0  0  0  0  0  0  0  0  0  0
    4.6532   -4.7855    1.9627 H   0  0  0  0  0  0  0  0  0  0  0  0
    6.0252   -3.0298    0.6839 H   0  0  0  0  0  0  0  0  0  0  0  0
    5.9195   -4.5854   -0.1122 H   0  0  0  0  0  0  0  0  0  0  0  0
    4.6106   -1.4460   -3.6807 H   0  0  0  0  0  0  0  0  0  0  0  0
    1.8319   -4.5014   -1.3470 H   0  0  0  0  0  0  0  0  0  0  0  0
    1.8371   -3.2082   -0.1678 H   0  0  0  0  0  0  0  0  0  0  0  0
  1  2  1  0
  1 18  1  0
  1 19  1  0
  1 20  1  0
  2  6  1  0
  2  3  1  0
  3  4  2  0
  3 21  1  0
  4  5  1  0
  4 22  1  0
  5  6  2  0
  6  7  1  0
  7  8  1  0
  7 23  1  0
  7 24  1  0
  8  9  1  0
  8 25  1  0
  9 17  1  0
  9 10  1  0
  9 26  1  6
 10 11  1  0
 10 27  1  0
 10 28  1  0
 11 12  1  0
 11 29  1  0
 11 30  1  0
 12 16  1  0
 12 13  2  0
 13 14  1  0
 14 15  2  0
 14 31  1  0
 15 16  1  0
 16 17  1  0
 17 32  1  0
 17 33  1  0
M  END
>  <i_m_ct_stereo_status>  (135) 
1

>  <s_m_source_file>  (135) 
/var/tmp/pbs.5076255.sched01/tmpguie9axe/40t6mruo9t.sdf

>  <i_m_source_file_index>  (135) 
12

>  <i_lp_mmshare_version>  (135) 
48012

>  <i_f3d_flags>  (135) 
0

>  <s_epik_input>  (135) 
W0NIM11uMVtjSF1bY0hdbmMxW0NIMl1bTkhdW0NASF0oW0NIMl1bQ0gyXTIpW0NIMl1uKGMyMyluW2NIXW4z

>  <s_epik_cmdline>  (135) 
J2VwaWtfcHl0aG9uJywgJy1waHQnLCAnMi4wJywgJy1waCcsICc3LjAnLCAnLXRuJywgJzgnLCAnLW1hJywgJzIwMCcsICctaW1hZScsICc8aW5maWxlLm1hZT4nLCAnLW9tYWUnLCAnPG91dGZpbGUubWFlPic=

>  <r_lp_tautomer_probability>  (135) 
1

>  <r_epik_Ionization_Penalty>  (135) 
1.85778

>  <r_epik_Ionization_Penalty_Charging>  (135) 
1.27195

>  <r_epik_Ionization_Penalty_Neutral>  (135) 
0.585823

>  <r_epik_State_Penalty>  (135) 
1.64431

>  <r_epik_Charging_Adjusted_Penalty>  (135) 
2.91626

>  <i_epik_Tot_Q>  (135) 
0

>  <i_epik_Tot_abs_Q>  (135) 
0

>  <s_lp_Force_Field>  (135) 
OPLS3e

>  <r_lp_Energy>  (135) 
27.1378

>  <b_lp_Chiralities_Consistent>  (135) 
1

>  <s_lp_Variant>  (135) 
34:0-3

>  <s_i_glide_gridfile>  (135) 
pfpi4k_grid

>  <i_i_glide_lignum>  (135) 
12

>  <i_i_glide_rotatable_bonds>  (135) 
3

>  <r_i_docking_score>  (135) 
-3.32002

>  <r_i_glide_ligand_efficiency>  (135) 
-0.195295

>  <r_i_glide_ligand_efficiency_sa>  (135) 
-0.502159

>  <r_i_glide_ligand_efficiency_ln>  (135) 
-0.866118

>  <r_i_glide_gscore>  (135) 
-3.32002

>  <r_i_glide_lipo>  (135) 
-0.154885

>  <r_i_glide_hbond>  (135) 
-0.168328

>  <r_i_glide_metal>  (135) 
-0

>  <r_i_glide_rewards>  (135) 
-1.98118

>  <r_i_glide_evdw>  (135) 
-23.287

>  <r_i_glide_ecoul>  (135) 
-4.73411

>  <r_i_glide_erotb>  (135) 
0.95226

>  <r_i_glide_esite>  (135) 
-0.0934177

>  <r_i_glide_emodel>  (135) 
-33.876

>  <r_i_glide_energy>  (135) 
-28.0211

>  <r_i_glide_einternal>  (135) 
1.59566

>  <r_i_glide_intrahb_reward>  (135) 
-0

>  <i_i_glide_confnum>  (135) 
3

>  <i_i_glide_posenum>  (135) 
21

>  <r_i_glide_eff_state_penalty>  (135) 
0

>  <ligand_id>  (135) 
34

>  <original_smiles>  (135) 
Cn1ccnc1CNC1CCc2ncnn2C1

>  <smiles>  (135) 
[H]c1nc2n(n1)C([H])([H])C([H])(N([H])C([H])([H])c1nc([H])c([H])n1C([H])([H])[H])C([H])([H])C2([H])[H]

$$$$
35:0:0
     RDKit          3D

 72 76  0  0  1  0  0  0  0  0999 V2000
    4.0544    0.0135    6.8155 C   0  0  0  0  0  0  0  0  0  0  0  0
    4.3339    0.2496    5.2970 C   0  0  0  0  0  0  0  0  0  0  0  0
    5.8725    0.4906    5.2045 C   0  0  0  0  0  0  0  0  0  0  0  0
    4.1620   -1.2383    4.7334 C   0  0  0  0  0  0  0  0  0  0  0  0
    2.7617   -1.6924    4.2521 C   0  0  0  0  0  0  0  0  0  0  0  0
    2.0116   -0.4537    3.8984 C   0  0  0  0  0  0  0  0  0  0  0  0
    0.8241   -0.0512    4.3493 C   0  0  0  0  0  0  0  0  0  0  0  0
   -0.4339   -0.8662    4.8874 C   0  0  0  0  0  0  0  0  0  0  0  0
   -1.5642    0.1357    5.3754 C   0  0  0  0  0  0  0  0  0  0  0  0
   -2.4710   -0.2595    6.0784 O   0  0  0  0  0  0  0  0  0  0  0  0
   -1.3345    1.5692    5.0251 C   0  0  0  0  0  0  0  0  0  0  0  0
   -1.0468    2.6471    5.9263 C   0  0  0  0  0  0  0  0  0  0  0  0
    0.2201    3.7576    5.8014 C   0  0  2  0  0  0  0  0  0  0  0  0
    0.5062    4.1743    4.3868 C   0  0  2  0  0  0  0  0  0  0  0  0
   -0.5221    4.8399    3.8643 F   0  0  0  0  0  0  0  0  0  0  0  0
    1.0290    2.9105    3.7188 C   0  0  0  0  0  0  0  0  0  0  0  0
    0.6137    1.4937    4.4763 C   0  0  2  0  0  0  0  0  0  0  0  0
    1.0506    1.0687    6.0832 C   0  0  0  0  0  0  0  0  0  0  0  0
   -0.7216    1.6317    3.6554 C   0  0  2  0  0  0  0  0  0  0  0  0
   -1.7264    2.6801    3.0188 C   0  0  0  0  0  0  0  0  0  0  0  0
   -0.1463    0.8200    2.3301 C   0  0  0  0  0  0  0  0  0  0  0  0
    1.5090    0.9230    2.0381 C   0  0  0  0  0  0  0  0  0  0  0  0
    2.7243    0.6392    3.1854 C   0  0  2  0  0  0  0  0  0  0  0  0
    3.8336    0.1595    2.1775 C   0  0  0  0  0  0  0  0  0  0  0  0
    3.5064    1.4614    4.5010 C   0  0  1  0  0  0  0  0  0  0  0  0
    3.2200    2.9894    5.4069 C   0  0  1  0  0  0  0  0  0  0  0  0
    4.5037    3.2652    6.2553 C   0  0  0  0  0  0  0  0  0  0  0  0
    3.6000    4.0189    4.4938 O   0  0  0  0  0  0  0  0  0  0  0  0
    1.8599    3.6561    6.3433 C   0  0  0  0  0  0  0  0  0  0  0  0
    2.1689    5.1933    6.5951 C   0  0  0  0  0  0  0  0  0  0  0  0
    1.9150    3.2440    7.8690 C   0  0  0  0  0  0  0  0  0  0  0  0
    4.8583   -0.5477    7.2844 H   0  0  0  0  0  0  0  0  0  0  0  0
    3.1525   -0.5809    6.9738 H   0  0  0  0  0  0  0  0  0  0  0  0
    3.9353    0.9010    7.4155 H   0  0  0  0  0  0  0  0  0  0  0  0
    6.1778    0.9065    4.2410 H   0  0  0  0  0  0  0  0  0  0  0  0
    6.4250   -0.4398    5.3184 H   0  0  0  0  0  0  0  0  0  0  0  0
    6.2564    1.1358    5.9905 H   0  0  0  0  0  0  0  0  0  0  0  0
    4.8738   -1.4465    3.9389 H   0  0  0  0  0  0  0  0  0  0  0  0
    4.4762   -1.9675    5.4832 H   0  0  0  0  0  0  0  0  0  0  0  0
    2.8497   -2.3331    3.3712 H   0  0  0  0  0  0  0  0  0  0  0  0
    2.2170   -2.2551    5.0083 H   0  0  0  0  0  0  0  0  0  0  0  0
   -0.8308   -1.5060    4.0981 H   0  0  0  0  0  0  0  0  0  0  0  0
   -0.1478   -1.5208    5.7084 H   0  0  0  0  0  0  0  0  0  0  0  0
   -1.3749    2.5220    6.9464 H   0  0  0  0  0  0  0  0  0  0  0  0
   -0.2328    4.6167    6.3007 H   0  0  0  0  0  0  0  0  0  0  0  0
    1.2649    4.9345    4.2541 H   0  0  0  0  0  0  0  0  0  0  0  0
    0.6591    3.1080    2.7166 H   0  0  0  0  0  0  0  0  0  0  0  0
    2.0176    2.9868    3.3315 H   0  0  0  0  0  0  0  0  0  0  0  0
    2.0693    1.1807    6.2966 H   0  0  0  0  0  0  0  0  0  0  0  0
    0.9780    0.0608    6.5104 H   0  0  0  0  0  0  0  0  0  0  0  0
    0.5588    1.4780    6.9501 H   0  0  0  0  0  0  0  0  0  0  0  0
   -1.3432    3.2703    2.1899 H   0  0  0  0  0  0  0  0  0  0  0  0
   -2.2194    3.3571    3.7177 H   0  0  0  0  0  0  0  0  0  0  0  0
   -2.5611    2.1335    2.5844 H   0  0  0  0  0  0  0  0  0  0  0  0
   -0.4816   -0.2141    2.3150 H   0  0  0  0  0  0  0  0  0  0  0  0
   -0.6288    1.2158    1.4284 H   0  0  0  0  0  0  0  0  0  0  0  0
    1.6208    0.1524    1.2714 H   0  0  0  0  0  0  0  0  0  0  0  0
    1.7414    1.8201    1.4602 H   0  0  0  0  0  0  0  0  0  0  0  0
    3.9221    0.8623    1.3467 H   0  0  0  0  0  0  0  0  0  0  0  0
    3.6389   -0.8211    1.7421 H   0  0  0  0  0  0  0  0  0  0  0  0
    4.8359    0.1431    2.5971 H   0  0  0  0  0  0  0  0  0  0  0  0
    4.2857    1.8868    3.8857 H   0  0  0  0  0  0  0  0  0  0  0  0
    4.5419    2.7808    7.2226 H   0  0  0  0  0  0  0  0  0  0  0  0
    4.6671    4.3162    6.4925 H   0  0  0  0  0  0  0  0  0  0  0  0
    5.4055    3.0129    5.7045 H   0  0  0  0  0  0  0  0  0  0  0  0
    3.0218    4.0003    3.7520 H   0  0  0  0  0  0  0  0  0  0  0  0
    3.0615    5.3868    7.1852 H   0  0  0  0  0  0  0  0  0  0  0  0
    1.3786    5.6797    7.1681 H   0  0  0  0  0  0  0  0  0  0  0  0
    2.3191    5.8094    5.7123 H   0  0  0  0  0  0  0  0  0  0  0  0
    2.6577    3.7870    8.4528 H   0  0  0  0  0  0  0  0  0  0  0  0
    2.1894    2.2108    8.0832 H   0  0  0  0  0  0  0  0  0  0  0  0
    0.9583    3.4287    8.3586 H   0  0  0  0  0  0  0  0  0  0  0  0
  1  2  1  0
  1 32  1  0
  1 33  1  0
  1 34  1  0
  2 25  1  0
  2  3  1  0
  2  4  1  0
  3 35  1  0
  3 36  1  0
  3 37  1  0
  4  5  1  0
  4 38  1  0
  4 39  1  0
  5  6  1  0
  5 40  1  0
  5 41  1  0
  6 23  1  0
  6  7  2  0
  7 17  1  0
  7  8  1  0
  8  9  1  0
  8 42  1  0
  8 43  1  0
  9 10  2  0
  9 11  1  0
 11 19  1  0
 11 12  2  0
 12 13  1  0
 12 44  1  0
 13 29  1  0
 13 14  1  0
 13 45  1  1
 14 15  1  0
 14 16  1  0
 14 46  1  1
 16 17  1  0
 16 47  1  0
 16 48  1  0
 17 18  1  1
 17 19  1  0
 18 49  1  0
 18 50  1  0
 18 51  1  0
 19 20  1  6
 19 21  1  0
 20 52  1  0
 20 53  1  0
 20 54  1  0
 21 22  1  0
 21 55  1  0
 21 56  1  0
 22 23  1  0
 22 57  1  0
 22 58  1  0
 23 24  1  6
 23 25  1  0
 24 59  1  0
 24 60  1  0
 24 61  1  0
 25 26  1  0
 25 62  1  6
 26 27  1  0
 26 28  1  6
 26 29  1  0
 27 63  1  0
 27 64  1  0
 27 65  1  0
 28 66  1  0
 29 30  1  0
 29 31  1  0
 30 67  1  0
 30 68  1  0
 30 69  1  0
 31 70  1  0
 31 71  1  0
 31 72  1  0
M  END
>  <i_m_ct_stereo_status>  (136) 
1

>  <s_m_source_file>  (136) 
/var/tmp/pbs.5076255.sched01/tmpguie9axe/40t6mruo9t.sdf

>  <i_m_source_file_index>  (136) 
13

>  <i_lp_mmshare_version>  (136) 
48012

>  <i_f3d_flags>  (136) 
1

>  <s_epik_input>  (136) 
W0NIM11DMTJDMz1DNFtDQF01KFtDSDNdKVtDQEhdKEMoW0NIM10pKFtDSDNdKVtDSDJdW0NIMl00KVtDQEBdKFtDSDNdKShbT0hdKUMoW0NIM10pKFtDSDNdKVtDQEBIXShbQ0BIXShGKVtDSDJdMSlbQ0hdPUMoQyg9TylbQ0gyXTMpQzIoW0NIM10pW0NIMl1bQ0gyXTU=

>  <s_epik_cmdline>  (136) 
J2VwaWtfcHl0aG9uJywgJy1waHQnLCAnMi4wJywgJy1waCcsICc3LjAnLCAnLXRuJywgJzgnLCAnLW1hJywgJzIwMCcsICctaW1hZScsICc8aW5maWxlLm1hZT4nLCAnLW9tYWUnLCAnPG91dGZpbGUubWFlPic=

>  <r_lp_tautomer_probability>  (136) 
1

>  <r_epik_Ionization_Penalty>  (136) 
2.75763e-07

>  <r_epik_Ionization_Penalty_Charging>  (136) 
0

>  <r_epik_Ionization_Penalty_Neutral>  (136) 
2.75763e-07

>  <r_epik_State_Penalty>  (136) 
-0

>  <r_epik_Charging_Adjusted_Penalty>  (136) 
0

>  <i_epik_Tot_Q>  (136) 
0

>  <i_epik_Tot_abs_Q>  (136) 
0

>  <s_lp_Force_Field>  (136) 
OPLS3e

>  <r_lp_Energy>  (136) 
644.498

>  <b_lp_Chiralities_Consistent>  (136) 
1

>  <s_lp_Variant>  (136) 
35:0-1

>  <s_i_glide_gridfile>  (136) 
pfpi4k_grid

>  <i_i_glide_lignum>  (136) 
13

>  <i_i_glide_rotatable_bonds>  (136) 
1

>  <r_i_docking_score>  (136) 
-2.93917

>  <r_i_glide_ligand_efficiency>  (136) 
-0.0948118

>  <r_i_glide_ligand_efficiency_sa>  (136) 
-0.29784

>  <r_i_glide_ligand_efficiency_ln>  (136) 
-0.662872

>  <r_i_glide_gscore>  (136) 
-2.93917

>  <r_i_glide_lipo>  (136) 
-0.164096

>  <r_i_glide_hbond>  (136) 
-0.143417

>  <r_i_glide_metal>  (136) 
-0

>  <r_i_glide_rewards>  (136) 
-0.486666

>  <r_i_glide_evdw>  (136) 
-23.6532

>  <r_i_glide_ecoul>  (136) 
-5.44452

>  <r_i_glide_erotb>  (136) 
0

>  <r_i_glide_esite>  (136) 
-0.145649

>  <r_i_glide_emodel>  (136) 
-34.4817

>  <r_i_glide_energy>  (136) 
-29.0977

>  <r_i_glide_einternal>  (136) 
0.0440729

>  <r_i_glide_intrahb_reward>  (136) 
-0

>  <i_i_glide_confnum>  (136) 
2

>  <i_i_glide_posenum>  (136) 
2

>  <r_i_glide_eff_state_penalty>  (136) 
0

>  <ligand_id>  (136) 
35

>  <original_smiles>  (136) 
CC1(C)CCC2=C3CC(=O)C4=CC5C(F)CC3(C)C4(C)CCC2(C)C1C(C)(O)C5(C)C

>  <smiles>  (136) 
[H]OC1(C([H])([H])[H])C2([H])C3(C([H])([H])[H])C(=C4C([H])([H])C(=O)C5=C([H])C([H])(C([H])(F)C([H])([H])C4(C([H])([H])[H])C5(C([H])([H])[H])C([H])([H])C3([H])[H])C1(C([H])([H])[H])C([H])([H])[H])C([H])([H])C([H])([H])C2(C([H])([H])[H])C([H])([H])[H]

$$$$
35:0:1
     RDKit          3D

 72 76  0  0  1  0  0  0  0  0999 V2000
    3.9863    0.3813    7.0111 C   0  0  0  0  0  0  0  0  0  0  0  0
    4.1562    0.5281    5.4676 C   0  0  0  0  0  0  0  0  0  0  0  0
    5.6925    0.5596    5.2291 C   0  0  0  0  0  0  0  0  0  0  0  0
    3.7483   -0.9403    4.9816 C   0  0  0  0  0  0  0  0  0  0  0  0
    2.2603   -1.2213    4.6549 C   0  0  0  0  0  0  0  0  0  0  0  0
    1.6384    0.0823    4.3221 C   0  0  0  0  0  0  0  0  0  0  0  0
    0.5371    0.6453    4.8600 C   0  0  0  0  0  0  0  0  0  0  0  0
   -0.7472    0.0263    5.5430 C   0  0  0  0  0  0  0  0  0  0  0  0
   -1.6949    1.1811    6.0898 C   0  0  0  0  0  0  0  0  0  0  0  0
   -2.5888    0.9445    6.8870 O   0  0  0  0  0  0  0  0  0  0  0  0
   -1.3113    2.5567    5.6508 C   0  0  0  0  0  0  0  0  0  0  0  0
   -0.8078    3.6172    6.4652 C   0  0  0  0  0  0  0  0  0  0  0  0
    0.5761    4.5469    6.1804 C   0  0  2  0  0  0  0  0  0  0  0  0
    0.7771    4.8723    4.7271 C   0  0  2  0  0  0  0  0  0  0  0  0
   -0.1959    5.6422    4.2582 F   0  0  0  0  0  0  0  0  0  0  0  0
    1.0663    3.5320    4.0731 C   0  0  0  0  0  0  0  0  0  0  0  0
    0.5533    2.2098    4.9254 C   0  0  2  0  0  0  0  0  0  0  0  0
    1.0806    1.7828    6.4997 C   0  0  0  0  0  0  0  0  0  0  0  0
   -0.8335    2.4863    4.2140 C   0  0  2  0  0  0  0  0  0  0  0  0
   -1.7422    3.6300    3.6252 C   0  0  0  0  0  0  0  0  0  0  0  0
   -0.4916    1.5579    2.8878 C   0  0  0  0  0  0  0  0  0  0  0  0
    1.1369    1.4438    2.4493 C   0  0  0  0  0  0  0  0  0  0  0  0
    2.4120    1.0585    3.4972 C   0  0  2  0  0  0  0  0  0  0  0  0
    3.3630    0.4329    2.4190 C   0  0  0  0  0  0  0  0  0  0  0  0
    3.4147    1.8180    4.6999 C   0  0  1  0  0  0  0  0  0  0  0  0
    3.3998    3.3892    5.5615 C   0  0  1  0  0  0  0  0  0  0  0  0
    4.7759    3.5317    6.2865 C   0  0  0  0  0  0  0  0  0  0  0  0
    3.8150    4.3353    4.5798 O   0  0  0  0  0  0  0  0  0  0  0  0
    2.2248    4.2509    6.5777 C   0  0  0  0  0  0  0  0  0  0  0  0
    2.7474    5.7448    6.7348 C   0  0  0  0  0  0  0  0  0  0  0  0
    2.3722    3.8836    8.1084 C   0  0  0  0  0  0  0  0  0  0  0  0
    4.7593   -0.2652    7.4362 H   0  0  0  0  0  0  0  0  0  0  0  0
    3.0408   -0.0879    7.2736 H   0  0  0  0  0  0  0  0  0  0  0  0
    4.0370    1.2930    7.5823 H   0  0  0  0  0  0  0  0  0  0  0  0
    5.9592    0.9063    4.2330 H   0  0  0  0  0  0  0  0  0  0  0  0
    6.1419   -0.4331    5.3248 H   0  0  0  0  0  0  0  0  0  0  0  0
    6.2305    1.1761    5.9498 H   0  0  0  0  0  0  0  0  0  0  0  0
    4.3614   -1.2646    4.1282 H   0  0  0  0  0  0  0  0  0  0  0  0
    4.0293   -1.6670    5.7325 H   0  0  0  0  0  0  0  0  0  0  0  0
    2.1911   -1.8911    3.8026 H   0  0  0  0  0  0  0  0  0  0  0  0
    1.7233   -1.6954    5.4858 H   0  0  0  0  0  0  0  0  0  0  0  0
   -1.2940   -0.5838    4.8228 H   0  0  0  0  0  0  0  0  0  0  0  0
   -0.4613   -0.6431    6.3574 H   0  0  0  0  0  0  0  0  0  0  0  0
   -1.0490    3.5652    7.5119 H   0  0  0  0  0  0  0  0  0  0  0  0
    0.2781    5.4696    6.6769 H   0  0  0  0  0  0  0  0  0  0  0  0
    1.6087    5.5223    4.5019 H   0  0  0  0  0  0  0  0  0  0  0  0
    0.6288    3.7366    3.1061 H   0  0  0  0  0  0  0  0  0  0  0  0
    2.0127    3.4667    3.6003 H   0  0  0  0  0  0  0  0  0  0  0  0
    2.1152    1.7708    6.6121 H   0  0  0  0  0  0  0  0  0  0  0  0
    0.9229    0.8065    6.9691 H   0  0  0  0  0  0  0  0  0  0  0  0
    0.7306    2.2772    7.3912 H   0  0  0  0  0  0  0  0  0  0  0  0
   -1.3572    4.1340    2.7377 H   0  0  0  0  0  0  0  0  0  0  0  0
   -2.0724    4.3848    4.3324 H   0  0  0  0  0  0  0  0  0  0  0  0
   -2.6759    3.1734    3.2925 H   0  0  0  0  0  0  0  0  0  0  0  0
   -0.9652    0.5736    2.9324 H   0  0  0  0  0  0  0  0  0  0  0  0
   -0.9851    1.9855    2.0296 H   0  0  0  0  0  0  0  0  0  0  0  0
    1.0914    0.6488    1.7023 H   0  0  0  0  0  0  0  0  0  0  0  0
    1.4195    2.2820    1.8160 H   0  0  0  0  0  0  0  0  0  0  0  0
    3.4637    1.0851    1.5472 H   0  0  0  0  0  0  0  0  0  0  0  0
    3.0152   -0.5315    2.0390 H   0  0  0  0  0  0  0  0  0  0  0  0
    4.3845    0.2955    2.7426 H   0  0  0  0  0  0  0  0  0  0  0  0
    4.1943    2.1164    4.0049 H   0  0  0  0  0  0  0  0  0  0  0  0
    4.8432    3.0786    7.2646 H   0  0  0  0  0  0  0  0  0  0  0  0
    5.0944    4.5598    6.4517 H   0  0  0  0  0  0  0  0  0  0  0  0
    5.5911    3.1419    5.6854 H   0  0  0  0  0  0  0  0  0  0  0  0
    3.1847    4.3517    3.8794 H   0  0  0  0  0  0  0  0  0  0  0  0
    3.7070    5.8428    7.2356 H   0  0  0  0  0  0  0  0  0  0  0  0
    2.0800    6.3438    7.3557 H   0  0  0  0  0  0  0  0  0  0  0  0
    2.8886    6.3110    5.8186 H   0  0  0  0  0  0  0  0  0  0  0  0
    3.2273    4.3534    8.6004 H   0  0  0  0  0  0  0  0  0  0  0  0
    2.5353    2.8356    8.3428 H   0  0  0  0  0  0  0  0  0  0  0  0
    1.4959    4.2076    8.6739 H   0  0  0  0  0  0  0  0  0  0  0  0
  1  2  1  0
  1 32  1  0
  1 33  1  0
  1 34  1  0
  2 25  1  0
  2  3  1  0
  2  4  1  0
  3 35  1  0
  3 36  1  0
  3 37  1  0
  4  5  1  0
  4 38  1  0
  4 39  1  0
  5  6  1  0
  5 40  1  0
  5 41  1  0
  6 23  1  0
  6  7  2  0
  7 17  1  0
  7  8  1  0
  8  9  1  0
  8 42  1  0
  8 43  1  0
  9 10  2  0
  9 11  1  0
 11 19  1  0
 11 12  2  0
 12 13  1  0
 12 44  1  0
 13 29  1  0
 13 14  1  0
 13 45  1  1
 14 15  1  0
 14 16  1  0
 14 46  1  1
 16 17  1  0
 16 47  1  0
 16 48  1  0
 17 18  1  1
 17 19  1  0
 18 49  1  0
 18 50  1  0
 18 51  1  0
 19 20  1  6
 19 21  1  0
 20 52  1  0
 20 53  1  0
 20 54  1  0
 21 22  1  0
 21 55  1  0
 21 56  1  0
 22 23  1  0
 22 57  1  0
 22 58  1  0
 23 24  1  6
 23 25  1  0
 24 59  1  0
 24 60  1  0
 24 61  1  0
 25 26  1  0
 25 62  1  6
 26 27  1  0
 26 28  1  6
 26 29  1  0
 27 63  1  0
 27 64  1  0
 27 65  1  0
 28 66  1  0
 29 30  1  0
 29 31  1  0
 30 67  1  0
 30 68  1  0
 30 69  1  0
 31 70  1  0
 31 71  1  0
 31 72  1  0
M  END
>  <i_m_ct_stereo_status>  (137) 
1

>  <s_m_source_file>  (137) 
/var/tmp/pbs.5076255.sched01/tmpguie9axe/40t6mruo9t.sdf

>  <i_m_source_file_index>  (137) 
13

>  <i_lp_mmshare_version>  (137) 
48012

>  <i_f3d_flags>  (137) 
1

>  <s_epik_input>  (137) 
W0NIM11DMTJDMz1DNFtDQF01KFtDSDNdKVtDQEhdKEMoW0NIM10pKFtDSDNdKVtDSDJdW0NIMl00KVtDQEBdKFtDSDNdKShbT0hdKUMoW0NIM10pKFtDSDNdKVtDQEBIXShbQ0BIXShGKVtDSDJdMSlbQ0hdPUMoQyg9TylbQ0gyXTMpQzIoW0NIM10pW0NIMl1bQ0gyXTU=

>  <s_epik_cmdline>  (137) 
J2VwaWtfcHl0aG9uJywgJy1waHQnLCAnMi4wJywgJy1waCcsICc3LjAnLCAnLXRuJywgJzgnLCAnLW1hJywgJzIwMCcsICctaW1hZScsICc8aW5maWxlLm1hZT4nLCAnLW9tYWUnLCAnPG91dGZpbGUubWFlPic=

>  <r_lp_tautomer_probability>  (137) 
1

>  <r_epik_Ionization_Penalty>  (137) 
2.75763e-07

>  <r_epik_Ionization_Penalty_Charging>  (137) 
0

>  <r_epik_Ionization_Penalty_Neutral>  (137) 
2.75763e-07

>  <r_epik_State_Penalty>  (137) 
-0

>  <r_epik_Charging_Adjusted_Penalty>  (137) 
0

>  <i_epik_Tot_Q>  (137) 
0

>  <i_epik_Tot_abs_Q>  (137) 
0

>  <s_lp_Force_Field>  (137) 
OPLS3e

>  <r_lp_Energy>  (137) 
644.498

>  <b_lp_Chiralities_Consistent>  (137) 
1

>  <s_lp_Variant>  (137) 
35:0-1

>  <s_i_glide_gridfile>  (137) 
pfpi4k_grid

>  <i_i_glide_lignum>  (137) 
13

>  <i_i_glide_rotatable_bonds>  (137) 
1

>  <r_i_docking_score>  (137) 
-2.90461

>  <r_i_glide_ligand_efficiency>  (137) 
-0.0936972

>  <r_i_glide_ligand_efficiency_sa>  (137) 
-0.294339

>  <r_i_glide_ligand_efficiency_ln>  (137) 
-0.65508

>  <r_i_glide_gscore>  (137) 
-2.90461

>  <r_i_glide_lipo>  (137) 
-0.180339

>  <r_i_glide_hbond>  (137) 
-0.16

>  <r_i_glide_metal>  (137) 
-0

>  <r_i_glide_rewards>  (137) 
-0.486666

>  <r_i_glide_evdw>  (137) 
-24.9054

>  <r_i_glide_ecoul>  (137) 
-4.64356

>  <r_i_glide_erotb>  (137) 
0

>  <r_i_glide_esite>  (137) 
-0.135804

>  <r_i_glide_emodel>  (137) 
-34.878

>  <r_i_glide_energy>  (137) 
-29.549

>  <r_i_glide_einternal>  (137) 
0.0590607

>  <r_i_glide_intrahb_reward>  (137) 
-0

>  <i_i_glide_confnum>  (137) 
1

>  <i_i_glide_posenum>  (137) 
33

>  <r_i_glide_eff_state_penalty>  (137) 
0

>  <ligand_id>  (137) 
35

>  <original_smiles>  (137) 
CC1(C)CCC2=C3CC(=O)C4=CC5C(F)CC3(C)C4(C)CCC2(C)C1C(C)(O)C5(C)C

>  <smiles>  (137) 
[H]OC1(C([H])([H])[H])C2([H])C3(C([H])([H])[H])C(=C4C([H])([H])C(=O)C5=C([H])C([H])(C([H])(F)C([H])([H])C4(C([H])([H])[H])C5(C([H])([H])[H])C([H])([H])C3([H])[H])C1(C([H])([H])[H])C([H])([H])[H])C([H])([H])C([H])([H])C2(C([H])([H])[H])C([H])([H])[H]

$$$$
35:0:2
     RDKit          3D

 72 76  0  0  1  0  0  0  0  0999 V2000
    4.0795   -0.3546    6.4054 C   0  0  0  0  0  0  0  0  0  0  0  0
    4.2936    0.1124    4.9333 C   0  0  0  0  0  0  0  0  0  0  0  0
    5.8174    0.3616    4.8082 C   0  0  0  0  0  0  0  0  0  0  0  0
    4.0755   -1.2745    4.1571 C   0  0  0  0  0  0  0  0  0  0  0  0
    2.6511   -1.6373    3.6736 C   0  0  0  0  0  0  0  0  0  0  0  0
    1.9002   -0.3577    3.5550 C   0  0  0  0  0  0  0  0  0  0  0  0
    0.7360   -0.0224    4.1191 C   0  0  0  0  0  0  0  0  0  0  0  0
   -0.5077   -0.8890    4.5924 C   0  0  0  0  0  0  0  0  0  0  0  0
   -1.6117    0.0308    5.2813 C   0  0  0  0  0  0  0  0  0  0  0  0
   -2.5157   -0.4544    5.9454 O   0  0  0  0  0  0  0  0  0  0  0  0
   -1.3584    1.5033    5.1352 C   0  0  0  0  0  0  0  0  0  0  0  0
   -1.0109    2.4313    6.1725 C   0  0  0  0  0  0  0  0  0  0  0  0
    0.2759    3.5331    6.1560 C   0  0  2  0  0  0  0  0  0  0  0  0
    0.5044    4.1578    4.8069 C   0  0  2  0  0  0  0  0  0  0  0  0
   -0.5280    4.9119    4.4340 F   0  0  0  0  0  0  0  0  0  0  0  0
    0.9687    3.0040    3.9305 C   0  0  0  0  0  0  0  0  0  0  0  0
    0.5645    1.4936    4.4863 C   0  0  2  0  0  0  0  0  0  0  0  0
    1.0658    0.8212    5.9853 C   0  0  0  0  0  0  0  0  0  0  0  0
   -0.8079    1.7665    3.7540 C   0  0  2  0  0  0  0  0  0  0  0  0
   -1.8076    2.9158    3.3258 C   0  0  0  0  0  0  0  0  0  0  0  0
   -0.3050    1.1589    2.2949 C   0  0  0  0  0  0  0  0  0  0  0  0
    1.3369    1.2902    1.9490 C   0  0  0  0  0  0  0  0  0  0  0  0
    2.5972    0.8291    2.9790 C   0  0  2  0  0  0  0  0  0  0  0  0
    3.6515    0.5039    1.8696 C   0  0  0  0  0  0  0  0  0  0  0  0
    3.4528    1.4384    4.3684 C   0  0  1  0  0  0  0  0  0  0  0  0
    3.2394    2.8076    5.5056 C   0  0  1  0  0  0  0  0  0  0  0  0
    4.5647    2.9378    6.3254 C   0  0  0  0  0  0  0  0  0  0  0  0
    3.5891    3.9603    4.7402 O   0  0  0  0  0  0  0  0  0  0  0  0
    1.9334    3.3325    6.5969 C   0  0  0  0  0  0  0  0  0  0  0  0
    2.2838    4.8108    7.0667 C   0  0  0  0  0  0  0  0  0  0  0  0
    2.0528    2.6881    8.0368 C   0  0  0  0  0  0  0  0  0  0  0  0
    4.9003   -0.9909    6.7428 H   0  0  0  0  0  0  0  0  0  0  0  0
    3.1815   -0.9623    6.5136 H   0  0  0  0  0  0  0  0  0  0  0  0
    4.0080    0.4275    7.1419 H   0  0  0  0  0  0  0  0  0  0  0  0
    6.1010    0.9012    3.9018 H   0  0  0  0  0  0  0  0  0  0  0  0
    6.3201   -0.5960    4.7656 H   0  0  0  0  0  0  0  0  0  0  0  0
    6.2610    0.8643    5.6664 H   0  0  0  0  0  0  0  0  0  0  0  0
    4.7505   -1.3635    3.3066 H   0  0  0  0  0  0  0  0  0  0  0  0
    4.4179   -2.1101    4.7677 H   0  0  0  0  0  0  0  0  0  0  0  0
    2.6903   -2.1354    2.7036 H   0  0  0  0  0  0  0  0  0  0  0  0
    2.1379   -2.3073    4.3661 H   0  0  0  0  0  0  0  0  0  0  0  0
   -0.9458   -1.3948    3.7341 H   0  0  0  0  0  0  0  0  0  0  0  0
   -0.1948   -1.6683    5.2849 H   0  0  0  0  0  0  0  0  0  0  0  0
   -1.2890    2.1549    7.1780 H   0  0  0  0  0  0  0  0  0  0  0  0
   -0.1397    4.3105    6.7990 H   0  0  0  0  0  0  0  0  0  0  0  0
    1.2777    4.9110    4.7522 H   0  0  0  0  0  0  0  0  0  0  0  0
    0.5670    3.3569    2.9869 H   0  0  0  0  0  0  0  0  0  0  0  0
    1.9400    3.1350    3.5193 H   0  0  0  0  0  0  0  0  0  0  0  0
    2.0937    0.8947    6.1625 H   0  0  0  0  0  0  0  0  0  0  0  0
    1.0025   -0.2387    6.2606 H   0  0  0  0  0  0  0  0  0  0  0  0
    0.6220    1.1010    6.9265 H   0  0  0  0  0  0  0  0  0  0  0  0
   -1.4353    3.6141    2.5778 H   0  0  0  0  0  0  0  0  0  0  0  0
   -2.2559    3.4854    4.1396 H   0  0  0  0  0  0  0  0  0  0  0  0
   -2.6667    2.4433    2.8524 H   0  0  0  0  0  0  0  0  0  0  0  0
   -0.6659    0.1482    2.1230 H   0  0  0  0  0  0  0  0  0  0  0  0
   -0.8057    1.6980    1.4904 H   0  0  0  0  0  0  0  0  0  0  0  0
    1.4091    0.6510    1.0671 H   0  0  0  0  0  0  0  0  0  0  0  0
    1.5641    2.2651    1.5127 H   0  0  0  0  0  0  0  0  0  0  0  0
    3.7255    1.3281    1.1636 H   0  0  0  0  0  0  0  0  0  0  0  0
    3.4229   -0.3931    1.2906 H   0  0  0  0  0  0  0  0  0  0  0  0
    4.6686    0.4072    2.2358 H   0  0  0  0  0  0  0  0  0  0  0  0
    4.2174    1.9354    3.7818 H   0  0  0  0  0  0  0  0  0  0  0  0
    4.6368    2.3101    7.2048 H   0  0  0  0  0  0  0  0  0  0  0  0
    4.7576    3.9360    6.7142 H   0  0  0  0  0  0  0  0  0  0  0  0
    5.4390    2.7643    5.7055 H   0  0  0  0  0  0  0  0  0  0  0  0
    4.0076    3.6751    3.9388 H   0  0  0  0  0  0  0  0  0  0  0  0
    3.2042    4.9045    7.6374 H   0  0  0  0  0  0  0  0  0  0  0  0
    1.5261    5.2087    7.7436 H   0  0  0  0  0  0  0  0  0  0  0  0
    2.4006    5.5531    6.2818 H   0  0  0  0  0  0  0  0  0  0  0  0
    2.8279    3.1318    8.6640 H   0  0  0  0  0  0  0  0  0  0  0  0
    2.3181    1.6354    8.0770 H   0  0  0  0  0  0  0  0  0  0  0  0
    1.1206    2.8077    8.5930 H   0  0  0  0  0  0  0  0  0  0  0  0
  1  2  1  0
  1 32  1  0
  1 33  1  0
  1 34  1  0
  2 25  1  0
  2  3  1  0
  2  4  1  0
  3 35  1  0
  3 36  1  0
  3 37  1  0
  4  5  1  0
  4 38  1  0
  4 39  1  0
  5  6  1  0
  5 40  1  0
  5 41  1  0
  6 23  1  0
  6  7  2  0
  7 17  1  0
  7  8  1  0
  8  9  1  0
  8 42  1  0
  8 43  1  0
  9 10  2  0
  9 11  1  0
 11 19  1  0
 11 12  2  0
 12 13  1  0
 12 44  1  0
 13 29  1  0
 13 14  1  0
 13 45  1  1
 14 15  1  0
 14 16  1  0
 14 46  1  1
 16 17  1  0
 16 47  1  0
 16 48  1  0
 17 18  1  1
 17 19  1  0
 18 49  1  0
 18 50  1  0
 18 51  1  0
 19 20  1  6
 19 21  1  0
 20 52  1  0
 20 53  1  0
 20 54  1  0
 21 22  1  0
 21 55  1  0
 21 56  1  0
 22 23  1  0
 22 57  1  0
 22 58  1  0
 23 24  1  6
 23 25  1  0
 24 59  1  0
 24 60  1  0
 24 61  1  0
 25 26  1  0
 25 62  1  6
 26 27  1  0
 26 28  1  6
 26 29  1  0
 27 63  1  0
 27 64  1  0
 27 65  1  0
 28 66  1  0
 29 30  1  0
 29 31  1  0
 30 67  1  0
 30 68  1  0
 30 69  1  0
 31 70  1  0
 31 71  1  0
 31 72  1  0
M  END
>  <i_m_ct_stereo_status>  (138) 
1

>  <s_m_source_file>  (138) 
/var/tmp/pbs.5076255.sched01/tmpguie9axe/40t6mruo9t.sdf

>  <i_m_source_file_index>  (138) 
13

>  <i_lp_mmshare_version>  (138) 
48012

>  <i_f3d_flags>  (138) 
1

>  <s_epik_input>  (138) 
W0NIM11DMTJDMz1DNFtDQF01KFtDSDNdKVtDQEhdKEMoW0NIM10pKFtDSDNdKVtDSDJdW0NIMl00KVtDQEBdKFtDSDNdKShbT0hdKUMoW0NIM10pKFtDSDNdKVtDQEBIXShbQ0BIXShGKVtDSDJdMSlbQ0hdPUMoQyg9TylbQ0gyXTMpQzIoW0NIM10pW0NIMl1bQ0gyXTU=

>  <s_epik_cmdline>  (138) 
J2VwaWtfcHl0aG9uJywgJy1waHQnLCAnMi4wJywgJy1waCcsICc3LjAnLCAnLXRuJywgJzgnLCAnLW1hJywgJzIwMCcsICctaW1hZScsICc8aW5maWxlLm1hZT4nLCAnLW9tYWUnLCAnPG91dGZpbGUubWFlPic=

>  <r_lp_tautomer_probability>  (138) 
1

>  <r_epik_Ionization_Penalty>  (138) 
2.75763e-07

>  <r_epik_Ionization_Penalty_Charging>  (138) 
0

>  <r_epik_Ionization_Penalty_Neutral>  (138) 
2.75763e-07

>  <r_epik_State_Penalty>  (138) 
-0

>  <r_epik_Charging_Adjusted_Penalty>  (138) 
0

>  <i_epik_Tot_Q>  (138) 
0

>  <i_epik_Tot_abs_Q>  (138) 
0

>  <s_lp_Force_Field>  (138) 
OPLS3e

>  <r_lp_Energy>  (138) 
644.498

>  <b_lp_Chiralities_Consistent>  (138) 
1

>  <s_lp_Variant>  (138) 
35:0-1

>  <s_i_glide_gridfile>  (138) 
pfpi4k_grid

>  <i_i_glide_lignum>  (138) 
13

>  <i_i_glide_rotatable_bonds>  (138) 
1

>  <r_i_docking_score>  (138) 
-2.83729

>  <r_i_glide_ligand_efficiency>  (138) 
-0.0915255

>  <r_i_glide_ligand_efficiency_sa>  (138) 
-0.287516

>  <r_i_glide_ligand_efficiency_ln>  (138) 
-0.639896

>  <r_i_glide_gscore>  (138) 
-2.83729

>  <r_i_glide_lipo>  (138) 
-0.180283

>  <r_i_glide_hbond>  (138) 
-0.122001

>  <r_i_glide_metal>  (138) 
-0

>  <r_i_glide_rewards>  (138) 
-0.486666

>  <r_i_glide_evdw>  (138) 
-21.7413

>  <r_i_glide_ecoul>  (138) 
-5.58842

>  <r_i_glide_erotb>  (138) 
0

>  <r_i_glide_esite>  (138) 
-0.123013

>  <r_i_glide_emodel>  (138) 
-31.9405

>  <r_i_glide_energy>  (138) 
-27.3297

>  <r_i_glide_einternal>  (138) 
0.764636

>  <r_i_glide_intrahb_reward>  (138) 
-0

>  <i_i_glide_confnum>  (138) 
1

>  <i_i_glide_posenum>  (138) 
14

>  <r_i_glide_eff_state_penalty>  (138) 
0

>  <ligand_id>  (138) 
35

>  <original_smiles>  (138) 
CC1(C)CCC2=C3CC(=O)C4=CC5C(F)CC3(C)C4(C)CCC2(C)C1C(C)(O)C5(C)C

>  <smiles>  (138) 
[H]OC1(C([H])([H])[H])C2([H])C3(C([H])([H])[H])C(=C4C([H])([H])C(=O)C5=C([H])C([H])(C([H])(F)C([H])([H])C4(C([H])([H])[H])C5(C([H])([H])[H])C([H])([H])C3([H])[H])C1(C([H])([H])[H])C([H])([H])[H])C([H])([H])C([H])([H])C2(C([H])([H])[H])C([H])([H])[H]

$$$$
35:1:0
     RDKit          3D

 72 76  0  0  1  0  0  0  0  0999 V2000
    1.7720    1.6002    2.2312 C   0  0  0  0  0  0  0  0  0  0  0  0
    0.7061    0.9404    3.1423 C   0  0  0  0  0  0  0  0  0  0  0  0
   -0.6622    1.1075    2.4235 C   0  0  0  0  0  0  0  0  0  0  0  0
    0.9243   -0.6300    3.2255 C   0  0  0  0  0  0  0  0  0  0  0  0
    1.7623   -1.2974    4.3765 C   0  0  0  0  0  0  0  0  0  0  0  0
    2.1086   -0.4577    5.6318 C   0  0  0  0  0  0  0  0  0  0  0  0
    1.9636   -0.9834    6.9332 C   0  0  0  0  0  0  0  0  0  0  0  0
    0.5421   -1.1652    7.1662 C   0  0  0  0  0  0  0  0  0  0  0  0
    0.2673    0.3243    7.2444 C   0  0  0  0  0  0  0  0  0  0  0  0
   -0.9643    0.5045    7.2055 O   0  0  0  0  0  0  0  0  0  0  0  0
    1.5372    1.3812    7.5996 C   0  0  0  0  0  0  0  0  0  0  0  0
    1.3740    2.5753    8.1430 C   0  0  0  0  0  0  0  0  0  0  0  0
    0.0691    2.6871    8.5947 C   0  0  2  0  0  0  0  0  0  0  0  0
    0.1649    1.3579    9.6974 C   0  0  2  0  0  0  0  0  0  0  0  0
    0.2130    1.8811   10.9255 F   0  0  0  0  0  0  0  0  0  0  0  0
    1.3935    0.0945    9.6837 C   0  0  0  0  0  0  0  0  0  0  0  0
    2.4721   -0.3924    8.3579 C   0  0  1  0  0  0  0  0  0  0  0  0
    3.4982   -1.4053    8.9327 C   0  0  0  0  0  0  0  0  0  0  0  0
    3.0422    0.8644    7.8035 C   0  0  2  0  0  0  0  0  0  0  0  0
    3.8789    1.6113    8.9131 C   0  0  0  0  0  0  0  0  0  0  0  0
    4.1687    0.7114    6.5606 C   0  0  0  0  0  0  0  0  0  0  0  0
    3.7599    0.8606    4.9885 C   0  0  0  0  0  0  0  0  0  0  0  0
    2.2417    1.0842    5.1330 C   0  0  2  0  0  0  0  0  0  0  0  0
    2.6668    2.6338    5.4778 C   0  0  0  0  0  0  0  0  0  0  0  0
    0.7645    1.4971    4.6015 C   0  0  1  0  0  0  0  0  0  0  0  0
   -0.2679    2.6777    5.3751 C   0  0  1  0  0  0  0  0  0  0  0  0
   -0.1583    3.9249    4.4509 C   0  0  0  0  0  0  0  0  0  0  0  0
   -1.5533    2.2380    4.9504 O   0  0  0  0  0  0  0  0  0  0  0  0
   -0.6332    3.1532    7.0752 C   0  0  0  0  0  0  0  0  0  0  0  0
   -2.1690    3.1570    7.3799 C   0  0  0  0  0  0  0  0  0  0  0  0
   -0.3579    4.7010    7.1292 C   0  0  0  0  0  0  0  0  0  0  0  0
    1.6400    1.3130    1.1989 H   0  0  0  0  0  0  0  0  0  0  0  0
    2.7907    1.3122    2.5041 H   0  0  0  0  0  0  0  0  0  0  0  0
    1.7219    2.6885    2.2766 H   0  0  0  0  0  0  0  0  0  0  0  0
   -1.4650    0.6132    2.9728 H   0  0  0  0  0  0  0  0  0  0  0  0
   -0.6334    0.6405    1.4389 H   0  0  0  0  0  0  0  0  0  0  0  0
   -0.9444    2.1469    2.2544 H   0  0  0  0  0  0  0  0  0  0  0  0
   -0.0488   -1.1089    3.2764 H   0  0  0  0  0  0  0  0  0  0  0  0
    1.3310   -0.9807    2.2642 H   0  0  0  0  0  0  0  0  0  0  0  0
    1.2418   -2.2112    4.6915 H   0  0  0  0  0  0  0  0  0  0  0  0
    2.6899   -1.6732    3.9598 H   0  0  0  0  0  0  0  0  0  0  0  0
    0.0084   -1.6260    6.3438 H   0  0  0  0  0  0  0  0  0  0  0  0
    0.3248   -1.6964    8.0861 H   0  0  0  0  0  0  0  0  0  0  0  0
    2.1149    3.2738    8.5023 H   0  0  0  0  0  0  0  0  0  0  0  0
    0.0102    3.5445    9.2642 H   0  0  0  0  0  0  0  0  0  0  0  0
   -0.8220    0.8800    9.7077 H   0  0  0  0  0  0  0  0  0  0  0  0
    2.0226    0.2876   10.5551 H   0  0  0  0  0  0  0  0  0  0  0  0
    0.8697   -0.8145   10.0139 H   0  0  0  0  0  0  0  0  0  0  0  0
    4.0413   -1.0230    9.7944 H   0  0  0  0  0  0  0  0  0  0  0  0
    4.2342   -1.7064    8.1807 H   0  0  0  0  0  0  0  0  0  0  0  0
    2.9943   -2.3234    9.2449 H   0  0  0  0  0  0  0  0  0  0  0  0
    4.7634    1.0429    9.2011 H   0  0  0  0  0  0  0  0  0  0  0  0
    3.3262    1.8148    9.8289 H   0  0  0  0  0  0  0  0  0  0  0  0
    4.2424    2.5771    8.5567 H   0  0  0  0  0  0  0  0  0  0  0  0
    4.9749    1.4469    6.7151 H   0  0  0  0  0  0  0  0  0  0  0  0
    4.7236   -0.2255    6.6740 H   0  0  0  0  0  0  0  0  0  0  0  0
    4.3577    1.6027    4.4556 H   0  0  0  0  0  0  0  0  0  0  0  0
    4.0417   -0.0434    4.4377 H   0  0  0  0  0  0  0  0  0  0  0  0
    2.8618    3.1456    4.5353 H   0  0  0  0  0  0  0  0  0  0  0  0
    3.5195    2.9020    6.0989 H   0  0  0  0  0  0  0  0  0  0  0  0
    1.9236    3.2869    5.9090 H   0  0  0  0  0  0  0  0  0  0  0  0
    0.1265    0.6889    4.8985 H   0  0  0  0  0  0  0  0  0  0  0  0
    0.6806    4.5782    4.6944 H   0  0  0  0  0  0  0  0  0  0  0  0
   -1.0637    4.5342    4.4483 H   0  0  0  0  0  0  0  0  0  0  0  0
    0.0005    3.6618    3.4073 H   0  0  0  0  0  0  0  0  0  0  0  0
   -1.5319    2.1237    4.0238 H   0  0  0  0  0  0  0  0  0  0  0  0
   -2.7321    3.7556    6.6662 H   0  0  0  0  0  0  0  0  0  0  0  0
   -2.3736    3.5806    8.3639 H   0  0  0  0  0  0  0  0  0  0  0  0
   -2.6323    2.1694    7.3811 H   0  0  0  0  0  0  0  0  0  0  0  0
   -0.9793    5.2653    6.4410 H   0  0  0  0  0  0  0  0  0  0  0  0
    0.6771    4.9515    6.9356 H   0  0  0  0  0  0  0  0  0  0  0  0
   -0.6091    5.1451    8.0942 H   0  0  0  0  0  0  0  0  0  0  0  0
  1  2  1  0
  1 32  1  0
  1 33  1  0
  1 34  1  0
  2 25  1  0
  2  3  1  0
  2  4  1  0
  3 35  1  0
  3 36  1  0
  3 37  1  0
  4  5  1  0
  4 38  1  0
  4 39  1  0
  5  6  1  0
  5 40  1  0
  5 41  1  0
  6 23  1  0
  6  7  2  0
  7 17  1  0
  7  8  1  0
  8  9  1  0
  8 42  1  0
  8 43  1  0
  9 10  2  0
  9 11  1  0
 11 19  1  0
 11 12  2  0
 12 13  1  0
 12 44  1  0
 13 29  1  0
 13 14  1  0
 13 45  1  1
 14 15  1  0
 14 16  1  0
 14 46  1  1
 16 17  1  0
 16 47  1  0
 16 48  1  0
 17 18  1  1
 17 19  1  0
 18 49  1  0
 18 50  1  0
 18 51  1  0
 19 20  1  1
 19 21  1  0
 20 52  1  0
 20 53  1  0
 20 54  1  0
 21 22  1  0
 21 55  1  0
 21 56  1  0
 22 23  1  0
 22 57  1  0
 22 58  1  0
 23 24  1  1
 23 25  1  0
 24 59  1  0
 24 60  1  0
 24 61  1  0
 25 26  1  0
 25 62  1  1
 26 27  1  0
 26 28  1  6
 26 29  1  0
 27 63  1  0
 27 64  1  0
 27 65  1  0
 28 66  1  0
 29 30  1  0
 29 31  1  0
 30 67  1  0
 30 68  1  0
 30 69  1  0
 31 70  1  0
 31 71  1  0
 31 72  1  0
M  END
>  <i_m_ct_stereo_status>  (139) 
1

>  <s_m_source_file>  (139) 
/var/tmp/pbs.5076255.sched01/tmpguie9axe/40t6mruo9t.sdf

>  <i_m_source_file_index>  (139) 
14

>  <i_lp_mmshare_version>  (139) 
48012

>  <i_f3d_flags>  (139) 
0

>  <s_epik_input>  (139) 
W0NIM11DMTJDMz1DNFtDQF01KFtDSDNdKVtDQEhdKEMoW0NIM10pKFtDSDNdKVtDSDJdW0NIMl00KVtDQEBdKFtDSDNdKShbT0hdKUMoW0NIM10pKFtDSDNdKVtDQEBIXShbQ0BIXShGKVtDSDJdMSlbQ0hdPUMoQyg9TylbQ0gyXTMpQzIoW0NIM10pW0NIMl1bQ0gyXTU=

>  <s_epik_cmdline>  (139) 
J2VwaWtfcHl0aG9uJywgJy1waHQnLCAnMi4wJywgJy1waCcsICc3LjAnLCAnLXRuJywgJzgnLCAnLW1hJywgJzIwMCcsICctaW1hZScsICc8aW5maWxlLm1hZT4nLCAnLW9tYWUnLCAnPG91dGZpbGUubWFlPic=

>  <r_lp_tautomer_probability>  (139) 
1

>  <r_epik_Ionization_Penalty>  (139) 
2.75763e-07

>  <r_epik_Ionization_Penalty_Charging>  (139) 
0

>  <r_epik_Ionization_Penalty_Neutral>  (139) 
2.75763e-07

>  <r_epik_State_Penalty>  (139) 
-0

>  <r_epik_Charging_Adjusted_Penalty>  (139) 
0

>  <i_epik_Tot_Q>  (139) 
0

>  <i_epik_Tot_abs_Q>  (139) 
0

>  <s_lp_Force_Field>  (139) 
OPLS3e

>  <r_lp_Energy>  (139) 
694.708

>  <b_lp_Chiralities_Consistent>  (139) 
1

>  <s_lp_Variant>  (139) 
35:0-2

>  <s_i_glide_gridfile>  (139) 
pfpi4k_grid

>  <i_i_glide_lignum>  (139) 
14

>  <i_i_glide_rotatable_bonds>  (139) 
1

>  <r_i_docking_score>  (139) 
-2.19535

>  <r_i_glide_ligand_efficiency>  (139) 
-0.0708177

>  <r_i_glide_ligand_efficiency_sa>  (139) 
-0.222465

>  <r_i_glide_ligand_efficiency_ln>  (139) 
-0.495118

>  <r_i_glide_gscore>  (139) 
-2.19535

>  <r_i_glide_lipo>  (139) 
-0.0814626

>  <r_i_glide_hbond>  (139) 
-0.11648

>  <r_i_glide_metal>  (139) 
-0

>  <r_i_glide_rewards>  (139) 
-0.486666

>  <r_i_glide_evdw>  (139) 
-21.3435

>  <r_i_glide_ecoul>  (139) 
-2.62557

>  <r_i_glide_erotb>  (139) 
0

>  <r_i_glide_esite>  (139) 
-0.049729

>  <r_i_glide_emodel>  (139) 
-27.2618

>  <r_i_glide_energy>  (139) 
-23.9691

>  <r_i_glide_einternal>  (139) 
0.0281797

>  <r_i_glide_intrahb_reward>  (139) 
-0

>  <i_i_glide_confnum>  (139) 
2

>  <i_i_glide_posenum>  (139) 
31

>  <r_i_glide_eff_state_penalty>  (139) 
0

>  <ligand_id>  (139) 
35

>  <original_smiles>  (139) 
CC1(C)CCC2=C3CC(=O)C4=CC5C(F)CC3(C)C4(C)CCC2(C)C1C(C)(O)C5(C)C

>  <smiles>  (139) 
[H]OC1(C([H])([H])[H])C2([H])C3(C([H])([H])[H])C(=C4C([H])([H])C(=O)C5=C([H])C([H])(C([H])(F)C([H])([H])C4(C([H])([H])[H])C5(C([H])([H])[H])C([H])([H])C3([H])[H])C1(C([H])([H])[H])C([H])([H])[H])C([H])([H])C([H])([H])C2(C([H])([H])[H])C([H])([H])[H]

$$$$
35:1:1
     RDKit          3D

 72 76  0  0  1  0  0  0  0  0999 V2000
    1.8126   -1.8709    4.0737 C   0  0  0  0  0  0  0  0  0  0  0  0
    0.8605   -1.3812    5.1945 C   0  0  0  0  0  0  0  0  0  0  0  0
   -0.4789   -2.1368    5.0254 C   0  0  0  0  0  0  0  0  0  0  0  0
    1.3946   -1.8262    6.6225 C   0  0  0  0  0  0  0  0  0  0  0  0
    2.2909   -0.8872    7.5163 C   0  0  0  0  0  0  0  0  0  0  0  0
    2.4204    0.6036    7.1378 C   0  0  0  0  0  0  0  0  0  0  0  0
    2.3367    1.6203    8.1237 C   0  0  0  0  0  0  0  0  0  0  0  0
    0.9717    1.6272    8.6134 C   0  0  0  0  0  0  0  0  0  0  0  0
    0.3811    2.1851    7.3320 C   0  0  0  0  0  0  0  0  0  0  0  0
   -0.8400    2.0541    7.3406 O   0  0  0  0  0  0  0  0  0  0  0  0
    1.4215    3.0241    6.2535 C   0  0  0  0  0  0  0  0  0  0  0  0
    0.9924    3.9284    5.3978 C   0  0  0  0  0  0  0  0  0  0  0  0
   -0.3228    4.2424    5.6816 C   0  0  2  0  0  0  0  0  0  0  0  0
   -0.0124    4.8205    7.2885 C   0  0  2  0  0  0  0  0  0  0  0  0
   -0.1365    6.1485    7.2495 F   0  0  0  0  0  0  0  0  0  0  0  0
    1.4469    4.5044    8.2346 C   0  0  0  0  0  0  0  0  0  0  0  0
    2.6563    3.2221    8.0139 C   0  0  1  0  0  0  0  0  0  0  0  0
    3.8437    3.5013    8.9668 C   0  0  0  0  0  0  0  0  0  0  0  0
    2.9962    3.2002    6.5499 C   0  0  2  0  0  0  0  0  0  0  0  0
    3.6095    4.5821    6.1295 C   0  0  0  0  0  0  0  0  0  0  0  0
    4.1728    2.1099    6.0475 C   0  0  0  0  0  0  0  0  0  0  0  0
    3.7983    0.6503    5.4172 C   0  0  0  0  0  0  0  0  0  0  0  0
    2.2605    0.7058    5.5123 C   0  0  2  0  0  0  0  0  0  0  0  0
    2.3479    1.6143    4.1527 C   0  0  0  0  0  0  0  0  0  0  0  0
    0.7551    0.1844    5.2012 C   0  0  1  0  0  0  0  0  0  0  0  0
   -0.5288    1.2021    4.5864 C   0  0  1  0  0  0  0  0  0  0  0  0
   -0.6231    0.8008    3.0830 C   0  0  0  0  0  0  0  0  0  0  0  0
   -1.6802    0.5045    5.0462 O   0  0  0  0  0  0  0  0  0  0  0  0
   -1.0430    2.9176    4.8281 C   0  0  0  0  0  0  0  0  0  0  0  0
   -2.5564    3.0331    5.2001 C   0  0  0  0  0  0  0  0  0  0  0  0
   -1.0956    3.5352    3.3866 C   0  0  0  0  0  0  0  0  0  0  0  0
    1.7842   -2.9550    3.9655 H   0  0  0  0  0  0  0  0  0  0  0  0
    2.8520   -1.6101    4.2643 H   0  0  0  0  0  0  0  0  0  0  0  0
    1.5465   -1.4470    3.1063 H   0  0  0  0  0  0  0  0  0  0  0  0
   -1.1868   -1.8754    5.8115 H   0  0  0  0  0  0  0  0  0  0  0  0
   -0.3287   -3.2160    5.0892 H   0  0  0  0  0  0  0  0  0  0  0  0
   -0.9609   -1.9427    4.0732 H   0  0  0  0  0  0  0  0  0  0  0  0
    0.5304   -2.0548    7.2505 H   0  0  0  0  0  0  0  0  0  0  0  0
    1.9009   -2.7879    6.5267 H   0  0  0  0  0  0  0  0  0  0  0  0
    1.9588   -0.9680    8.5509 H   0  0  0  0  0  0  0  0  0  0  0  0
    3.2980   -1.3022    7.5414 H   0  0  0  0  0  0  0  0  0  0  0  0
    0.5658    0.6412    8.8304 H   0  0  0  0  0  0  0  0  0  0  0  0
    0.8176    2.2729    9.4732 H   0  0  0  0  0  0  0  0  0  0  0  0
    1.5672    4.5820    4.7595 H   0  0  0  0  0  0  0  0  0  0  0  0
   -0.5714    5.1610    5.1509 H   0  0  0  0  0  0  0  0  0  0  0  0
   -0.8735    4.5362    7.9020 H   0  0  0  0  0  0  0  0  0  0  0  0
    1.9917    5.4466    8.2595 H   0  0  0  0  0  0  0  0  0  0  0  0
    1.1051    4.4296    9.2663 H   0  0  0  0  0  0  0  0  0  0  0  0
    4.2630    4.4988    8.8355 H   0  0  0  0  0  0  0  0  0  0  0  0
    4.6506    2.7794    8.8408 H   0  0  0  0  0  0  0  0  0  0  0  0
    3.5183    3.4201   10.0043 H   0  0  0  0  0  0  0  0  0  0  0  0
    4.5798    4.7491    6.6020 H   0  0  0  0  0  0  0  0  0  0  0  0
    2.9930    5.4461    6.3703 H   0  0  0  0  0  0  0  0  0  0  0  0
    3.7876    4.6263    5.0536 H   0  0  0  0  0  0  0  0  0  0  0  0
    4.7993    2.5945    5.2951 H   0  0  0  0  0  0  0  0  0  0  0  0
    4.8927    1.9474    6.8521 H   0  0  0  0  0  0  0  0  0  0  0  0
    4.2575    0.4836    4.4368 H   0  0  0  0  0  0  0  0  0  0  0  0
    4.2769   -0.1454    5.9909 H   0  0  0  0  0  0  0  0  0  0  0  0
    2.4797    0.9371    3.3073 H   0  0  0  0  0  0  0  0  0  0  0  0
    3.1116    2.3762    3.9867 H   0  0  0  0  0  0  0  0  0  0  0  0
    1.4792    2.1598    3.8406 H   0  0  0  0  0  0  0  0  0  0  0  0
    0.2779    0.1125    6.1633 H   0  0  0  0  0  0  0  0  0  0  0  0
    0.0570    1.3499    2.4340 H   0  0  0  0  0  0  0  0  0  0  0  0
   -1.6275    0.9160    2.6725 H   0  0  0  0  0  0  0  0  0  0  0  0
   -0.3724   -0.2426    2.9269 H   0  0  0  0  0  0  0  0  0  0  0  0
   -2.3931    0.7151    4.4623 H   0  0  0  0  0  0  0  0  0  0  0  0
   -3.1982    2.5430    4.4675 H   0  0  0  0  0  0  0  0  0  0  0  0
   -2.8642    4.0778    5.2225 H   0  0  0  0  0  0  0  0  0  0  0  0
   -2.8169    2.6336    6.1776 H   0  0  0  0  0  0  0  0  0  0  0  0
   -1.7859    3.0289    2.7153 H   0  0  0  0  0  0  0  0  0  0  0  0
   -0.1194    3.5524    2.9022 H   0  0  0  0  0  0  0  0  0  0  0  0
   -1.4567    4.5629    3.3644 H   0  0  0  0  0  0  0  0  0  0  0  0
  1  2  1  0
  1 32  1  0
  1 33  1  0
  1 34  1  0
  2 25  1  0
  2  3  1  0
  2  4  1  0
  3 35  1  0
  3 36  1  0
  3 37  1  0
  4  5  1  0
  4 38  1  0
  4 39  1  0
  5  6  1  0
  5 40  1  0
  5 41  1  0
  6 23  1  0
  6  7  2  0
  7 17  1  0
  7  8  1  0
  8  9  1  0
  8 42  1  0
  8 43  1  0
  9 10  2  0
  9 11  1  0
 11 19  1  0
 11 12  2  0
 12 13  1  0
 12 44  1  0
 13 29  1  0
 13 14  1  0
 13 45  1  6
 14 15  1  0
 14 16  1  0
 14 46  1  1
 16 17  1  0
 16 47  1  0
 16 48  1  0
 17 18  1  1
 17 19  1  0
 18 49  1  0
 18 50  1  0
 18 51  1  0
 19 20  1  6
 19 21  1  0
 20 52  1  0
 20 53  1  0
 20 54  1  0
 21 22  1  0
 21 55  1  0
 21 56  1  0
 22 23  1  0
 22 57  1  0
 22 58  1  0
 23 24  1  1
 23 25  1  0
 24 59  1  0
 24 60  1  0
 24 61  1  0
 25 26  1  0
 25 62  1  1
 26 27  1  0
 26 28  1  1
 26 29  1  0
 27 63  1  0
 27 64  1  0
 27 65  1  0
 28 66  1  0
 29 30  1  0
 29 31  1  0
 30 67  1  0
 30 68  1  0
 30 69  1  0
 31 70  1  0
 31 71  1  0
 31 72  1  0
M  END
>  <i_m_ct_stereo_status>  (140) 
1

>  <s_m_source_file>  (140) 
/var/tmp/pbs.5076255.sched01/tmpguie9axe/40t6mruo9t.sdf

>  <i_m_source_file_index>  (140) 
14

>  <i_lp_mmshare_version>  (140) 
48012

>  <i_f3d_flags>  (140) 
0

>  <s_epik_input>  (140) 
W0NIM11DMTJDMz1DNFtDQF01KFtDSDNdKVtDQEhdKEMoW0NIM10pKFtDSDNdKVtDSDJdW0NIMl00KVtDQEBdKFtDSDNdKShbT0hdKUMoW0NIM10pKFtDSDNdKVtDQEBIXShbQ0BIXShGKVtDSDJdMSlbQ0hdPUMoQyg9TylbQ0gyXTMpQzIoW0NIM10pW0NIMl1bQ0gyXTU=

>  <s_epik_cmdline>  (140) 
J2VwaWtfcHl0aG9uJywgJy1waHQnLCAnMi4wJywgJy1waCcsICc3LjAnLCAnLXRuJywgJzgnLCAnLW1hJywgJzIwMCcsICctaW1hZScsICc8aW5maWxlLm1hZT4nLCAnLW9tYWUnLCAnPG91dGZpbGUubWFlPic=

>  <r_lp_tautomer_probability>  (140) 
1

>  <r_epik_Ionization_Penalty>  (140) 
2.75763e-07

>  <r_epik_Ionization_Penalty_Charging>  (140) 
0

>  <r_epik_Ionization_Penalty_Neutral>  (140) 
2.75763e-07

>  <r_epik_State_Penalty>  (140) 
-0

>  <r_epik_Charging_Adjusted_Penalty>  (140) 
0

>  <i_epik_Tot_Q>  (140) 
0

>  <i_epik_Tot_abs_Q>  (140) 
0

>  <s_lp_Force_Field>  (140) 
OPLS3e

>  <r_lp_Energy>  (140) 
694.708

>  <b_lp_Chiralities_Consistent>  (140) 
1

>  <s_lp_Variant>  (140) 
35:0-2

>  <s_i_glide_gridfile>  (140) 
pfpi4k_grid

>  <i_i_glide_lignum>  (140) 
14

>  <i_i_glide_rotatable_bonds>  (140) 
1

>  <r_i_docking_score>  (140) 
-1.99545

>  <r_i_glide_ligand_efficiency>  (140) 
-0.0643694

>  <r_i_glide_ligand_efficiency_sa>  (140) 
-0.202209

>  <r_i_glide_ligand_efficiency_ln>  (140) 
-0.450036

>  <r_i_glide_gscore>  (140) 
-1.99545

>  <r_i_glide_lipo>  (140) 
-0.00258429

>  <r_i_glide_hbond>  (140) 
0

>  <r_i_glide_metal>  (140) 
-0

>  <r_i_glide_rewards>  (140) 
-0.486666

>  <r_i_glide_evdw>  (140) 
-20.6825

>  <r_i_glide_ecoul>  (140) 
-3.09874

>  <r_i_glide_erotb>  (140) 
0

>  <r_i_glide_esite>  (140) 
-0.00726427

>  <r_i_glide_emodel>  (140) 
-26.7187

>  <r_i_glide_energy>  (140) 
-23.7813

>  <r_i_glide_einternal>  (140) 
0.162307

>  <r_i_glide_intrahb_reward>  (140) 
-0

>  <i_i_glide_confnum>  (140) 
2

>  <i_i_glide_posenum>  (140) 
22

>  <r_i_glide_eff_state_penalty>  (140) 
0

>  <ligand_id>  (140) 
35

>  <original_smiles>  (140) 
CC1(C)CCC2=C3CC(=O)C4=CC5C(F)CC3(C)C4(C)CCC2(C)C1C(C)(O)C5(C)C

>  <smiles>  (140) 
[H]OC1(C([H])([H])[H])C2([H])C3(C([H])([H])[H])C(=C4C([H])([H])C(=O)C5=C([H])C([H])(C([H])(F)C([H])([H])C4(C([H])([H])[H])C5(C([H])([H])[H])C([H])([H])C3([H])[H])C1(C([H])([H])[H])C([H])([H])[H])C([H])([H])C([H])([H])C2(C([H])([H])[H])C([H])([H])[H]

$$$$
35:1:2
     RDKit          3D

 72 76  0  0  1  0  0  0  0  0999 V2000
    3.5475   -0.3413    3.2920 C   0  0  0  0  0  0  0  0  0  0  0  0
    2.0316   -0.0694    3.4575 C   0  0  0  0  0  0  0  0  0  0  0  0
    1.4172   -0.0060    2.0404 C   0  0  0  0  0  0  0  0  0  0  0  0
    1.3067   -1.3006    4.1522 C   0  0  0  0  0  0  0  0  0  0  0  0
    1.0674   -1.3628    5.7083 C   0  0  0  0  0  0  0  0  0  0  0  0
    1.2659   -0.0817    6.5458 C   0  0  0  0  0  0  0  0  0  0  0  0
    0.3324    0.2924    7.5487 C   0  0  0  0  0  0  0  0  0  0  0  0
   -0.8946    0.6561    6.8648 C   0  0  0  0  0  0  0  0  0  0  0  0
   -0.3369    1.9312    6.2650 C   0  0  0  0  0  0  0  0  0  0  0  0
   -1.1065    2.3569    5.4101 O   0  0  0  0  0  0  0  0  0  0  0  0
    1.0437    2.6382    6.9968 C   0  0  0  0  0  0  0  0  0  0  0  0
    1.3305    3.9189    6.8969 C   0  0  0  0  0  0  0  0  0  0  0  0
    0.2554    4.5920    6.3498 C   0  0  2  0  0  0  0  0  0  0  0  0
   -0.8626    4.1680    7.6122 C   0  0  2  0  0  0  0  0  0  0  0  0
   -1.0725    5.2707    8.3322 F   0  0  0  0  0  0  0  0  0  0  0  0
   -0.6473    2.8657    8.7862 C   0  0  0  0  0  0  0  0  0  0  0  0
    0.4286    1.4542    8.6948 C   0  0  1  0  0  0  0  0  0  0  0  0
    0.3991    0.7305   10.0628 C   0  0  0  0  0  0  0  0  0  0  0  0
    1.7733    1.9693    8.2665 C   0  0  2  0  0  0  0  0  0  0  0  0
    2.3178    2.9811    9.3360 C   0  0  0  0  0  0  0  0  0  0  0  0
    3.0250    0.8527    8.1484 C   0  0  0  0  0  0  0  0  0  0  0  0
    3.4487    0.1641    6.7281 C   0  0  0  0  0  0  0  0  0  0  0  0
    2.4083    0.8154    5.7956 C   0  0  2  0  0  0  0  0  0  0  0  0
    3.4082    2.1131    5.8182 C   0  0  0  0  0  0  0  0  0  0  0  0
    1.7748    1.1920    4.3500 C   0  0  1  0  0  0  0  0  0  0  0  0
    1.3271    2.8149    3.8594 C   0  0  1  0  0  0  0  0  0  0  0  0
    2.4742    3.2333    2.8910 C   0  0  0  0  0  0  0  0  0  0  0  0
    0.3295    2.5414    2.8819 O   0  0  0  0  0  0  0  0  0  0  0  0
    0.6250    4.2557    4.6888 C   0  0  0  0  0  0  0  0  0  0  0  0
   -0.6195    4.8070    3.9257 C   0  0  0  0  0  0  0  0  0  0  0  0
    1.6351    5.4274    4.4074 C   0  0  0  0  0  0  0  0  0  0  0  0
    3.7381   -1.1237    2.5579 H   0  0  0  0  0  0  0  0  0  0  0  0
    4.0182   -0.6685    4.2176 H   0  0  0  0  0  0  0  0  0  0  0  0
    4.0789    0.5468    2.9540 H   0  0  0  0  0  0  0  0  0  0  0  0
    0.3359    0.1361    2.0751 H   0  0  0  0  0  0  0  0  0  0  0  0
    1.5843   -0.9397    1.5022 H   0  0  0  0  0  0  0  0  0  0  0  0
    1.8296    0.7864    1.4206 H   0  0  0  0  0  0  0  0  0  0  0  0
    0.3094   -1.3961    3.7160 H   0  0  0  0  0  0  0  0  0  0  0  0
    1.8046   -2.2220    3.8475 H   0  0  0  0  0  0  0  0  0  0  0  0
    0.0700   -1.7607    5.8879 H   0  0  0  0  0  0  0  0  0  0  0  0
    1.7232   -2.1272    6.1255 H   0  0  0  0  0  0  0  0  0  0  0  0
   -1.2011   -0.0369    6.0838 H   0  0  0  0  0  0  0  0  0  0  0  0
   -1.7282    0.8456    7.5346 H   0  0  0  0  0  0  0  0  0  0  0  0
    2.1047    4.4800    7.3998 H   0  0  0  0  0  0  0  0  0  0  0  0
    0.3980    5.6591    6.5189 H   0  0  0  0  0  0  0  0  0  0  0  0
   -1.8403    4.0312    7.1392 H   0  0  0  0  0  0  0  0  0  0  0  0
   -0.4375    3.3578    9.7366 H   0  0  0  0  0  0  0  0  0  0  0  0
   -1.6504    2.4800    8.9705 H   0  0  0  0  0  0  0  0  0  0  0  0
    0.6423    1.3901   10.8954 H   0  0  0  0  0  0  0  0  0  0  0  0
    1.0884   -0.1135   10.0965 H   0  0  0  0  0  0  0  0  0  0  0  0
   -0.5929    0.3248   10.2589 H   0  0  0  0  0  0  0  0  0  0  0  0
    2.5343    2.4850   10.2844 H   0  0  0  0  0  0  0  0  0  0  0  0
    1.6454    3.8067    9.5649 H   0  0  0  0  0  0  0  0  0  0  0  0
    3.2559    3.4357    9.0123 H   0  0  0  0  0  0  0  0  0  0  0  0
    3.9416    1.3096    8.5286 H   0  0  0  0  0  0  0  0  0  0  0  0
    2.8747    0.0520    8.8730 H   0  0  0  0  0  0  0  0  0  0  0  0
    4.5128    0.2892    6.4973 H   0  0  0  0  0  0  0  0  0  0  0  0
    3.3960   -0.9244    6.8044 H   0  0  0  0  0  0  0  0  0  0  0  0
    4.2229    1.9177    5.1173 H   0  0  0  0  0  0  0  0  0  0  0  0
    3.9211    2.4594    6.7156 H   0  0  0  0  0  0  0  0  0  0  0  0
    3.0419    3.0489    5.4448 H   0  0  0  0  0  0  0  0  0  0  0  0
    0.7418    0.8958    4.4121 H   0  0  0  0  0  0  0  0  0  0  0  0
    3.3389    3.6664    3.3900 H   0  0  0  0  0  0  0  0  0  0  0  0
    2.1523    3.9352    2.1200 H   0  0  0  0  0  0  0  0  0  0  0  0
    2.8699    2.3846    2.3461 H   0  0  0  0  0  0  0  0  0  0  0  0
    0.2818    3.2573    2.2513 H   0  0  0  0  0  0  0  0  0  0  0  0
   -0.4067    5.0338    2.8812 H   0  0  0  0  0  0  0  0  0  0  0  0
   -0.9393    5.7402    4.3773 H   0  0  0  0  0  0  0  0  0  0  0  0
   -1.4927    4.1576    3.9418 H   0  0  0  0  0  0  0  0  0  0  0  0
    1.7736    5.6327    3.3469 H   0  0  0  0  0  0  0  0  0  0  0  0
    2.6168    5.2527    4.8466 H   0  0  0  0  0  0  0  0  0  0  0  0
    1.2982    6.3925    4.7889 H   0  0  0  0  0  0  0  0  0  0  0  0
  1  2  1  0
  1 32  1  0
  1 33  1  0
  1 34  1  0
  2 25  1  0
  2  3  1  0
  2  4  1  0
  3 35  1  0
  3 36  1  0
  3 37  1  0
  4  5  1  0
  4 38  1  0
  4 39  1  0
  5  6  1  0
  5 40  1  0
  5 41  1  0
  6 23  1  0
  6  7  2  0
  7 17  1  0
  7  8  1  0
  8  9  1  0
  8 42  1  0
  8 43  1  0
  9 10  2  0
  9 11  1  0
 11 19  1  0
 11 12  2  0
 12 13  1  0
 12 44  1  0
 13 29  1  0
 13 14  1  0
 13 45  1  6
 14 15  1  0
 14 16  1  0
 14 46  1  6
 16 17  1  0
 16 47  1  0
 16 48  1  0
 17 18  1  1
 17 19  1  0
 18 49  1  0
 18 50  1  0
 18 51  1  0
 19 20  1  1
 19 21  1  0
 20 52  1  0
 20 53  1  0
 20 54  1  0
 21 22  1  0
 21 55  1  0
 21 56  1  0
 22 23  1  0
 22 57  1  0
 22 58  1  0
 23 24  1  1
 23 25  1  0
 24 59  1  0
 24 60  1  0
 24 61  1  0
 25 26  1  0
 25 62  1  1
 26 27  1  0
 26 28  1  6
 26 29  1  0
 27 63  1  0
 27 64  1  0
 27 65  1  0
 28 66  1  0
 29 30  1  0
 29 31  1  0
 30 67  1  0
 30 68  1  0
 30 69  1  0
 31 70  1  0
 31 71  1  0
 31 72  1  0
M  END
>  <i_m_ct_stereo_status>  (141) 
1

>  <s_m_source_file>  (141) 
/var/tmp/pbs.5076255.sched01/tmpguie9axe/40t6mruo9t.sdf

>  <i_m_source_file_index>  (141) 
14

>  <i_lp_mmshare_version>  (141) 
48012

>  <i_f3d_flags>  (141) 
0

>  <s_epik_input>  (141) 
W0NIM11DMTJDMz1DNFtDQF01KFtDSDNdKVtDQEhdKEMoW0NIM10pKFtDSDNdKVtDSDJdW0NIMl00KVtDQEBdKFtDSDNdKShbT0hdKUMoW0NIM10pKFtDSDNdKVtDQEBIXShbQ0BIXShGKVtDSDJdMSlbQ0hdPUMoQyg9TylbQ0gyXTMpQzIoW0NIM10pW0NIMl1bQ0gyXTU=

>  <s_epik_cmdline>  (141) 
J2VwaWtfcHl0aG9uJywgJy1waHQnLCAnMi4wJywgJy1waCcsICc3LjAnLCAnLXRuJywgJzgnLCAnLW1hJywgJzIwMCcsICctaW1hZScsICc8aW5maWxlLm1hZT4nLCAnLW9tYWUnLCAnPG91dGZpbGUubWFlPic=

>  <r_lp_tautomer_probability>  (141) 
1

>  <r_epik_Ionization_Penalty>  (141) 
2.75763e-07

>  <r_epik_Ionization_Penalty_Charging>  (141) 
0

>  <r_epik_Ionization_Penalty_Neutral>  (141) 
2.75763e-07

>  <r_epik_State_Penalty>  (141) 
-0

>  <r_epik_Charging_Adjusted_Penalty>  (141) 
0

>  <i_epik_Tot_Q>  (141) 
0

>  <i_epik_Tot_abs_Q>  (141) 
0

>  <s_lp_Force_Field>  (141) 
OPLS3e

>  <r_lp_Energy>  (141) 
694.708

>  <b_lp_Chiralities_Consistent>  (141) 
1

>  <s_lp_Variant>  (141) 
35:0-2

>  <s_i_glide_gridfile>  (141) 
pfpi4k_grid

>  <i_i_glide_lignum>  (141) 
14

>  <i_i_glide_rotatable_bonds>  (141) 
1

>  <r_i_docking_score>  (141) 
-1.94916

>  <r_i_glide_ligand_efficiency>  (141) 
-0.0628762

>  <r_i_glide_ligand_efficiency_sa>  (141) 
-0.197518

>  <r_i_glide_ligand_efficiency_ln>  (141) 
-0.439596

>  <r_i_glide_gscore>  (141) 
-1.94916

>  <r_i_glide_lipo>  (141) 
-0.0122773

>  <r_i_glide_hbond>  (141) 
0

>  <r_i_glide_metal>  (141) 
-0

>  <r_i_glide_rewards>  (141) 
-0.486666

>  <r_i_glide_evdw>  (141) 
-21.4785

>  <r_i_glide_ecoul>  (141) 
-2.4615

>  <r_i_glide_erotb>  (141) 
0

>  <r_i_glide_esite>  (141) 
-0.00706853

>  <r_i_glide_emodel>  (141) 
-26.7447

>  <r_i_glide_energy>  (141) 
-23.94

>  <r_i_glide_einternal>  (141) 
0.16281

>  <r_i_glide_intrahb_reward>  (141) 
-0

>  <i_i_glide_confnum>  (141) 
1

>  <i_i_glide_posenum>  (141) 
16

>  <r_i_glide_eff_state_penalty>  (141) 
0

>  <ligand_id>  (141) 
35

>  <original_smiles>  (141) 
CC1(C)CCC2=C3CC(=O)C4=CC5C(F)CC3(C)C4(C)CCC2(C)C1C(C)(O)C5(C)C

>  <smiles>  (141) 
[H]OC1(C([H])([H])[H])C2([H])C3(C([H])([H])[H])C(=C4C([H])([H])C(=O)C5=C([H])C([H])(C([H])(F)C([H])([H])C4(C([H])([H])[H])C5(C([H])([H])[H])C([H])([H])C3([H])[H])C1(C([H])([H])[H])C([H])([H])[H])C([H])([H])C([H])([H])C2(C([H])([H])[H])C([H])([H])[H]

$$$$
35:2:0
     RDKit          3D

 72 76  0  0  1  0  0  0  0  0999 V2000
    1.1755    3.8576    7.8343 C   0  0  0  0  0  0  0  0  0  0  0  0
   -0.0012    3.8740    6.8130 C   0  0  0  0  0  0  0  0  0  0  0  0
   -1.1728    4.4958    7.6394 C   0  0  0  0  0  0  0  0  0  0  0  0
    0.3954    4.9510    5.6895 C   0  0  0  0  0  0  0  0  0  0  0  0
    0.1719    4.7062    4.1619 C   0  0  0  0  0  0  0  0  0  0  0  0
    0.2324    3.2206    3.7933 C   0  0  0  0  0  0  0  0  0  0  0  0
    1.3594    2.6442    3.1473 C   0  0  0  0  0  0  0  0  0  0  0  0
    2.5994    3.4268    3.3466 C   0  0  0  0  0  0  0  0  0  0  0  0
    2.7753    3.0531    4.8234 C   0  0  0  0  0  0  0  0  0  0  0  0
    3.5568    3.7622    5.4650 O   0  0  0  0  0  0  0  0  0  0  0  0
    2.0595    1.7415    5.3377 C   0  0  0  0  0  0  0  0  0  0  0  0
    2.7195    1.4713    6.4444 C   0  0  0  0  0  0  0  0  0  0  0  0
    2.8501    0.1067    6.5660 C   0  0  2  0  0  0  0  0  0  0  0  0
    3.7365   -0.1548    5.1217 C   0  0  2  0  0  0  0  0  0  0  0  0
    4.9911    0.2122    5.3980 F   0  0  0  0  0  0  0  0  0  0  0  0
    3.4361    0.5635    3.5904 C   0  0  0  0  0  0  0  0  0  0  0  0
    1.8950    1.1015    3.0983 C   0  0  2  0  0  0  0  0  0  0  0  0
    1.5330    0.5518    1.6965 C   0  0  0  0  0  0  0  0  0  0  0  0
    1.2774    0.5478    4.3017 C   0  0  1  0  0  0  0  0  0  0  0  0
    1.4846   -1.1024    4.2082 C   0  0  0  0  0  0  0  0  0  0  0  0
   -0.2641    0.2896    4.0868 C   0  0  0  0  0  0  0  0  0  0  0  0
   -1.2981    1.3156    4.0059 C   0  0  0  0  0  0  0  0  0  0  0  0
   -0.8594    2.5452    4.6901 C   0  0  2  0  0  0  0  0  0  0  0  0
   -2.2205    3.3391    4.5747 C   0  0  0  0  0  0  0  0  0  0  0  0
   -0.4409    2.4067    6.2797 C   0  0  1  0  0  0  0  0  0  0  0  0
   -0.0657    0.9840    7.1794 C   0  0  1  0  0  0  0  0  0  0  0  0
   -0.6395    1.2502    8.6174 C   0  0  0  0  0  0  0  0  0  0  0  0
   -1.1656    0.1447    6.8722 O   0  0  0  0  0  0  0  0  0  0  0  0
    1.3218   -0.0951    7.2758 C   0  0  0  0  0  0  0  0  0  0  0  0
    0.8647   -1.5899    7.2452 C   0  0  0  0  0  0  0  0  0  0  0  0
    1.8017   -0.0567    8.7771 C   0  0  0  0  0  0  0  0  0  0  0  0
    0.9749    4.4831    8.7036 H   0  0  0  0  0  0  0  0  0  0  0  0
    2.1153    4.2245    7.4378 H   0  0  0  0  0  0  0  0  0  0  0  0
    1.4134    2.8736    8.2056 H   0  0  0  0  0  0  0  0  0  0  0  0
   -2.1206    4.5163    7.1111 H   0  0  0  0  0  0  0  0  0  0  0  0
   -0.9604    5.5246    7.9341 H   0  0  0  0  0  0  0  0  0  0  0  0
   -1.3653    3.9510    8.5611 H   0  0  0  0  0  0  0  0  0  0  0  0
   -0.0403    5.9202    5.9312 H   0  0  0  0  0  0  0  0  0  0  0  0
    1.4559    5.1875    5.7619 H   0  0  0  0  0  0  0  0  0  0  0  0
   -0.7546    5.1466    3.8104 H   0  0  0  0  0  0  0  0  0  0  0  0
    0.8528    5.3242    3.5890 H   0  0  0  0  0  0  0  0  0  0  0  0
    3.4070    3.0795    2.7110 H   0  0  0  0  0  0  0  0  0  0  0  0
    2.5435    4.4973    3.1930 H   0  0  0  0  0  0  0  0  0  0  0  0
    3.3776    2.0912    7.0315 H   0  0  0  0  0  0  0  0  0  0  0  0
    3.6223   -0.1033    7.3113 H   0  0  0  0  0  0  0  0  0  0  0  0
    3.8928   -1.2270    4.9882 H   0  0  0  0  0  0  0  0  0  0  0  0
    4.1907    1.3326    3.4404 H   0  0  0  0  0  0  0  0  0  0  0  0
    3.7771   -0.1562    2.8469 H   0  0  0  0  0  0  0  0  0  0  0  0
    1.6018   -0.5277    1.6005 H   0  0  0  0  0  0  0  0  0  0  0  0
    2.1934    0.9805    0.9461 H   0  0  0  0  0  0  0  0  0  0  0  0
    0.5227    0.8433    1.4115 H   0  0  0  0  0  0  0  0  0  0  0  0
    0.6516   -1.7583    3.9446 H   0  0  0  0  0  0  0  0  0  0  0  0
    1.8454   -1.6133    5.0769 H   0  0  0  0  0  0  0  0  0  0  0  0
    2.1613   -1.4446    3.4299 H   0  0  0  0  0  0  0  0  0  0  0  0
   -0.4135   -0.2116    3.1275 H   0  0  0  0  0  0  0  0  0  0  0  0
   -0.6545   -0.4616    4.7580 H   0  0  0  0  0  0  0  0  0  0  0  0
   -1.5188    1.5300    2.9574 H   0  0  0  0  0  0  0  0  0  0  0  0
   -2.2194    0.9112    4.4238 H   0  0  0  0  0  0  0  0  0  0  0  0
   -3.0554    2.8382    5.0667 H   0  0  0  0  0  0  0  0  0  0  0  0
   -2.5152    3.4901    3.5329 H   0  0  0  0  0  0  0  0  0  0  0  0
   -2.2041    4.3239    5.0253 H   0  0  0  0  0  0  0  0  0  0  0  0
   -1.4781    2.4187    6.6063 H   0  0  0  0  0  0  0  0  0  0  0  0
   -0.0037    1.8473    9.2677 H   0  0  0  0  0  0  0  0  0  0  0  0
   -0.8482    0.3309    9.1661 H   0  0  0  0  0  0  0  0  0  0  0  0
   -1.6065    1.7545    8.6060 H   0  0  0  0  0  0  0  0  0  0  0  0
   -1.1148   -0.0332    5.9476 H   0  0  0  0  0  0  0  0  0  0  0  0
    0.2502   -1.8551    8.1048 H   0  0  0  0  0  0  0  0  0  0  0  0
    1.7257   -2.2600    7.2665 H   0  0  0  0  0  0  0  0  0  0  0  0
    0.2561   -1.8592    6.3859 H   0  0  0  0  0  0  0  0  0  0  0  0
    1.0629   -0.3765    9.5060 H   0  0  0  0  0  0  0  0  0  0  0  0
    2.1571    0.9271    9.0857 H   0  0  0  0  0  0  0  0  0  0  0  0
    2.6136   -0.7591    8.9731 H   0  0  0  0  0  0  0  0  0  0  0  0
  1  2  1  0
  1 32  1  0
  1 33  1  0
  1 34  1  0
  2 25  1  0
  2  3  1  0
  2  4  1  0
  3 35  1  0
  3 36  1  0
  3 37  1  0
  4  5  1  0
  4 38  1  0
  4 39  1  0
  5  6  1  0
  5 40  1  0
  5 41  1  0
  6 23  1  0
  6  7  2  0
  7 17  1  0
  7  8  1  0
  8  9  1  0
  8 42  1  0
  8 43  1  0
  9 10  2  0
  9 11  1  0
 11 19  1  0
 11 12  2  0
 12 13  1  0
 12 44  1  0
 13 29  1  0
 13 14  1  0
 13 45  1  1
 14 15  1  0
 14 16  1  0
 14 46  1  6
 16 17  1  0
 16 47  1  0
 16 48  1  0
 17 18  1  6
 17 19  1  0
 18 49  1  0
 18 50  1  0
 18 51  1  0
 19 20  1  1
 19 21  1  0
 20 52  1  0
 20 53  1  0
 20 54  1  0
 21 22  1  0
 21 55  1  0
 21 56  1  0
 22 23  1  0
 22 57  1  0
 22 58  1  0
 23 24  1  1
 23 25  1  0
 24 59  1  0
 24 60  1  0
 24 61  1  0
 25 26  1  0
 25 62  1  1
 26 27  1  0
 26 28  1  6
 26 29  1  0
 27 63  1  0
 27 64  1  0
 27 65  1  0
 28 66  1  0
 29 30  1  0
 29 31  1  0
 30 67  1  0
 30 68  1  0
 30 69  1  0
 31 70  1  0
 31 71  1  0
 31 72  1  0
M  END
>  <i_m_ct_stereo_status>  (142) 
1

>  <s_m_source_file>  (142) 
/var/tmp/pbs.5076255.sched01/tmpguie9axe/40t6mruo9t.sdf

>  <i_m_source_file_index>  (142) 
15

>  <i_lp_mmshare_version>  (142) 
48012

>  <i_f3d_flags>  (142) 
1

>  <s_epik_input>  (142) 
W0NIM11DMTJDMz1DNFtDQF01KFtDSDNdKVtDQEhdKEMoW0NIM10pKFtDSDNdKVtDSDJdW0NIMl00KVtDQEBdKFtDSDNdKShbT0hdKUMoW0NIM10pKFtDSDNdKVtDQEBIXShbQ0BIXShGKVtDSDJdMSlbQ0hdPUMoQyg9TylbQ0gyXTMpQzIoW0NIM10pW0NIMl1bQ0gyXTU=

>  <s_epik_cmdline>  (142) 
J2VwaWtfcHl0aG9uJywgJy1waHQnLCAnMi4wJywgJy1waCcsICc3LjAnLCAnLXRuJywgJzgnLCAnLW1hJywgJzIwMCcsICctaW1hZScsICc8aW5maWxlLm1hZT4nLCAnLW9tYWUnLCAnPG91dGZpbGUubWFlPic=

>  <r_lp_tautomer_probability>  (142) 
1

>  <r_epik_Ionization_Penalty>  (142) 
2.75763e-07

>  <r_epik_Ionization_Penalty_Charging>  (142) 
0

>  <r_epik_Ionization_Penalty_Neutral>  (142) 
2.75763e-07

>  <r_epik_State_Penalty>  (142) 
-0

>  <r_epik_Charging_Adjusted_Penalty>  (142) 
0

>  <i_epik_Tot_Q>  (142) 
0

>  <i_epik_Tot_abs_Q>  (142) 
0

>  <s_lp_Force_Field>  (142) 
OPLS3e

>  <r_lp_Energy>  (142) 
534.336

>  <b_lp_Chiralities_Consistent>  (142) 
1

>  <s_lp_Variant>  (142) 
35:0-3

>  <s_i_glide_gridfile>  (142) 
pfpi4k_grid

>  <i_i_glide_lignum>  (142) 
15

>  <i_i_glide_rotatable_bonds>  (142) 
1

>  <r_i_docking_score>  (142) 
-2.53779

>  <r_i_glide_ligand_efficiency>  (142) 
-0.0818642

>  <r_i_glide_ligand_efficiency_sa>  (142) 
-0.257167

>  <r_i_glide_ligand_efficiency_ln>  (142) 
-0.57235

>  <r_i_glide_gscore>  (142) 
-2.53779

>  <r_i_glide_lipo>  (142) 
-0.000290694

>  <r_i_glide_hbond>  (142) 
-0.134809

>  <r_i_glide_metal>  (142) 
-0

>  <r_i_glide_rewards>  (142) 
-0.537766

>  <r_i_glide_evdw>  (142) 
-22.898

>  <r_i_glide_ecoul>  (142) 
-4.76346

>  <r_i_glide_erotb>  (142) 
0

>  <r_i_glide_esite>  (142) 
-0.0055049

>  <r_i_glide_emodel>  (142) 
-32.1699

>  <r_i_glide_energy>  (142) 
-27.6615

>  <r_i_glide_einternal>  (142) 
0.0384314

>  <r_i_glide_intrahb_reward>  (142) 
-0

>  <i_i_glide_confnum>  (142) 
2

>  <i_i_glide_posenum>  (142) 
7

>  <r_i_glide_eff_state_penalty>  (142) 
0

>  <ligand_id>  (142) 
35

>  <original_smiles>  (142) 
CC1(C)CCC2=C3CC(=O)C4=CC5C(F)CC3(C)C4(C)CCC2(C)C1C(C)(O)C5(C)C

>  <smiles>  (142) 
[H]OC1(C([H])([H])[H])C2([H])C3(C([H])([H])[H])C(=C4C([H])([H])C(=O)C5=C([H])C([H])(C([H])(F)C([H])([H])C4(C([H])([H])[H])C5(C([H])([H])[H])C([H])([H])C3([H])[H])C1(C([H])([H])[H])C([H])([H])[H])C([H])([H])C([H])([H])C2(C([H])([H])[H])C([H])([H])[H]

$$$$
35:2:1
     RDKit          3D

 72 76  0  0  1  0  0  0  0  0999 V2000
    3.0859   -1.0033    6.3923 C   0  0  0  0  0  0  0  0  0  0  0  0
    3.1122   -0.7295    4.8571 C   0  0  0  0  0  0  0  0  0  0  0  0
    4.5362   -1.2144    4.4267 C   0  0  0  0  0  0  0  0  0  0  0  0
    2.0669   -1.7583    4.2049 C   0  0  0  0  0  0  0  0  0  0  0  0
    1.0678   -1.3499    3.0790 C   0  0  0  0  0  0  0  0  0  0  0  0
    0.6724    0.1283    3.1471 C   0  0  0  0  0  0  0  0  0  0  0  0
   -0.5858    0.5587    3.6399 C   0  0  0  0  0  0  0  0  0  0  0  0
   -1.2256   -0.4347    4.5329 C   0  0  0  0  0  0  0  0  0  0  0  0
   -0.2658   -0.2281    5.7081 C   0  0  0  0  0  0  0  0  0  0  0  0
   -0.3023   -1.1045    6.5793 O   0  0  0  0  0  0  0  0  0  0  0  0
    0.5292    1.1346    5.7702 C   0  0  0  0  0  0  0  0  0  0  0  0
    0.9019    1.1895    7.0311 C   0  0  0  0  0  0  0  0  0  0  0  0
    0.8325    2.4957    7.4613 C   0  0  2  0  0  0  0  0  0  0  0  0
   -0.8466    2.7244    7.1957 C   0  0  2  0  0  0  0  0  0  0  0  0
   -1.4615    2.1155    8.2156 F   0  0  0  0  0  0  0  0  0  0  0  0
   -1.7517    2.2048    5.8290 C   0  0  0  0  0  0  0  0  0  0  0  0
   -1.0605    1.9847    4.2858 C   0  0  2  0  0  0  0  0  0  0  0  0
   -1.8899    2.7073    3.1938 C   0  0  0  0  0  0  0  0  0  0  0  0
    0.2181    2.5268    4.7376 C   0  0  1  0  0  0  0  0  0  0  0  0
   -0.0734    4.1192    5.1309 C   0  0  0  0  0  0  0  0  0  0  0  0
    1.0799    3.0569    3.5307 C   0  0  0  0  0  0  0  0  0  0  0  0
    1.7552    2.2374    2.5277 C   0  0  0  0  0  0  0  0  0  0  0  0
    2.0398    0.8989    3.0695 C   0  0  2  0  0  0  0  0  0  0  0  0
    2.9013    0.3611    1.8567 C   0  0  0  0  0  0  0  0  0  0  0  0
    2.9331    0.8302    4.4542 C   0  0  1  0  0  0  0  0  0  0  0  0
    3.2793    2.0888    5.5868 C   0  0  1  0  0  0  0  0  0  0  0  0
    4.7482    1.8004    6.0742 C   0  0  0  0  0  0  0  0  0  0  0  0
    3.7519    3.1365    4.7592 O   0  0  0  0  0  0  0  0  0  0  0  0
    2.3706    2.8964    6.8613 C   0  0  0  0  0  0  0  0  0  0  0  0
    2.5745    4.4458    6.7890 C   0  0  0  0  0  0  0  0  0  0  0  0
    3.1714    2.6459    8.1976 C   0  0  0  0  0  0  0  0  0  0  0  0
    3.8967   -1.6596    6.7084 H   0  0  0  0  0  0  0  0  0  0  0  0
    2.1812   -1.4887    6.7439 H   0  0  0  0  0  0  0  0  0  0  0  0
    3.1542   -0.1110    6.9933 H   0  0  0  0  0  0  0  0  0  0  0  0
    4.7678   -1.0452    3.3779 H   0  0  0  0  0  0  0  0  0  0  0  0
    4.6681   -2.2837    4.5967 H   0  0  0  0  0  0  0  0  0  0  0  0
    5.3239   -0.7234    4.9946 H   0  0  0  0  0  0  0  0  0  0  0  0
    2.5878   -2.6543    3.8658 H   0  0  0  0  0  0  0  0  0  0  0  0
    1.4273   -2.1787    4.9778 H   0  0  0  0  0  0  0  0  0  0  0  0
    1.4498   -1.5949    2.0929 H   0  0  0  0  0  0  0  0  0  0  0  0
    0.2242   -2.0294    3.0934 H   0  0  0  0  0  0  0  0  0  0  0  0
   -2.2563   -0.1772    4.7608 H   0  0  0  0  0  0  0  0  0  0  0  0
   -1.2431   -1.4638    4.1974 H   0  0  0  0  0  0  0  0  0  0  0  0
    0.9363    0.4180    7.7837 H   0  0  0  0  0  0  0  0  0  0  0  0
    0.8626    2.5074    8.5539 H   0  0  0  0  0  0  0  0  0  0  0  0
   -1.1025    3.7621    7.4235 H   0  0  0  0  0  0  0  0  0  0  0  0
   -2.3346    1.3381    6.1342 H   0  0  0  0  0  0  0  0  0  0  0  0
   -2.5651    2.9230    5.7199 H   0  0  0  0  0  0  0  0  0  0  0  0
   -2.0596    3.7643    3.3761 H   0  0  0  0  0  0  0  0  0  0  0  0
   -2.8646    2.2340    3.0919 H   0  0  0  0  0  0  0  0  0  0  0  0
   -1.4027    2.6201    2.2215 H   0  0  0  0  0  0  0  0  0  0  0  0
    0.2619    4.9251    4.4730 H   0  0  0  0  0  0  0  0  0  0  0  0
    0.3085    4.4839    6.0624 H   0  0  0  0  0  0  0  0  0  0  0  0
   -1.1193    4.4090    5.1694 H   0  0  0  0  0  0  0  0  0  0  0  0
    0.4499    3.6696    2.8824 H   0  0  0  0  0  0  0  0  0  0  0  0
    1.8109    3.7891    3.8360 H   0  0  0  0  0  0  0  0  0  0  0  0
    1.1267    2.1560    1.6377 H   0  0  0  0  0  0  0  0  0  0  0  0
    2.6549    2.7643    2.2077 H   0  0  0  0  0  0  0  0  0  0  0  0
    3.7907    0.9630    1.6659 H   0  0  0  0  0  0  0  0  0  0  0  0
    2.3262    0.3467    0.9272 H   0  0  0  0  0  0  0  0  0  0  0  0
    3.2835   -0.6475    1.9750 H   0  0  0  0  0  0  0  0  0  0  0  0
    3.8671    0.9692    3.9171 H   0  0  0  0  0  0  0  0  0  0  0  0
    4.8358    1.0522    6.8572 H   0  0  0  0  0  0  0  0  0  0  0  0
    5.2543    2.6914    6.4516 H   0  0  0  0  0  0  0  0  0  0  0  0
    5.4069    1.4632    5.2746 H   0  0  0  0  0  0  0  0  0  0  0  0
    4.1288    2.7705    3.9731 H   0  0  0  0  0  0  0  0  0  0  0  0
    3.6126    4.7354    6.9524 H   0  0  0  0  0  0  0  0  0  0  0  0
    1.9852    4.9571    7.5510 H   0  0  0  0  0  0  0  0  0  0  0  0
    2.3277    4.8850    5.8255 H   0  0  0  0  0  0  0  0  0  0  0  0
    4.1898    3.0265    8.1988 H   0  0  0  0  0  0  0  0  0  0  0  0
    3.2144    1.5928    8.4776 H   0  0  0  0  0  0  0  0  0  0  0  0
    2.7410    3.1796    9.0469 H   0  0  0  0  0  0  0  0  0  0  0  0
  1  2  1  0
  1 32  1  0
  1 33  1  0
  1 34  1  0
  2 25  1  0
  2  3  1  0
  2  4  1  0
  3 35  1  0
  3 36  1  0
  3 37  1  0
  4  5  1  0
  4 38  1  0
  4 39  1  0
  5  6  1  0
  5 40  1  0
  5 41  1  0
  6 23  1  0
  6  7  2  0
  7 17  1  0
  7  8  1  0
  8  9  1  0
  8 42  1  0
  8 43  1  0
  9 10  2  0
  9 11  1  0
 11 19  1  0
 11 12  2  0
 12 13  1  0
 12 44  1  0
 13 29  1  0
 13 14  1  0
 13 45  1  1
 14 15  1  0
 14 16  1  0
 14 46  1  1
 16 17  1  0
 16 47  1  0
 16 48  1  0
 17 18  1  6
 17 19  1  0
 18 49  1  0
 18 50  1  0
 18 51  1  0
 19 20  1  1
 19 21  1  0
 20 52  1  0
 20 53  1  0
 20 54  1  0
 21 22  1  0
 21 55  1  0
 21 56  1  0
 22 23  1  0
 22 57  1  0
 22 58  1  0
 23 24  1  6
 23 25  1  0
 24 59  1  0
 24 60  1  0
 24 61  1  0
 25 26  1  0
 25 62  1  6
 26 27  1  0
 26 28  1  6
 26 29  1  0
 27 63  1  0
 27 64  1  0
 27 65  1  0
 28 66  1  0
 29 30  1  0
 29 31  1  0
 30 67  1  0
 30 68  1  0
 30 69  1  0
 31 70  1  0
 31 71  1  0
 31 72  1  0
M  END
>  <i_m_ct_stereo_status>  (143) 
1

>  <s_m_source_file>  (143) 
/var/tmp/pbs.5076255.sched01/tmpguie9axe/40t6mruo9t.sdf

>  <i_m_source_file_index>  (143) 
15

>  <i_lp_mmshare_version>  (143) 
48012

>  <i_f3d_flags>  (143) 
1

>  <s_epik_input>  (143) 
W0NIM11DMTJDMz1DNFtDQF01KFtDSDNdKVtDQEhdKEMoW0NIM10pKFtDSDNdKVtDSDJdW0NIMl00KVtDQEBdKFtDSDNdKShbT0hdKUMoW0NIM10pKFtDSDNdKVtDQEBIXShbQ0BIXShGKVtDSDJdMSlbQ0hdPUMoQyg9TylbQ0gyXTMpQzIoW0NIM10pW0NIMl1bQ0gyXTU=

>  <s_epik_cmdline>  (143) 
J2VwaWtfcHl0aG9uJywgJy1waHQnLCAnMi4wJywgJy1waCcsICc3LjAnLCAnLXRuJywgJzgnLCAnLW1hJywgJzIwMCcsICctaW1hZScsICc8aW5maWxlLm1hZT4nLCAnLW9tYWUnLCAnPG91dGZpbGUubWFlPic=

>  <r_lp_tautomer_probability>  (143) 
1

>  <r_epik_Ionization_Penalty>  (143) 
2.75763e-07

>  <r_epik_Ionization_Penalty_Charging>  (143) 
0

>  <r_epik_Ionization_Penalty_Neutral>  (143) 
2.75763e-07

>  <r_epik_State_Penalty>  (143) 
-0

>  <r_epik_Charging_Adjusted_Penalty>  (143) 
0

>  <i_epik_Tot_Q>  (143) 
0

>  <i_epik_Tot_abs_Q>  (143) 
0

>  <s_lp_Force_Field>  (143) 
OPLS3e

>  <r_lp_Energy>  (143) 
534.336

>  <b_lp_Chiralities_Consistent>  (143) 
1

>  <s_lp_Variant>  (143) 
35:0-3

>  <s_i_glide_gridfile>  (143) 
pfpi4k_grid

>  <i_i_glide_lignum>  (143) 
15

>  <i_i_glide_rotatable_bonds>  (143) 
1

>  <r_i_docking_score>  (143) 
-2.48493

>  <r_i_glide_ligand_efficiency>  (143) 
-0.0801589

>  <r_i_glide_ligand_efficiency_sa>  (143) 
-0.25181

>  <r_i_glide_ligand_efficiency_ln>  (143) 
-0.560427

>  <r_i_glide_gscore>  (143) 
-2.48493

>  <r_i_glide_lipo>  (143) 
-0.0679552

>  <r_i_glide_hbond>  (143) 
-0.0724783

>  <r_i_glide_metal>  (143) 
-0

>  <r_i_glide_rewards>  (143) 
-0.486666

>  <r_i_glide_evdw>  (143) 
-26.2506

>  <r_i_glide_ecoul>  (143) 
-3.28258

>  <r_i_glide_erotb>  (143) 
0

>  <r_i_glide_esite>  (143) 
-0.0529103

>  <r_i_glide_emodel>  (143) 
-33.6415

>  <r_i_glide_energy>  (143) 
-29.5332

>  <r_i_glide_einternal>  (143) 
0.311913

>  <r_i_glide_intrahb_reward>  (143) 
-0

>  <i_i_glide_confnum>  (143) 
1

>  <i_i_glide_posenum>  (143) 
1

>  <r_i_glide_eff_state_penalty>  (143) 
0

>  <ligand_id>  (143) 
35

>  <original_smiles>  (143) 
CC1(C)CCC2=C3CC(=O)C4=CC5C(F)CC3(C)C4(C)CCC2(C)C1C(C)(O)C5(C)C

>  <smiles>  (143) 
[H]OC1(C([H])([H])[H])C2([H])C3(C([H])([H])[H])C(=C4C([H])([H])C(=O)C5=C([H])C([H])(C([H])(F)C([H])([H])C4(C([H])([H])[H])C5(C([H])([H])[H])C([H])([H])C3([H])[H])C1(C([H])([H])[H])C([H])([H])[H])C([H])([H])C([H])([H])C2(C([H])([H])[H])C([H])([H])[H]

$$$$
35:2:2
     RDKit          3D

 72 76  0  0  1  0  0  0  0  0999 V2000
    2.7808   -0.7753    6.7033 C   0  0  0  0  0  0  0  0  0  0  0  0
    2.8966   -0.5609    5.1633 C   0  0  0  0  0  0  0  0  0  0  0  0
    4.3250   -1.1008    4.8284 C   0  0  0  0  0  0  0  0  0  0  0  0
    1.8599   -1.5845    4.4932 C   0  0  0  0  0  0  0  0  0  0  0  0
    0.9379   -1.1918    3.2981 C   0  0  0  0  0  0  0  0  0  0  0  0
    0.5836    0.2974    3.2890 C   0  0  0  0  0  0  0  0  0  0  0  0
   -0.6913    0.7809    3.6987 C   0  0  0  0  0  0  0  0  0  0  0  0
   -1.4000   -0.1626    4.5911 C   0  0  0  0  0  0  0  0  0  0  0  0
   -0.4981    0.0642    5.8067 C   0  0  0  0  0  0  0  0  0  0  0  0
   -0.5896   -0.7845    6.7023 O   0  0  0  0  0  0  0  0  0  0  0  0
    0.3252    1.4081    5.8647 C   0  0  0  0  0  0  0  0  0  0  0  0
    0.6300    1.5028    7.1408 C   0  0  0  0  0  0  0  0  0  0  0  0
    0.5758    2.8247    7.5181 C   0  0  2  0  0  0  0  0  0  0  0  0
   -1.0802    3.0886    7.1522 C   0  0  2  0  0  0  0  0  0  0  0  0
   -1.7657    2.5373    8.1587 F   0  0  0  0  0  0  0  0  0  0  0  0
   -1.9251    2.5395    5.7583 C   0  0  0  0  0  0  0  0  0  0  0  0
   -1.1592    2.2415    4.2633 C   0  0  2  0  0  0  0  0  0  0  0  0
   -1.9111    2.9444    3.1031 C   0  0  0  0  0  0  0  0  0  0  0  0
    0.1087    2.7676    4.7641 C   0  0  1  0  0  0  0  0  0  0  0  0
   -0.1550    4.3807    5.0822 C   0  0  0  0  0  0  0  0  0  0  0  0
    1.0496    3.2278    3.5858 C   0  0  0  0  0  0  0  0  0  0  0  0
    1.7577    2.3519    2.6567 C   0  0  0  0  0  0  0  0  0  0  0  0
    1.9703    1.0265    3.2596 C   0  0  2  0  0  0  0  0  0  0  0  0
    2.8775    0.4158    2.1160 C   0  0  0  0  0  0  0  0  0  0  0  0
    2.7858    0.9885    4.6948 C   0  0  1  0  0  0  0  0  0  0  0  0
    3.1056    2.2777    5.7977 C   0  0  1  0  0  0  0  0  0  0  0  0
    4.5384    1.9721    6.3755 C   0  0  0  0  0  0  0  0  0  0  0  0
    3.6560    3.2699    4.9530 O   0  0  0  0  0  0  0  0  0  0  0  0
    2.1542    3.1605    6.9889 C   0  0  0  0  0  0  0  0  0  0  0  0
    2.4087    4.6991    6.8700 C   0  0  0  0  0  0  0  0  0  0  0  0
    2.8730    2.9383    8.3750 C   0  0  0  0  0  0  0  0  0  0  0  0
    3.5548   -1.4417    7.0853 H   0  0  0  0  0  0  0  0  0  0  0  0
    1.8461   -1.2243    7.0226 H   0  0  0  0  0  0  0  0  0  0  0  0
    2.8409    0.1375    7.2741 H   0  0  0  0  0  0  0  0  0  0  0  0
    4.6173   -0.9761    3.7890 H   0  0  0  0  0  0  0  0  0  0  0  0
    4.4141   -2.1669    5.0431 H   0  0  0  0  0  0  0  0  0  0  0  0
    5.0954   -0.6119    5.4202 H   0  0  0  0  0  0  0  0  0  0  0  0
    2.3699   -2.5068    4.2176 H   0  0  0  0  0  0  0  0  0  0  0  0
    1.1666   -1.9588    5.2448 H   0  0  0  0  0  0  0  0  0  0  0  0
    1.3638   -1.4893    2.3446 H   0  0  0  0  0  0  0  0  0  0  0  0
    0.0792   -1.8493    3.2896 H   0  0  0  0  0  0  0  0  0  0  0  0
   -2.4337    0.1326    4.7529 H   0  0  0  0  0  0  0  0  0  0  0  0
   -1.4328   -1.2027    4.2918 H   0  0  0  0  0  0  0  0  0  0  0  0
    0.6001    0.7609    7.9221 H   0  0  0  0  0  0  0  0  0  0  0  0
    0.5445    2.8757    8.6101 H   0  0  0  0  0  0  0  0  0  0  0  0
   -1.3170    4.1411    7.3262 H   0  0  0  0  0  0  0  0  0  0  0  0
   -2.5473    1.7007    6.0658 H   0  0  0  0  0  0  0  0  0  0  0  0
   -2.7107    3.2729    5.5776 H   0  0  0  0  0  0  0  0  0  0  0  0
   -2.0581    4.0126    3.2368 H   0  0  0  0  0  0  0  0  0  0  0  0
   -2.8936    2.4953    2.9615 H   0  0  0  0  0  0  0  0  0  0  0  0
   -1.3747    2.8078    2.1650 H   0  0  0  0  0  0  0  0  0  0  0  0
    0.2371    5.1518    4.4139 H   0  0  0  0  0  0  0  0  0  0  0  0
    0.1863    4.7705    6.0184 H   0  0  0  0  0  0  0  0  0  0  0  0
   -1.1924    4.6984    5.0528 H   0  0  0  0  0  0  0  0  0  0  0  0
    0.4763    3.8277    2.8854 H   0  0  0  0  0  0  0  0  0  0  0  0
    1.7863    3.9505    3.9081 H   0  0  0  0  0  0  0  0  0  0  0  0
    1.1807    2.2590    1.7328 H   0  0  0  0  0  0  0  0  0  0  0  0
    2.6931    2.8384    2.3761 H   0  0  0  0  0  0  0  0  0  0  0  0
    3.7977    0.9782    1.9538 H   0  0  0  0  0  0  0  0  0  0  0  0
    2.3515    0.3859    1.1577 H   0  0  0  0  0  0  0  0  0  0  0  0
    3.2202   -0.5984    2.2933 H   0  0  0  0  0  0  0  0  0  0  0  0
    3.7506    1.0900    4.2026 H   0  0  0  0  0  0  0  0  0  0  0  0
    4.5623    1.2464    7.1850 H   0  0  0  0  0  0  0  0  0  0  0  0
    5.0535    2.8589    6.7521 H   0  0  0  0  0  0  0  0  0  0  0  0
    5.2262    1.5905    5.6199 H   0  0  0  0  0  0  0  0  0  0  0  0
    3.9402    3.9912    5.4926 H   0  0  0  0  0  0  0  0  0  0  0  0
    3.4410    4.9722    7.0901 H   0  0  0  0  0  0  0  0  0  0  0  0
    1.7892    5.2523    7.5784 H   0  0  0  0  0  0  0  0  0  0  0  0
    2.2249    5.1092    5.8796 H   0  0  0  0  0  0  0  0  0  0  0  0
    3.9008    3.2875    8.4217 H   0  0  0  0  0  0  0  0  0  0  0  0
    2.8690    1.8957    8.6943 H   0  0  0  0  0  0  0  0  0  0  0  0
    2.4127    3.5146    9.1803 H   0  0  0  0  0  0  0  0  0  0  0  0
  1  2  1  0
  1 32  1  0
  1 33  1  0
  1 34  1  0
  2 25  1  0
  2  3  1  0
  2  4  1  0
  3 35  1  0
  3 36  1  0
  3 37  1  0
  4  5  1  0
  4 38  1  0
  4 39  1  0
  5  6  1  0
  5 40  1  0
  5 41  1  0
  6 23  1  0
  6  7  2  0
  7 17  1  0
  7  8  1  0
  8  9  1  0
  8 42  1  0
  8 43  1  0
  9 10  2  0
  9 11  1  0
 11 19  1  0
 11 12  2  0
 12 13  1  0
 12 44  1  0
 13 29  1  0
 13 14  1  0
 13 45  1  1
 14 15  1  0
 14 16  1  0
 14 46  1  1
 16 17  1  0
 16 47  1  0
 16 48  1  0
 17 18  1  6
 17 19  1  0
 18 49  1  0
 18 50  1  0
 18 51  1  0
 19 20  1  1
 19 21  1  0
 20 52  1  0
 20 53  1  0
 20 54  1  0
 21 22  1  0
 21 55  1  0
 21 56  1  0
 22 23  1  0
 22 57  1  0
 22 58  1  0
 23 24  1  6
 23 25  1  0
 24 59  1  0
 24 60  1  0
 24 61  1  0
 25 26  1  0
 25 62  1  6
 26 27  1  0
 26 28  1  6
 26 29  1  0
 27 63  1  0
 27 64  1  0
 27 65  1  0
 28 66  1  0
 29 30  1  0
 29 31  1  0
 30 67  1  0
 30 68  1  0
 30 69  1  0
 31 70  1  0
 31 71  1  0
 31 72  1  0
M  END
>  <i_m_ct_stereo_status>  (144) 
1

>  <s_m_source_file>  (144) 
/var/tmp/pbs.5076255.sched01/tmpguie9axe/40t6mruo9t.sdf

>  <i_m_source_file_index>  (144) 
15

>  <i_lp_mmshare_version>  (144) 
48012

>  <i_f3d_flags>  (144) 
1

>  <s_epik_input>  (144) 
W0NIM11DMTJDMz1DNFtDQF01KFtDSDNdKVtDQEhdKEMoW0NIM10pKFtDSDNdKVtDSDJdW0NIMl00KVtDQEBdKFtDSDNdKShbT0hdKUMoW0NIM10pKFtDSDNdKVtDQEBIXShbQ0BIXShGKVtDSDJdMSlbQ0hdPUMoQyg9TylbQ0gyXTMpQzIoW0NIM10pW0NIMl1bQ0gyXTU=

>  <s_epik_cmdline>  (144) 
J2VwaWtfcHl0aG9uJywgJy1waHQnLCAnMi4wJywgJy1waCcsICc3LjAnLCAnLXRuJywgJzgnLCAnLW1hJywgJzIwMCcsICctaW1hZScsICc8aW5maWxlLm1hZT4nLCAnLW9tYWUnLCAnPG91dGZpbGUubWFlPic=

>  <r_lp_tautomer_probability>  (144) 
1

>  <r_epik_Ionization_Penalty>  (144) 
2.75763e-07

>  <r_epik_Ionization_Penalty_Charging>  (144) 
0

>  <r_epik_Ionization_Penalty_Neutral>  (144) 
2.75763e-07

>  <r_epik_State_Penalty>  (144) 
-0

>  <r_epik_Charging_Adjusted_Penalty>  (144) 
0

>  <i_epik_Tot_Q>  (144) 
0

>  <i_epik_Tot_abs_Q>  (144) 
0

>  <s_lp_Force_Field>  (144) 
OPLS3e

>  <r_lp_Energy>  (144) 
534.336

>  <b_lp_Chiralities_Consistent>  (144) 
1

>  <s_lp_Variant>  (144) 
35:0-3

>  <s_i_glide_gridfile>  (144) 
pfpi4k_grid

>  <i_i_glide_lignum>  (144) 
15

>  <i_i_glide_rotatable_bonds>  (144) 
1

>  <r_i_docking_score>  (144) 
-2.20797

>  <r_i_glide_ligand_efficiency>  (144) 
-0.0712248

>  <r_i_glide_ligand_efficiency_sa>  (144) 
-0.223744

>  <r_i_glide_ligand_efficiency_ln>  (144) 
-0.497964

>  <r_i_glide_gscore>  (144) 
-2.20797

>  <r_i_glide_lipo>  (144) 
-0.115362

>  <r_i_glide_hbond>  (144) 
-0.0222504

>  <r_i_glide_metal>  (144) 
-0

>  <r_i_glide_rewards>  (144) 
-0.486666

>  <r_i_glide_evdw>  (144) 
-25.8577

>  <r_i_glide_ecoul>  (144) 
-1.63891

>  <r_i_glide_erotb>  (144) 
0

>  <r_i_glide_esite>  (144) 
-0.0449698

>  <r_i_glide_emodel>  (144) 
-31.2984

>  <r_i_glide_energy>  (144) 
-27.4966

>  <r_i_glide_einternal>  (144) 
0.0647305

>  <r_i_glide_intrahb_reward>  (144) 
-0

>  <i_i_glide_confnum>  (144) 
2

>  <i_i_glide_posenum>  (144) 
6

>  <r_i_glide_eff_state_penalty>  (144) 
0

>  <ligand_id>  (144) 
35

>  <original_smiles>  (144) 
CC1(C)CCC2=C3CC(=O)C4=CC5C(F)CC3(C)C4(C)CCC2(C)C1C(C)(O)C5(C)C

>  <smiles>  (144) 
[H]OC1(C([H])([H])[H])C2([H])C3(C([H])([H])[H])C(=C4C([H])([H])C(=O)C5=C([H])C([H])(C([H])(F)C([H])([H])C4(C([H])([H])[H])C5(C([H])([H])[H])C([H])([H])C3([H])[H])C1(C([H])([H])[H])C([H])([H])[H])C([H])([H])C([H])([H])C2(C([H])([H])[H])C([H])([H])[H]

$$$$
37:0:0
     RDKit          3D

 53 57  0  0  1  0  0  0  0  0999 V2000
    1.7956   -0.2057    5.1711 O   0  0  0  0  0  0  0  0  0  0  0  0
    1.4001    0.4783    4.2307 C   0  0  0  0  0  0  0  0  0  0  0  0
    1.6120    0.0700    2.9693 N   0  0  0  0  0  0  0  0  0  0  0  0
    1.4187   -1.3352    2.5891 C   0  0  0  0  0  0  0  0  0  0  0  0
    2.6589   -1.9388    1.9104 C   0  0  0  0  0  0  0  0  0  0  0  0
    3.1495   -1.0824    0.7997 N   0  0  0  0  0  0  0  0  0  0  0  0
    4.3341   -1.6393    0.0959 C   0  0  0  0  0  0  0  0  0  0  0  0
    4.0533   -1.8324   -1.3570 C   0  0  0  0  0  0  0  0  0  0  0  0
    3.5947   -3.0654   -1.9036 C   0  0  0  0  0  0  0  0  0  0  0  0
    3.4347   -3.0258   -3.2568 C   0  0  0  0  0  0  0  0  0  0  0  0
    3.8115   -1.4548   -3.9089 S   0  0  0  0  0  0  0  0  0  0  0  0
    4.2145   -0.8699   -2.3184 C   0  0  0  0  0  0  0  0  0  0  0  0
    3.4093    0.2857    1.2845 C   0  0  0  0  0  0  0  0  0  0  0  0
    2.1690    0.9140    1.9113 C   0  0  0  0  0  0  0  0  0  0  0  0
    0.4534    1.6993    4.5041 C   0  0  2  0  0  0  0  0  0  0  0  0
   -1.0073    1.3110    4.1379 C   0  0  0  0  0  0  0  0  0  0  0  0
   -1.9692    2.4928    4.4247 C   0  0  1  0  0  0  0  0  0  0  0  0
   -1.9202    2.8574    5.9213 C   0  0  0  0  0  0  0  0  0  0  0  0
   -0.4793    3.2631    6.3050 C   0  0  2  0  0  0  0  0  0  0  0  0
   -0.0382    4.4943    5.4854 C   0  0  0  0  0  0  0  0  0  0  0  0
   -0.1208    4.1439    4.0000 C   0  0  2  0  0  0  0  0  0  0  0  0
   -1.5482    3.7217    3.5980 C   0  0  0  0  0  0  0  0  0  0  0  0
    0.8243    2.9810    3.7021 C   0  0  0  0  0  0  0  0  0  0  0  0
    0.4770    2.0718    6.0209 C   0  0  0  0  0  0  0  0  0  0  0  0
    1.0957   -1.9580    3.4279 H   0  0  0  0  0  0  0  0  0  0  0  0
    0.6145   -1.3553    1.8658 H   0  0  0  0  0  0  0  0  0  0  0  0
    3.4530   -2.0515    2.6569 H   0  0  0  0  0  0  0  0  0  0  0  0
    2.4155   -2.9342    1.5207 H   0  0  0  0  0  0  0  0  0  0  0  0
    5.2116   -0.9948    0.2080 H   0  0  0  0  0  0  0  0  0  0  0  0
    4.6405   -2.5898    0.5361 H   0  0  0  0  0  0  0  0  0  0  0  0
    3.4158   -3.9356   -1.2887 H   0  0  0  0  0  0  0  0  0  0  0  0
    3.1030   -3.8303   -3.8973 H   0  0  0  0  0  0  0  0  0  0  0  0
    4.5512    0.1500   -2.1936 H   0  0  0  0  0  0  0  0  0  0  0  0
    4.1944    0.2584    2.0459 H   0  0  0  0  0  0  0  0  0  0  0  0
    3.7790    0.9247    0.4820 H   0  0  0  0  0  0  0  0  0  0  0  0
    1.3934    1.1239    1.1687 H   0  0  0  0  0  0  0  0  0  0  0  0
    2.5628    1.8581    2.2943 H   0  0  0  0  0  0  0  0  0  0  0  0
   -1.0572    1.0511    3.0823 H   0  0  0  0  0  0  0  0  0  0  0  0
   -1.3339    0.4149    4.6685 H   0  0  0  0  0  0  0  0  0  0  0  0
   -2.9848    2.2156    4.1420 H   0  0  0  0  0  0  0  0  0  0  0  0
   -2.6130    3.6725    6.1412 H   0  0  0  0  0  0  0  0  0  0  0  0
   -2.2417    2.0108    6.5264 H   0  0  0  0  0  0  0  0  0  0  0  0
   -0.4401    3.5103    7.3675 H   0  0  0  0  0  0  0  0  0  0  0  0
   -0.6568    5.3631    5.7062 H   0  0  0  0  0  0  0  0  0  0  0  0
    0.9891    4.7591    5.7429 H   0  0  0  0  0  0  0  0  0  0  0  0
    0.1924    4.9946    3.3964 H   0  0  0  0  0  0  0  0  0  0  0  0
   -1.5722    3.4739    2.5345 H   0  0  0  0  0  0  0  0  0  0  0  0
   -2.2474    4.5437    3.7344 H   0  0  0  0  0  0  0  0  0  0  0  0
    1.8558    3.2763    3.8983 H   0  0  0  0  0  0  0  0  0  0  0  0
    0.7043    2.8413    2.6295 H   0  0  0  0  0  0  0  0  0  0  0  0
    0.1653    1.2126    6.6194 H   0  0  0  0  0  0  0  0  0  0  0  0
    1.4889    2.3152    6.3569 H   0  0  0  0  0  0  0  0  0  0  0  0
    2.3831   -1.0129    0.1261 H   0  0  0  0  0  0  0  0  0  0  0  0
  1  2  2  0
  2  3  1  0
 15  2  1  1
  3 14  1  0
  3  4  1  0
  4  5  1  0
  4 25  1  0
  4 26  1  0
  5  6  1  0
  5 27  1  0
  5 28  1  0
  6  7  1  0
  6 13  1  0
  6 53  1  0
  7  8  1  0
  7 29  1  0
  7 30  1  0
  8 12  2  0
  8  9  1  0
  9 10  2  0
  9 31  1  0
 10 11  1  0
 10 32  1  0
 11 12  1  0
 12 33  1  0
 13 14  1  0
 13 34  1  0
 13 35  1  0
 14 36  1  0
 14 37  1  0
 15 23  1  0
 15 24  1  0
 15 16  1  0
 16 17  1  0
 16 38  1  0
 16 39  1  0
 17 22  1  0
 17 18  1  0
 17 40  1  6
 18 19  1  0
 18 41  1  0
 18 42  1  0
 19 20  1  0
 19 24  1  0
 19 43  1  1
 20 21  1  0
 20 44  1  0
 20 45  1  0
 21 22  1  0
 21 23  1  0
 21 46  1  6
 22 47  1  0
 22 48  1  0
 23 49  1  0
 23 50  1  0
 24 51  1  0
 24 52  1  0
M  CHG  1   6   1
M  END
>  <i_m_ct_stereo_status>  (145) 
1

>  <s_m_source_file>  (145) 
/var/tmp/pbs.5076255.sched01/tmpguie9axe/40t6mruo9t.sdf

>  <i_m_source_file_index>  (145) 
17

>  <i_lp_mmshare_version>  (145) 
48012

>  <i_f3d_flags>  (145) 
0

>  <s_epik_input>  (145) 
W0NIMl0xW0NAQEhdKFtDSDJdMilbQ0gyXVtDQEBIXShbQ0gyXTMpW0NIMl1bQ0BIXTFbQ0gyXUMyM0MoPU8pTjRbQ0gyXVtDSDJdTihbQ0gyXVtDSDJdNClbQ0gyXWM1W2NIXVtjSF1zW2NIXTU=

>  <s_epik_cmdline>  (145) 
J2VwaWtfcHl0aG9uJywgJy1waHQnLCAnMi4wJywgJy1waCcsICc3LjAnLCAnLXRuJywgJzgnLCAnLW1hJywgJzIwMCcsICctaW1hZScsICc8aW5maWxlLm1hZT4nLCAnLW9tYWUnLCAnPG91dGZpbGUubWFlPic=

>  <r_epik_Ionization_Penalty>  (145) 
0.0365293

>  <r_epik_Ionization_Penalty_Charging>  (145) 
0.0365293

>  <r_epik_Ionization_Penalty_Neutral>  (145) 
1.63072e-10

>  <r_epik_State_Penalty>  (145) 
0.0305209

>  <r_epik_Charging_Adjusted_Penalty>  (145) 
0.0670502

>  <i_epik_Tot_Q>  (145) 
1

>  <i_epik_Tot_abs_Q>  (145) 
1

>  <s_lp_Force_Field>  (145) 
OPLS3e

>  <r_lp_Energy>  (145) 
26.1687

>  <b_lp_Chiralities_Consistent>  (145) 
1

>  <s_lp_Variant>  (145) 
37:0-1

>  <s_i_glide_gridfile>  (145) 
pfpi4k_grid

>  <i_i_glide_lignum>  (145) 
17

>  <i_i_glide_rotatable_bonds>  (145) 
4

>  <r_i_docking_score>  (145) 
-3.64998

>  <r_i_glide_ligand_efficiency>  (145) 
-0.152082

>  <r_i_glide_ligand_efficiency_sa>  (145) 
-0.438682

>  <r_i_glide_ligand_efficiency_ln>  (145) 
-0.873607

>  <r_i_glide_gscore>  (145) 
-3.64998

>  <r_i_glide_lipo>  (145) 
-0.307884

>  <r_i_glide_hbond>  (145) 
-0.2

>  <r_i_glide_metal>  (145) 
-0

>  <r_i_glide_rewards>  (145) 
-1.05325

>  <r_i_glide_evdw>  (145) 
-33.2664

>  <r_i_glide_ecoul>  (145) 
-6.48911

>  <r_i_glide_erotb>  (145) 
0.636618

>  <r_i_glide_esite>  (145) 
-0.0887727

>  <r_i_glide_emodel>  (145) 
-42.939

>  <r_i_glide_energy>  (145) 
-39.7555

>  <r_i_glide_einternal>  (145) 
12.4668

>  <r_i_glide_intrahb_reward>  (145) 
-0

>  <i_i_glide_confnum>  (145) 
4

>  <i_i_glide_posenum>  (145) 
12

>  <r_i_glide_eff_state_penalty>  (145) 
0

>  <ligand_id>  (145) 
37

>  <original_smiles>  (145) 
O=C(N1CCN(Cc2ccsc2)CC1)C12CC3CC(CC(C3)C1)C2

>  <smiles>  (145) 
[H]c1sc([H])c(C([H])([H])[N+]2([H])C([H])([H])C([H])([H])N(C(=O)C34C([H])([H])C5([H])C([H])([H])C([H])(C([H])([H])C([H])(C5([H])[H])C3([H])[H])C4([H])[H])C([H])([H])C2([H])[H])c1[H]

$$$$
37:0:1
     RDKit          3D

 53 57  0  0  1  0  0  0  0  0999 V2000
    4.2887   -6.4309    3.7207 O   0  0  0  0  0  0  0  0  0  0  0  0
    3.3850   -6.5605    2.8938 C   0  0  0  0  0  0  0  0  0  0  0  0
    3.5748   -6.1828    1.6234 N   0  0  0  0  0  0  0  0  0  0  0  0
    4.7699   -6.6055    0.8947 C   0  0  0  0  0  0  0  0  0  0  0  0
    5.5638   -5.3960    0.3548 C   0  0  0  0  0  0  0  0  0  0  0  0
    4.6989   -4.4614   -0.4105 N   0  0  0  0  0  0  0  0  0  0  0  0
    5.4639   -3.3325   -1.0198 C   0  0  0  0  0  0  0  0  0  0  0  0
    4.6444   -2.5694   -2.0212 C   0  0  0  0  0  0  0  0  0  0  0  0
    3.9400   -3.1771   -3.1060 C   0  0  0  0  0  0  0  0  0  0  0  0
    3.2413   -2.2830   -3.8607 C   0  0  0  0  0  0  0  0  0  0  0  0
    3.4701   -0.6568   -3.3034 S   0  0  0  0  0  0  0  0  0  0  0  0
    4.4659   -1.2087   -1.9942 C   0  0  0  0  0  0  0  0  0  0  0  0
    3.5746   -4.0000    0.4319 C   0  0  0  0  0  0  0  0  0  0  0  0
    2.7514   -5.1816    0.9504 C   0  0  0  0  0  0  0  0  0  0  0  0
    2.0800   -7.3318    3.2752 C   0  0  2  0  0  0  0  0  0  0  0  0
    2.0125   -7.6037    4.8172 C   0  0  0  0  0  0  0  0  0  0  0  0
    0.7163   -8.3575    5.1856 C   0  0  1  0  0  0  0  0  0  0  0  0
   -0.5175   -7.5286    4.7795 C   0  0  0  0  0  0  0  0  0  0  0  0
   -0.4793   -7.2998    3.2630 C   0  0  2  0  0  0  0  0  0  0  0  0
   -0.4949   -8.6432    2.5092 C   0  0  0  0  0  0  0  0  0  0  0  0
    0.7356   -9.4718    2.9282 C   0  0  2  0  0  0  0  0  0  0  0  0
    0.7022   -9.7138    4.4503 C   0  0  0  0  0  0  0  0  0  0  0  0
    2.0315   -8.7146    2.5565 C   0  0  0  0  0  0  0  0  0  0  0  0
    0.7918   -6.5465    2.8906 C   0  0  0  0  0  0  0  0  0  0  0  0
    5.4202   -7.2434    1.5056 H   0  0  0  0  0  0  0  0  0  0  0  0
    4.4419   -7.2293    0.0669 H   0  0  0  0  0  0  0  0  0  0  0  0
    6.0481   -4.8693    1.1847 H   0  0  0  0  0  0  0  0  0  0  0  0
    6.3556   -5.7753   -0.2955 H   0  0  0  0  0  0  0  0  0  0  0  0
    5.8030   -2.6585   -0.2292 H   0  0  0  0  0  0  0  0  0  0  0  0
    6.3613   -3.7058   -1.5181 H   0  0  0  0  0  0  0  0  0  0  0  0
    3.9378   -4.2383   -3.2741 H   0  0  0  0  0  0  0  0  0  0  0  0
    2.5857   -2.4917   -4.6991 H   0  0  0  0  0  0  0  0  0  0  0  0
    4.8515   -0.4922   -1.2774 H   0  0  0  0  0  0  0  0  0  0  0  0
    3.9580   -3.4316    1.2824 H   0  0  0  0  0  0  0  0  0  0  0  0
    2.9020   -3.3338   -0.1155 H   0  0  0  0  0  0  0  0  0  0  0  0
    2.2021   -5.6580    0.1395 H   0  0  0  0  0  0  0  0  0  0  0  0
    2.0444   -4.7054    1.6277 H   0  0  0  0  0  0  0  0  0  0  0  0
    2.8697   -8.2058    5.1114 H   0  0  0  0  0  0  0  0  0  0  0  0
    2.0809   -6.6756    5.3970 H   0  0  0  0  0  0  0  0  0  0  0  0
    0.6733   -8.5384    6.2628 H   0  0  0  0  0  0  0  0  0  0  0  0
   -1.4447   -8.0388    5.0474 H   0  0  0  0  0  0  0  0  0  0  0  0
   -0.5157   -6.5663    5.2929 H   0  0  0  0  0  0  0  0  0  0  0  0
   -1.3493   -6.7129    2.9643 H   0  0  0  0  0  0  0  0  0  0  0  0
   -1.4179   -9.1887    2.7058 H   0  0  0  0  0  0  0  0  0  0  0  0
   -0.4765   -8.4408    1.4366 H   0  0  0  0  0  0  0  0  0  0  0  0
    0.7057  -10.4305    2.4112 H   0  0  0  0  0  0  0  0  0  0  0  0
    1.5532  -10.3197    4.7580 H   0  0  0  0  0  0  0  0  0  0  0  0
   -0.1789  -10.2795    4.7295 H   0  0  0  0  0  0  0  0  0  0  0  0
    2.0801   -8.5946    1.4754 H   0  0  0  0  0  0  0  0  0  0  0  0
    2.8912   -9.3242    2.8232 H   0  0  0  0  0  0  0  0  0  0  0  0
    0.8215   -5.5616    3.3639 H   0  0  0  0  0  0  0  0  0  0  0  0
    0.7119   -6.3975    1.8107 H   0  0  0  0  0  0  0  0  0  0  0  0
    4.2860   -4.9866   -1.1688 H   0  0  0  0  0  0  0  0  0  0  0  0
  1  2  2  0
  2  3  1  0
 15  2  1  1
  3 14  1  0
  3  4  1  0
  4  5  1  0
  4 25  1  0
  4 26  1  0
  5  6  1  0
  5 27  1  0
  5 28  1  0
  6  7  1  0
  6 13  1  0
  6 53  1  0
  7  8  1  0
  7 29  1  0
  7 30  1  0
  8 12  2  0
  8  9  1  0
  9 10  2  0
  9 31  1  0
 10 11  1  0
 10 32  1  0
 11 12  1  0
 12 33  1  0
 13 14  1  0
 13 34  1  0
 13 35  1  0
 14 36  1  0
 14 37  1  0
 15 23  1  0
 15 24  1  0
 15 16  1  0
 16 17  1  0
 16 38  1  0
 16 39  1  0
 17 22  1  0
 17 18  1  0
 17 40  1  1
 18 19  1  0
 18 41  1  0
 18 42  1  0
 19 20  1  0
 19 24  1  0
 19 43  1  6
 20 21  1  0
 20 44  1  0
 20 45  1  0
 21 22  1  0
 21 23  1  0
 21 46  1  6
 22 47  1  0
 22 48  1  0
 23 49  1  0
 23 50  1  0
 24 51  1  0
 24 52  1  0
M  CHG  1   6   1
M  END
>  <i_m_ct_stereo_status>  (146) 
1

>  <s_m_source_file>  (146) 
/var/tmp/pbs.5076255.sched01/tmpguie9axe/40t6mruo9t.sdf

>  <i_m_source_file_index>  (146) 
17

>  <i_lp_mmshare_version>  (146) 
48012

>  <i_f3d_flags>  (146) 
0

>  <s_epik_input>  (146) 
W0NIMl0xW0NAQEhdKFtDSDJdMilbQ0gyXVtDQEBIXShbQ0gyXTMpW0NIMl1bQ0BIXTFbQ0gyXUMyM0MoPU8pTjRbQ0gyXVtDSDJdTihbQ0gyXVtDSDJdNClbQ0gyXWM1W2NIXVtjSF1zW2NIXTU=

>  <s_epik_cmdline>  (146) 
J2VwaWtfcHl0aG9uJywgJy1waHQnLCAnMi4wJywgJy1waCcsICc3LjAnLCAnLXRuJywgJzgnLCAnLW1hJywgJzIwMCcsICctaW1hZScsICc8aW5maWxlLm1hZT4nLCAnLW9tYWUnLCAnPG91dGZpbGUubWFlPic=

>  <r_epik_Ionization_Penalty>  (146) 
0.0365293

>  <r_epik_Ionization_Penalty_Charging>  (146) 
0.0365293

>  <r_epik_Ionization_Penalty_Neutral>  (146) 
1.63072e-10

>  <r_epik_State_Penalty>  (146) 
0.0305209

>  <r_epik_Charging_Adjusted_Penalty>  (146) 
0.0670502

>  <i_epik_Tot_Q>  (146) 
1

>  <i_epik_Tot_abs_Q>  (146) 
1

>  <s_lp_Force_Field>  (146) 
OPLS3e

>  <r_lp_Energy>  (146) 
26.1687

>  <b_lp_Chiralities_Consistent>  (146) 
1

>  <s_lp_Variant>  (146) 
37:0-1

>  <s_i_glide_gridfile>  (146) 
pfpi4k_grid

>  <i_i_glide_lignum>  (146) 
17

>  <i_i_glide_rotatable_bonds>  (146) 
4

>  <r_i_docking_score>  (146) 
-3.49065

>  <r_i_glide_ligand_efficiency>  (146) 
-0.145444

>  <r_i_glide_ligand_efficiency_sa>  (146) 
-0.419533

>  <r_i_glide_ligand_efficiency_ln>  (146) 
-0.835473

>  <r_i_glide_gscore>  (146) 
-3.49065

>  <r_i_glide_lipo>  (146) 
-0.647101

>  <r_i_glide_hbond>  (146) 
0

>  <r_i_glide_metal>  (146) 
-0

>  <r_i_glide_rewards>  (146) 
-1.10629

>  <r_i_glide_evdw>  (146) 
-33.5749

>  <r_i_glide_ecoul>  (146) 
-4.629

>  <r_i_glide_erotb>  (146) 
0.636618

>  <r_i_glide_esite>  (146) 
-0.000782353

>  <r_i_glide_emodel>  (146) 
-41.9729

>  <r_i_glide_energy>  (146) 
-38.2039

>  <r_i_glide_einternal>  (146) 
10.5545

>  <r_i_glide_intrahb_reward>  (146) 
-0

>  <i_i_glide_confnum>  (146) 
4

>  <i_i_glide_posenum>  (146) 
26

>  <r_i_glide_eff_state_penalty>  (146) 
0

>  <ligand_id>  (146) 
37

>  <original_smiles>  (146) 
O=C(N1CCN(Cc2ccsc2)CC1)C12CC3CC(CC(C3)C1)C2

>  <smiles>  (146) 
[H]c1sc([H])c(C([H])([H])[N+]2([H])C([H])([H])C([H])([H])N(C(=O)C34C([H])([H])C5([H])C([H])([H])C([H])(C([H])([H])C([H])(C5([H])[H])C3([H])[H])C4([H])[H])C([H])([H])C2([H])[H])c1[H]

$$$$
37:0:2
     RDKit          3D

 53 57  0  0  1  0  0  0  0  0999 V2000
    5.3599   -0.2856    2.8968 O   0  0  0  0  0  0  0  0  0  0  0  0
    4.3499   -0.6358    2.3058 C   0  0  0  0  0  0  0  0  0  0  0  0
    3.1157   -0.2765    2.7161 N   0  0  0  0  0  0  0  0  0  0  0  0
    1.8508   -0.2855    1.9622 C   0  0  0  0  0  0  0  0  0  0  0  0
    1.2767    1.1273    1.9130 C   0  0  0  0  0  0  0  0  0  0  0  0
    0.9934    1.6059    3.2869 N   0  0  0  0  0  0  0  0  0  0  0  0
    0.2823    2.8867    3.3014 C   0  0  0  0  0  0  0  0  0  0  0  0
   -0.4382    3.0900    4.5983 C   0  0  0  0  0  0  0  0  0  0  0  0
   -1.7758    2.6348    4.8404 C   0  0  0  0  0  0  0  0  0  0  0  0
   -2.2110    2.9296    6.0991 C   0  0  0  0  0  0  0  0  0  0  0  0
   -0.9882    3.7495    7.0300 S   0  0  0  0  0  0  0  0  0  0  0  0
    0.1133    3.7137    5.6912 C   0  0  0  0  0  0  0  0  0  0  0  0
    2.2310    1.5873    4.1117 C   0  0  0  0  0  0  0  0  0  0  0  0
    2.9207    0.2125    4.1222 C   0  0  0  0  0  0  0  0  0  0  0  0
    4.5251   -1.6384    1.0911 C   0  0  2  0  0  0  0  0  0  0  0  0
    4.2014   -0.9572   -0.2798 C   0  0  0  0  0  0  0  0  0  0  0  0
    4.3670   -1.9689   -1.4208 C   0  0  1  0  0  0  0  0  0  0  0  0
    5.8286   -2.4053   -1.5080 C   0  0  0  0  0  0  0  0  0  0  0  0
    6.2102   -3.0832   -0.1739 C   0  0  2  0  0  0  0  0  0  0  0  0
    5.3440   -4.3297    0.0586 C   0  0  0  0  0  0  0  0  0  0  0  0
    3.8621   -3.9041    0.1366 C   0  0  2  0  0  0  0  0  0  0  0  0
    3.4498   -3.1948   -1.1659 C   0  0  0  0  0  0  0  0  0  0  0  0
    3.6757   -2.9282    1.3273 C   0  0  0  0  0  0  0  0  0  0  0  0
    6.0168   -2.1021    1.0073 C   0  0  0  0  0  0  0  0  0  0  0  0
    1.9559   -0.5126    0.8922 H   0  0  0  0  0  0  0  0  0  0  0  0
    1.1514   -1.0096    2.4051 H   0  0  0  0  0  0  0  0  0  0  0  0
    1.9621    1.8371    1.4502 H   0  0  0  0  0  0  0  0  0  0  0  0
    0.3830    1.1216    1.3024 H   0  0  0  0  0  0  0  0  0  0  0  0
    0.9894    3.7010    3.1084 H   0  0  0  0  0  0  0  0  0  0  0  0
   -0.4615    2.9398    2.4997 H   0  0  0  0  0  0  0  0  0  0  0  0
   -2.3559    2.1136    4.0848 H   0  0  0  0  0  0  0  0  0  0  0  0
   -3.1773    2.7167    6.5491 H   0  0  0  0  0  0  0  0  0  0  0  0
    1.1092    4.1364    5.7912 H   0  0  0  0  0  0  0  0  0  0  0  0
    2.9276    2.3273    3.7089 H   0  0  0  0  0  0  0  0  0  0  0  0
    2.0073    1.8638    5.1577 H   0  0  0  0  0  0  0  0  0  0  0  0
    2.2761   -0.5214    4.6155 H   0  0  0  0  0  0  0  0  0  0  0  0
    3.8375    0.2634    4.7206 H   0  0  0  0  0  0  0  0  0  0  0  0
    3.1674   -0.6855   -0.4703 H   0  0  0  0  0  0  0  0  0  0  0  0
    4.8059   -0.0486   -0.4089 H   0  0  0  0  0  0  0  0  0  0  0  0
    4.0540   -1.4849   -2.3448 H   0  0  0  0  0  0  0  0  0  0  0  0
    5.9793   -3.0606   -2.3763 H   0  0  0  0  0  0  0  0  0  0  0  0
    6.4214   -1.5056   -1.6609 H   0  0  0  0  0  0  0  0  0  0  0  0
    7.2631   -3.3766   -0.2373 H   0  0  0  0  0  0  0  0  0  0  0  0
    5.4765   -5.0532   -0.7435 H   0  0  0  0  0  0  0  0  0  0  0  0
    5.6397   -4.8195    0.9815 H   0  0  0  0  0  0  0  0  0  0  0  0
    3.2419   -4.7892    0.2909 H   0  0  0  0  0  0  0  0  0  0  0  0
    2.4033   -2.8895   -1.0938 H   0  0  0  0  0  0  0  0  0  0  0  0
    3.4970   -3.8817   -2.0150 H   0  0  0  0  0  0  0  0  0  0  0  0
    3.9514   -3.4339    2.2613 H   0  0  0  0  0  0  0  0  0  0  0  0
    2.6065   -2.7274    1.4217 H   0  0  0  0  0  0  0  0  0  0  0  0
    6.6516   -1.2288    0.8512 H   0  0  0  0  0  0  0  0  0  0  0  0
    6.3834   -2.5610    1.9376 H   0  0  0  0  0  0  0  0  0  0  0  0
    0.3609    0.9062    3.6565 H   0  0  0  0  0  0  0  0  0  0  0  0
  1  2  2  0
  2  3  1  0
 15  2  1  1
  3 14  1  0
  3  4  1  0
  4  5  1  0
  4 25  1  0
  4 26  1  0
  5  6  1  0
  5 27  1  0
  5 28  1  0
  6  7  1  0
  6 13  1  0
  6 53  1  0
  7  8  1  0
  7 29  1  0
  7 30  1  0
  8 12  2  0
  8  9  1  0
  9 10  2  0
  9 31  1  0
 10 11  1  0
 10 32  1  0
 11 12  1  0
 12 33  1  0
 13 14  1  0
 13 34  1  0
 13 35  1  0
 14 36  1  0
 14 37  1  0
 15 23  1  0
 15 24  1  0
 15 16  1  0
 16 17  1  0
 16 38  1  0
 16 39  1  0
 17 22  1  0
 17 18  1  0
 17 40  1  6
 18 19  1  0
 18 41  1  0
 18 42  1  0
 19 20  1  0
 19 24  1  0
 19 43  1  6
 20 21  1  0
 20 44  1  0
 20 45  1  0
 21 22  1  0
 21 23  1  0
 21 46  1  1
 22 47  1  0
 22 48  1  0
 23 49  1  0
 23 50  1  0
 24 51  1  0
 24 52  1  0
M  CHG  1   6   1
M  END
>  <i_m_ct_stereo_status>  (147) 
1

>  <s_m_source_file>  (147) 
/var/tmp/pbs.5076255.sched01/tmpguie9axe/40t6mruo9t.sdf

>  <i_m_source_file_index>  (147) 
17

>  <i_lp_mmshare_version>  (147) 
48012

>  <i_f3d_flags>  (147) 
0

>  <s_epik_input>  (147) 
W0NIMl0xW0NAQEhdKFtDSDJdMilbQ0gyXVtDQEBIXShbQ0gyXTMpW0NIMl1bQ0BIXTFbQ0gyXUMyM0MoPU8pTjRbQ0gyXVtDSDJdTihbQ0gyXVtDSDJdNClbQ0gyXWM1W2NIXVtjSF1zW2NIXTU=

>  <s_epik_cmdline>  (147) 
J2VwaWtfcHl0aG9uJywgJy1waHQnLCAnMi4wJywgJy1waCcsICc3LjAnLCAnLXRuJywgJzgnLCAnLW1hJywgJzIwMCcsICctaW1hZScsICc8aW5maWxlLm1hZT4nLCAnLW9tYWUnLCAnPG91dGZpbGUubWFlPic=

>  <r_epik_Ionization_Penalty>  (147) 
0.0365293

>  <r_epik_Ionization_Penalty_Charging>  (147) 
0.0365293

>  <r_epik_Ionization_Penalty_Neutral>  (147) 
1.63072e-10

>  <r_epik_State_Penalty>  (147) 
0.0305209

>  <r_epik_Charging_Adjusted_Penalty>  (147) 
0.0670502

>  <i_epik_Tot_Q>  (147) 
1

>  <i_epik_Tot_abs_Q>  (147) 
1

>  <s_lp_Force_Field>  (147) 
OPLS3e

>  <r_lp_Energy>  (147) 
26.1687

>  <b_lp_Chiralities_Consistent>  (147) 
1

>  <s_lp_Variant>  (147) 
37:0-1

>  <s_i_glide_gridfile>  (147) 
pfpi4k_grid

>  <i_i_glide_lignum>  (147) 
17

>  <i_i_glide_rotatable_bonds>  (147) 
4

>  <r_i_docking_score>  (147) 
-3.16425

>  <r_i_glide_ligand_efficiency>  (147) 
-0.131844

>  <r_i_glide_ligand_efficiency_sa>  (147) 
-0.380303

>  <r_i_glide_ligand_efficiency_ln>  (147) 
-0.757351

>  <r_i_glide_gscore>  (147) 
-3.16425

>  <r_i_glide_lipo>  (147) 
-0.350801

>  <r_i_glide_hbond>  (147) 
-0.0370511

>  <r_i_glide_metal>  (147) 
-0

>  <r_i_glide_rewards>  (147) 
-1.14436

>  <r_i_glide_evdw>  (147) 
-28.6995

>  <r_i_glide_ecoul>  (147) 
-5.36367

>  <r_i_glide_erotb>  (147) 
0.636618

>  <r_i_glide_esite>  (147) 
-0.0291352

>  <r_i_glide_emodel>  (147) 
-40.9298

>  <r_i_glide_energy>  (147) 
-34.0631

>  <r_i_glide_einternal>  (147) 
0.488203

>  <r_i_glide_intrahb_reward>  (147) 
-0

>  <i_i_glide_confnum>  (147) 
3

>  <i_i_glide_posenum>  (147) 
15

>  <r_i_glide_eff_state_penalty>  (147) 
0

>  <ligand_id>  (147) 
37

>  <original_smiles>  (147) 
O=C(N1CCN(Cc2ccsc2)CC1)C12CC3CC(CC(C3)C1)C2

>  <smiles>  (147) 
[H]c1sc([H])c(C([H])([H])[N+]2([H])C([H])([H])C([H])([H])N(C(=O)C34C([H])([H])C5([H])C([H])([H])C([H])(C([H])([H])C([H])(C5([H])[H])C3([H])[H])C4([H])[H])C([H])([H])C2([H])[H])c1[H]

$$$$
37:1:0
     RDKit          3D

 52 56  0  0  1  0  0  0  0  0999 V2000
    4.8063   -7.0270    3.8834 O   0  0  0  0  0  0  0  0  0  0  0  0
    3.8725   -6.5396    3.2373 C   0  0  0  0  0  0  0  0  0  0  0  0
    4.0678   -5.4372    2.4624 N   0  0  0  0  0  0  0  0  0  0  0  0
    3.1203   -4.7946    1.4991 C   0  0  0  0  0  0  0  0  0  0  0  0
    3.8165   -4.7272    0.1226 C   0  0  0  0  0  0  0  0  0  0  0  0
    4.9967   -3.8826    0.2258 N   0  0  0  0  0  0  0  0  0  0  0  0
    5.5540   -3.6819   -1.1052 C   0  0  0  0  0  0  0  0  0  0  0  0
    4.8606   -2.7252   -2.0236 C   0  0  0  0  0  0  0  0  0  0  0  0
    4.7900   -1.3205   -1.7709 C   0  0  0  0  0  0  0  0  0  0  0  0
    4.0607   -0.6527   -2.7173 C   0  0  0  0  0  0  0  0  0  0  0  0
    3.4237   -1.7248   -3.9254 S   0  0  0  0  0  0  0  0  0  0  0  0
    4.1805   -3.0911   -3.1579 C   0  0  0  0  0  0  0  0  0  0  0  0
    5.9582   -4.5088    1.1313 C   0  0  0  0  0  0  0  0  0  0  0  0
    5.3192   -4.6613    2.5340 C   0  0  0  0  0  0  0  0  0  0  0  0
    2.4415   -7.1375    3.4684 C   0  0  1  0  0  0  0  0  0  0  0  0
    2.5171   -8.2893    4.5300 C   0  0  0  0  0  0  0  0  0  0  0  0
    1.1103   -8.8875    4.8233 C   0  0  2  0  0  0  0  0  0  0  0  0
    0.5141   -9.4584    3.5182 C   0  0  0  0  0  0  0  0  0  0  0  0
    0.4154   -8.3229    2.5016 C   0  0  1  0  0  0  0  0  0  0  0  0
   -0.4825   -7.1785    3.0221 C   0  0  0  0  0  0  0  0  0  0  0  0
    0.0979   -6.6406    4.3377 C   0  0  1  0  0  0  0  0  0  0  0  0
    0.1917   -7.7833    5.3705 C   0  0  0  0  0  0  0  0  0  0  0  0
    1.4993   -6.0473    4.0744 C   0  0  0  0  0  0  0  0  0  0  0  0
    1.8278   -7.8016    2.1705 C   0  0  0  0  0  0  0  0  0  0  0  0
    2.1836   -5.3179    1.3212 H   0  0  0  0  0  0  0  0  0  0  0  0
    2.8622   -3.7916    1.8553 H   0  0  0  0  0  0  0  0  0  0  0  0
    4.0856   -5.7201   -0.2567 H   0  0  0  0  0  0  0  0  0  0  0  0
    3.1177   -4.3127   -0.6018 H   0  0  0  0  0  0  0  0  0  0  0  0
    6.5888   -3.3413   -1.0042 H   0  0  0  0  0  0  0  0  0  0  0  0
    5.6221   -4.6559   -1.5992 H   0  0  0  0  0  0  0  0  0  0  0  0
    5.2362   -0.8685   -0.8901 H   0  0  0  0  0  0  0  0  0  0  0  0
    3.8156    0.4048   -2.7433 H   0  0  0  0  0  0  0  0  0  0  0  0
    4.0225   -4.0954   -3.5361 H   0  0  0  0  0  0  0  0  0  0  0  0
    6.2907   -5.4828    0.7634 H   0  0  0  0  0  0  0  0  0  0  0  0
    6.8330   -3.8615    1.2259 H   0  0  0  0  0  0  0  0  0  0  0  0
    5.0738   -3.6776    2.9542 H   0  0  0  0  0  0  0  0  0  0  0  0
    6.0660   -5.0801    3.2158 H   0  0  0  0  0  0  0  0  0  0  0  0
    3.1654   -9.0927    4.1554 H   0  0  0  0  0  0  0  0  0  0  0  0
    2.9725   -7.9744    5.4794 H   0  0  0  0  0  0  0  0  0  0  0  0
    1.1927   -9.7014    5.5513 H   0  0  0  0  0  0  0  0  0  0  0  0
    1.1680  -10.2360    3.1088 H   0  0  0  0  0  0  0  0  0  0  0  0
   -0.4687   -9.9149    3.6908 H   0  0  0  0  0  0  0  0  0  0  0  0
   -0.0284   -8.6769    1.5778 H   0  0  0  0  0  0  0  0  0  0  0  0
   -0.5227   -6.3822    2.2843 H   0  0  0  0  0  0  0  0  0  0  0  0
   -1.5081   -7.5277    3.1574 H   0  0  0  0  0  0  0  0  0  0  0  0
   -0.5532   -5.8610    4.7317 H   0  0  0  0  0  0  0  0  0  0  0  0
   -0.7882   -8.1937    5.5897 H   0  0  0  0  0  0  0  0  0  0  0  0
    0.5930   -7.4013    6.3052 H   0  0  0  0  0  0  0  0  0  0  0  0
    1.9222   -5.6911    5.0204 H   0  0  0  0  0  0  0  0  0  0  0  0
    1.4071   -5.1517    3.4513 H   0  0  0  0  0  0  0  0  0  0  0  0
    1.6328   -7.1744    1.3039 H   0  0  0  0  0  0  0  0  0  0  0  0
    2.4847   -8.6160    1.8267 H   0  0  0  0  0  0  0  0  0  0  0  0
  1  2  2  0
  2  3  1  0
 15  2  1  6
  3 14  1  0
  3  4  1  0
  4  5  1  0
  4 25  1  0
  4 26  1  0
  5  6  1  0
  5 27  1  0
  5 28  1  0
  6  7  1  0
  6 13  1  0
  7  8  1  0
  7 29  1  0
  7 30  1  0
  8 12  2  0
  8  9  1  0
  9 10  2  0
  9 31  1  0
 10 11  1  0
 10 32  1  0
 11 12  1  0
 12 33  1  0
 13 14  1  0
 13 34  1  0
 13 35  1  0
 14 36  1  0
 14 37  1  0
 15 23  1  0
 15 24  1  0
 15 16  1  0
 16 17  1  0
 16 38  1  0
 16 39  1  0
 17 22  1  0
 17 18  1  0
 17 40  1  1
 18 19  1  0
 18 41  1  0
 18 42  1  0
 19 20  1  0
 19 24  1  0
 19 43  1  6
 20 21  1  0
 20 44  1  0
 20 45  1  0
 21 22  1  0
 21 23  1  0
 21 46  1  1
 22 47  1  0
 22 48  1  0
 23 49  1  0
 23 50  1  0
 24 51  1  0
 24 52  1  0
M  END
>  <i_m_ct_stereo_status>  (148) 
1

>  <s_m_source_file>  (148) 
/var/tmp/pbs.5076255.sched01/tmpguie9axe/40t6mruo9t.sdf

>  <i_m_source_file_index>  (148) 
18

>  <i_lp_mmshare_version>  (148) 
48012

>  <i_f3d_flags>  (148) 
0

>  <s_epik_input>  (148) 
W0NIMl0xW0NAQEhdKFtDSDJdMilbQ0gyXVtDQEBIXShbQ0gyXTMpW0NIMl1bQ0BIXTFbQ0gyXUMyM0MoPU8pTjRbQ0gyXVtDSDJdTihbQ0gyXVtDSDJdNClbQ0gyXWM1W2NIXVtjSF1zW2NIXTU=

>  <s_epik_cmdline>  (148) 
J2VwaWtfcHl0aG9uJywgJy1waHQnLCAnMi4wJywgJy1waCcsICc3LjAnLCAnLXRuJywgJzgnLCAnLW1hJywgJzIwMCcsICctaW1hZScsICc8aW5maWxlLm1hZT4nLCAnLW9tYWUnLCAnPG91dGZpbGUubWFlPic=

>  <r_epik_Ionization_Penalty>  (148) 
1.66896

>  <r_epik_Ionization_Penalty_Charging>  (148) 
0

>  <r_epik_Ionization_Penalty_Neutral>  (148) 
1.66896

>  <r_epik_State_Penalty>  (148) 
1.77246

>  <r_epik_Charging_Adjusted_Penalty>  (148) 
1.77246

>  <i_epik_Tot_Q>  (148) 
0

>  <i_epik_Tot_abs_Q>  (148) 
0

>  <s_lp_Force_Field>  (148) 
OPLS3e

>  <r_lp_Energy>  (148) 
43.2584

>  <b_lp_Chiralities_Consistent>  (148) 
1

>  <s_lp_Variant>  (148) 
37:0-2

>  <s_i_glide_gridfile>  (148) 
pfpi4k_grid

>  <i_i_glide_lignum>  (148) 
18

>  <i_i_glide_rotatable_bonds>  (148) 
4

>  <r_i_docking_score>  (148) 
-2.74168

>  <r_i_glide_ligand_efficiency>  (148) 
-0.114237

>  <r_i_glide_ligand_efficiency_sa>  (148) 
-0.329516

>  <r_i_glide_ligand_efficiency_ln>  (148) 
-0.65621

>  <r_i_glide_gscore>  (148) 
-2.74168

>  <r_i_glide_lipo>  (148) 
-0.505233

>  <r_i_glide_hbond>  (148) 
0

>  <r_i_glide_metal>  (148) 
-0

>  <r_i_glide_rewards>  (148) 
-1.06012

>  <r_i_glide_evdw>  (148) 
-31.5956

>  <r_i_glide_ecoul>  (148) 
-1.57649

>  <r_i_glide_erotb>  (148) 
0.639928

>  <r_i_glide_esite>  (148) 
0

>  <r_i_glide_emodel>  (148) 
-37.0656

>  <r_i_glide_energy>  (148) 
-33.1721

>  <r_i_glide_einternal>  (148) 
1.79086

>  <r_i_glide_intrahb_reward>  (148) 
-0

>  <i_i_glide_confnum>  (148) 
2

>  <i_i_glide_posenum>  (148) 
23

>  <r_i_glide_eff_state_penalty>  (148) 
0

>  <ligand_id>  (148) 
37

>  <original_smiles>  (148) 
O=C(N1CCN(Cc2ccsc2)CC1)C12CC3CC(CC(C3)C1)C2

>  <smiles>  (148) 
[H]c1sc([H])c(C([H])([H])N2C([H])([H])C([H])([H])N(C(=O)C34C([H])([H])C5([H])C([H])([H])C([H])(C([H])([H])C([H])(C5([H])[H])C3([H])[H])C4([H])[H])C([H])([H])C2([H])[H])c1[H]

$$$$
37:1:1
     RDKit          3D

 52 56  0  0  1  0  0  0  0  0999 V2000
    4.4870   -6.2039    4.5520 O   0  0  0  0  0  0  0  0  0  0  0  0
    3.6589   -6.0690    3.6483 C   0  0  0  0  0  0  0  0  0  0  0  0
    3.7520   -5.0438    2.7729 N   0  0  0  0  0  0  0  0  0  0  0  0
    2.9384   -4.7880    1.5731 C   0  0  0  0  0  0  0  0  0  0  0  0
    3.8348   -4.5917    0.3522 C   0  0  0  0  0  0  0  0  0  0  0  0
    4.7180   -3.4509    0.5726 N   0  0  0  0  0  0  0  0  0  0  0  0
    5.4845   -3.1972   -0.6432 C   0  0  0  0  0  0  0  0  0  0  0  0
    4.7852   -2.4944   -1.7680 C   0  0  0  0  0  0  0  0  0  0  0  0
    4.5445   -1.0836   -1.7851 C   0  0  0  0  0  0  0  0  0  0  0  0
    3.8421   -0.6696   -2.8822 C   0  0  0  0  0  0  0  0  0  0  0  0
    3.4303   -2.0056   -3.9183 S   0  0  0  0  0  0  0  0  0  0  0  0
    4.2446   -3.1216   -2.8581 C   0  0  0  0  0  0  0  0  0  0  0  0
    5.5775   -3.7229    1.7253 C   0  0  0  0  0  0  0  0  0  0  0  0
    4.7122   -3.9382    2.9832 C   0  0  0  0  0  0  0  0  0  0  0  0
    2.4762   -7.0829    3.5999 C   0  0  1  0  0  0  0  0  0  0  0  0
    2.5049   -8.0004    4.8769 C   0  0  0  0  0  0  0  0  0  0  0  0
    1.3201   -8.9974    4.8841 C   0  0  2  0  0  0  0  0  0  0  0  0
    1.4110   -9.8997    3.6380 C   0  0  0  0  0  0  0  0  0  0  0  0
    1.3673   -9.0139    2.3802 C   0  0  1  0  0  0  0  0  0  0  0  0
    0.0502   -8.2081    2.3442 C   0  0  0  0  0  0  0  0  0  0  0  0
   -0.0646   -7.3353    3.6153 C   0  0  1  0  0  0  0  0  0  0  0  0
   -0.0142   -8.2234    4.8713 C   0  0  0  0  0  0  0  0  0  0  0  0
    1.1030   -6.3322    3.6597 C   0  0  0  0  0  0  0  0  0  0  0  0
    2.5716   -8.0564    2.3801 C   0  0  0  0  0  0  0  0  0  0  0  0
    2.2729   -5.5877    1.2761 H   0  0  0  0  0  0  0  0  0  0  0  0
    2.3125   -3.9052    1.7352 H   0  0  0  0  0  0  0  0  0  0  0  0
    4.4183   -5.4929    0.1580 H   0  0  0  0  0  0  0  0  0  0  0  0
    3.2139   -4.4239   -0.5264 H   0  0  0  0  0  0  0  0  0  0  0  0
    6.3587   -2.6072   -0.3761 H   0  0  0  0  0  0  0  0  0  0  0  0
    5.8791   -4.1518   -0.9981 H   0  0  0  0  0  0  0  0  0  0  0  0
    4.8667   -0.4379   -0.9798 H   0  0  0  0  0  0  0  0  0  0  0  0
    3.4959    0.3283   -3.1225 H   0  0  0  0  0  0  0  0  0  0  0  0
    4.2340   -4.1847   -3.0719 H   0  0  0  0  0  0  0  0  0  0  0  0
    6.2175   -4.5904    1.5439 H   0  0  0  0  0  0  0  0  0  0  0  0
    6.2294   -2.8609    1.8903 H   0  0  0  0  0  0  0  0  0  0  0  0
    4.1524   -3.0336    3.2197 H   0  0  0  0  0  0  0  0  0  0  0  0
    5.3829   -4.0907    3.8319 H   0  0  0  0  0  0  0  0  0  0  0  0
    3.4336   -8.5657    4.9106 H   0  0  0  0  0  0  0  0  0  0  0  0
    2.4887   -7.4152    5.7994 H   0  0  0  0  0  0  0  0  0  0  0  0
    1.3609   -9.6227    5.7813 H   0  0  0  0  0  0  0  0  0  0  0  0
    2.3457  -10.4610    3.6514 H   0  0  0  0  0  0  0  0  0  0  0  0
    0.6035  -10.6319    3.6290 H   0  0  0  0  0  0  0  0  0  0  0  0
    1.4220   -9.6511    1.5010 H   0  0  0  0  0  0  0  0  0  0  0  0
    0.0210   -7.5765    1.4538 H   0  0  0  0  0  0  0  0  0  0  0  0
   -0.8076   -8.8767    2.2636 H   0  0  0  0  0  0  0  0  0  0  0  0
   -1.0104   -6.7872    3.5993 H   0  0  0  0  0  0  0  0  0  0  0  0
   -0.8652   -8.9096    4.8917 H   0  0  0  0  0  0  0  0  0  0  0  0
   -0.0949   -7.5990    5.7607 H   0  0  0  0  0  0  0  0  0  0  0  0
    1.0511   -5.7367    4.5759 H   0  0  0  0  0  0  0  0  0  0  0  0
    0.9210   -5.6125    2.8634 H   0  0  0  0  0  0  0  0  0  0  0  0
    2.5848   -7.5836    1.4035 H   0  0  0  0  0  0  0  0  0  0  0  0
    3.4999   -8.6279    2.4238 H   0  0  0  0  0  0  0  0  0  0  0  0
  1  2  2  0
  2  3  1  0
 15  2  1  1
  3 14  1  0
  3  4  1  0
  4  5  1  0
  4 25  1  0
  4 26  1  0
  5  6  1  0
  5 27  1  0
  5 28  1  0
  6  7  1  0
  6 13  1  0
  7  8  1  0
  7 29  1  0
  7 30  1  0
  8 12  2  0
  8  9  1  0
  9 10  2  0
  9 31  1  0
 10 11  1  0
 10 32  1  0
 11 12  1  0
 12 33  1  0
 13 14  1  0
 13 34  1  0
 13 35  1  0
 14 36  1  0
 14 37  1  0
 15 23  1  0
 15 24  1  0
 15 16  1  0
 16 17  1  0
 16 38  1  0
 16 39  1  0
 17 22  1  0
 17 18  1  0
 17 40  1  1
 18 19  1  0
 18 41  1  0
 18 42  1  0
 19 20  1  0
 19 24  1  0
 19 43  1  6
 20 21  1  0
 20 44  1  0
 20 45  1  0
 21 22  1  0
 21 23  1  0
 21 46  1  6
 22 47  1  0
 22 48  1  0
 23 49  1  0
 23 50  1  0
 24 51  1  0
 24 52  1  0
M  END
>  <i_m_ct_stereo_status>  (149) 
1

>  <s_m_source_file>  (149) 
/var/tmp/pbs.5076255.sched01/tmpguie9axe/40t6mruo9t.sdf

>  <i_m_source_file_index>  (149) 
18

>  <i_lp_mmshare_version>  (149) 
48012

>  <i_f3d_flags>  (149) 
0

>  <s_epik_input>  (149) 
W0NIMl0xW0NAQEhdKFtDSDJdMilbQ0gyXVtDQEBIXShbQ0gyXTMpW0NIMl1bQ0BIXTFbQ0gyXUMyM0MoPU8pTjRbQ0gyXVtDSDJdTihbQ0gyXVtDSDJdNClbQ0gyXWM1W2NIXVtjSF1zW2NIXTU=

>  <s_epik_cmdline>  (149) 
J2VwaWtfcHl0aG9uJywgJy1waHQnLCAnMi4wJywgJy1waCcsICc3LjAnLCAnLXRuJywgJzgnLCAnLW1hJywgJzIwMCcsICctaW1hZScsICc8aW5maWxlLm1hZT4nLCAnLW9tYWUnLCAnPG91dGZpbGUubWFlPic=

>  <r_epik_Ionization_Penalty>  (149) 
1.66896

>  <r_epik_Ionization_Penalty_Charging>  (149) 
0

>  <r_epik_Ionization_Penalty_Neutral>  (149) 
1.66896

>  <r_epik_State_Penalty>  (149) 
1.77246

>  <r_epik_Charging_Adjusted_Penalty>  (149) 
1.77246

>  <i_epik_Tot_Q>  (149) 
0

>  <i_epik_Tot_abs_Q>  (149) 
0

>  <s_lp_Force_Field>  (149) 
OPLS3e

>  <r_lp_Energy>  (149) 
43.2584

>  <b_lp_Chiralities_Consistent>  (149) 
1

>  <s_lp_Variant>  (149) 
37:0-2

>  <s_i_glide_gridfile>  (149) 
pfpi4k_grid

>  <i_i_glide_lignum>  (149) 
18

>  <i_i_glide_rotatable_bonds>  (149) 
4

>  <r_i_docking_score>  (149) 
-2.67402

>  <r_i_glide_ligand_efficiency>  (149) 
-0.111417

>  <r_i_glide_ligand_efficiency_sa>  (149) 
-0.321383

>  <r_i_glide_ligand_efficiency_ln>  (149) 
-0.640015

>  <r_i_glide_gscore>  (149) 
-2.67402

>  <r_i_glide_lipo>  (149) 
-0.354343

>  <r_i_glide_hbond>  (149) 
0

>  <r_i_glide_metal>  (149) 
-0

>  <r_i_glide_rewards>  (149) 
-1.06012

>  <r_i_glide_evdw>  (149) 
-31.4983

>  <r_i_glide_ecoul>  (149) 
-2.16376

>  <r_i_glide_erotb>  (149) 
0.639928

>  <r_i_glide_esite>  (149) 
0

>  <r_i_glide_emodel>  (149) 
-37.8563

>  <r_i_glide_energy>  (149) 
-33.662

>  <r_i_glide_einternal>  (149) 
1.76385

>  <r_i_glide_intrahb_reward>  (149) 
-0

>  <i_i_glide_confnum>  (149) 
2

>  <i_i_glide_posenum>  (149) 
16

>  <r_i_glide_eff_state_penalty>  (149) 
0

>  <ligand_id>  (149) 
37

>  <original_smiles>  (149) 
O=C(N1CCN(Cc2ccsc2)CC1)C12CC3CC(CC(C3)C1)C2

>  <smiles>  (149) 
[H]c1sc([H])c(C([H])([H])N2C([H])([H])C([H])([H])N(C(=O)C34C([H])([H])C5([H])C([H])([H])C([H])(C([H])([H])C([H])(C5([H])[H])C3([H])[H])C4([H])[H])C([H])([H])C2([H])[H])c1[H]

$$$$
37:1:2
     RDKit          3D

 52 56  0  0  1  0  0  0  0  0999 V2000
    0.6465   -4.5432    5.3173 O   0  0  0  0  0  0  0  0  0  0  0  0
    1.3330   -5.0198    4.4106 C   0  0  0  0  0  0  0  0  0  0  0  0
    2.2889   -4.2796    3.8001 N   0  0  0  0  0  0  0  0  0  0  0  0
    2.4128   -2.8196    4.0109 C   0  0  0  0  0  0  0  0  0  0  0  0
    2.4251   -2.0824    2.6508 C   0  0  0  0  0  0  0  0  0  0  0  0
    3.5141   -2.5964    1.8156 N   0  0  0  0  0  0  0  0  0  0  0  0
    3.5731   -1.9077    0.5288 C   0  0  0  0  0  0  0  0  0  0  0  0
    4.6735   -2.3028   -0.4106 C   0  0  0  0  0  0  0  0  0  0  0  0
    4.4993   -3.1695   -1.5347 C   0  0  0  0  0  0  0  0  0  0  0  0
    5.6693   -3.4423   -2.1929 C   0  0  0  0  0  0  0  0  0  0  0  0
    7.0295   -2.6718   -1.4227 S   0  0  0  0  0  0  0  0  0  0  0  0
    5.9844   -1.9427   -0.2333 C   0  0  0  0  0  0  0  0  0  0  0  0
    3.3018   -4.0225    1.5845 C   0  0  0  0  0  0  0  0  0  0  0  0
    3.3547   -4.7743    2.9166 C   0  0  0  0  0  0  0  0  0  0  0  0
    0.9991   -6.4656    3.9262 C   0  0  1  0  0  0  0  0  0  0  0  0
   -0.3268   -6.9634    4.6039 C   0  0  0  0  0  0  0  0  0  0  0  0
   -0.7120   -8.3718    4.0972 C   0  0  2  0  0  0  0  0  0  0  0  0
    0.4137   -9.3623    4.4608 C   0  0  0  0  0  0  0  0  0  0  0  0
    1.7270   -8.9006    3.7980 C   0  0  1  0  0  0  0  0  0  0  0  0
    1.5532   -8.8459    2.2653 C   0  0  0  0  0  0  0  0  0  0  0  0
    0.3953   -7.8910    1.9081 C   0  0  1  0  0  0  0  0  0  0  0  0
   -0.9141   -8.3517    2.5690 C   0  0  0  0  0  0  0  0  0  0  0  0
    0.7219   -6.4752    2.3871 C   0  0  0  0  0  0  0  0  0  0  0  0
    2.1036   -7.5024    4.3279 C   0  0  0  0  0  0  0  0  0  0  0  0
    1.6027   -2.4116    4.6196 H   0  0  0  0  0  0  0  0  0  0  0  0
    3.3309   -2.6215    4.5609 H   0  0  0  0  0  0  0  0  0  0  0  0
    1.4591   -2.2019    2.1518 H   0  0  0  0  0  0  0  0  0  0  0  0
    2.5685   -1.0124    2.8181 H   0  0  0  0  0  0  0  0  0  0  0  0
    2.6189   -2.0359    0.0154 H   0  0  0  0  0  0  0  0  0  0  0  0
    3.6555   -0.8374    0.7325 H   0  0  0  0  0  0  0  0  0  0  0  0
    3.5374   -3.5887   -1.8016 H   0  0  0  0  0  0  0  0  0  0  0  0
    5.8153   -4.0778   -3.0513 H   0  0  0  0  0  0  0  0  0  0  0  0
    6.3916   -1.3337    0.5603 H   0  0  0  0  0  0  0  0  0  0  0  0
    2.3508   -4.1810    1.0729 H   0  0  0  0  0  0  0  0  0  0  0  0
    4.0778   -4.4273    0.9383 H   0  0  0  0  0  0  0  0  0  0  0  0
    4.3234   -4.6297    3.4034 H   0  0  0  0  0  0  0  0  0  0  0  0
    3.3053   -5.8201    2.6545 H   0  0  0  0  0  0  0  0  0  0  0  0
   -0.2106   -7.0012    5.6882 H   0  0  0  0  0  0  0  0  0  0  0  0
   -1.1520   -6.2739    4.4226 H   0  0  0  0  0  0  0  0  0  0  0  0
   -1.6425   -8.6885    4.5764 H   0  0  0  0  0  0  0  0  0  0  0  0
    0.5452   -9.3975    5.5434 H   0  0  0  0  0  0  0  0  0  0  0  0
    0.1543  -10.3744    4.1482 H   0  0  0  0  0  0  0  0  0  0  0  0
    2.5214   -9.6083    4.0400 H   0  0  0  0  0  0  0  0  0  0  0  0
    2.4767   -8.5069    1.7906 H   0  0  0  0  0  0  0  0  0  0  0  0
    1.3602   -9.8378    1.8599 H   0  0  0  0  0  0  0  0  0  0  0  0
    0.2658   -7.8613    0.8293 H   0  0  0  0  0  0  0  0  0  0  0  0
   -1.2005   -9.3344    2.1957 H   0  0  0  0  0  0  0  0  0  0  0  0
   -1.7224   -7.6711    2.3048 H   0  0  0  0  0  0  0  0  0  0  0  0
   -0.1354   -5.8401    2.1691 H   0  0  0  0  0  0  0  0  0  0  0  0
    1.5269   -6.1209    1.7615 H   0  0  0  0  0  0  0  0  0  0  0  0
    3.0932   -7.2746    3.9478 H   0  0  0  0  0  0  0  0  0  0  0  0
    2.2197   -7.5390    5.4141 H   0  0  0  0  0  0  0  0  0  0  0  0
  1  2  2  0
  2  3  1  0
 15  2  1  1
  3 14  1  0
  3  4  1  0
  4  5  1  0
  4 25  1  0
  4 26  1  0
  5  6  1  0
  5 27  1  0
  5 28  1  0
  6  7  1  0
  6 13  1  0
  7  8  1  0
  7 29  1  0
  7 30  1  0
  8 12  2  0
  8  9  1  0
  9 10  2  0
  9 31  1  0
 10 11  1  0
 10 32  1  0
 11 12  1  0
 12 33  1  0
 13 14  1  0
 13 34  1  0
 13 35  1  0
 14 36  1  0
 14 37  1  0
 15 23  1  0
 15 24  1  0
 15 16  1  0
 16 17  1  0
 16 38  1  0
 16 39  1  0
 17 22  1  0
 17 18  1  0
 17 40  1  1
 18 19  1  0
 18 41  1  0
 18 42  1  0
 19 20  1  0
 19 24  1  0
 19 43  1  6
 20 21  1  0
 20 44  1  0
 20 45  1  0
 21 22  1  0
 21 23  1  0
 21 46  1  6
 22 47  1  0
 22 48  1  0
 23 49  1  0
 23 50  1  0
 24 51  1  0
 24 52  1  0
M  END
>  <i_m_ct_stereo_status>  (150) 
1

>  <s_m_source_file>  (150) 
/var/tmp/pbs.5076255.sched01/tmpguie9axe/40t6mruo9t.sdf

>  <i_m_source_file_index>  (150) 
18

>  <i_lp_mmshare_version>  (150) 
48012

>  <i_f3d_flags>  (150) 
0

>  <s_epik_input>  (150) 
W0NIMl0xW0NAQEhdKFtDSDJdMilbQ0gyXVtDQEBIXShbQ0gyXTMpW0NIMl1bQ0BIXTFbQ0gyXUMyM0MoPU8pTjRbQ0gyXVtDSDJdTihbQ0gyXVtDSDJdNClbQ0gyXWM1W2NIXVtjSF1zW2NIXTU=

>  <s_epik_cmdline>  (150) 
J2VwaWtfcHl0aG9uJywgJy1waHQnLCAnMi4wJywgJy1waCcsICc3LjAnLCAnLXRuJywgJzgnLCAnLW1hJywgJzIwMCcsICctaW1hZScsICc8aW5maWxlLm1hZT4nLCAnLW9tYWUnLCAnPG91dGZpbGUubWFlPic=

>  <r_epik_Ionization_Penalty>  (150) 
1.66896

>  <r_epik_Ionization_Penalty_Charging>  (150) 
0

>  <r_epik_Ionization_Penalty_Neutral>  (150) 
1.66896

>  <r_epik_State_Penalty>  (150) 
1.77246

>  <r_epik_Charging_Adjusted_Penalty>  (150) 
1.77246

>  <i_epik_Tot_Q>  (150) 
0

>  <i_epik_Tot_abs_Q>  (150) 
0

>  <s_lp_Force_Field>  (150) 
OPLS3e

>  <r_lp_Energy>  (150) 
43.2584

>  <b_lp_Chiralities_Consistent>  (150) 
1

>  <s_lp_Variant>  (150) 
37:0-2

>  <s_i_glide_gridfile>  (150) 
pfpi4k_grid

>  <i_i_glide_lignum>  (150) 
18

>  <i_i_glide_rotatable_bonds>  (150) 
4

>  <r_i_docking_score>  (150) 
-2.3791

>  <r_i_glide_ligand_efficiency>  (150) 
-0.0991293

>  <r_i_glide_ligand_efficiency_sa>  (150) 
-0.285938

>  <r_i_glide_ligand_efficiency_ln>  (150) 
-0.569429

>  <r_i_glide_gscore>  (150) 
-2.3791

>  <r_i_glide_lipo>  (150) 
-0.203484

>  <r_i_glide_hbond>  (150) 
0

>  <r_i_glide_metal>  (150) 
-0

>  <r_i_glide_rewards>  (150) 
-1.06033

>  <r_i_glide_evdw>  (150) 
-29.3596

>  <r_i_glide_ecoul>  (150) 
-1.90141

>  <r_i_glide_erotb>  (150) 
0.639928

>  <r_i_glide_esite>  (150) 
-0.00202383

>  <r_i_glide_emodel>  (150) 
-34.6196

>  <r_i_glide_energy>  (150) 
-31.261

>  <r_i_glide_einternal>  (150) 
2.23338

>  <r_i_glide_intrahb_reward>  (150) 
-0

>  <i_i_glide_confnum>  (150) 
4

>  <i_i_glide_posenum>  (150) 
33

>  <r_i_glide_eff_state_penalty>  (150) 
0

>  <ligand_id>  (150) 
37

>  <original_smiles>  (150) 
O=C(N1CCN(Cc2ccsc2)CC1)C12CC3CC(CC(C3)C1)C2

>  <smiles>  (150) 
[H]c1sc([H])c(C([H])([H])N2C([H])([H])C([H])([H])N(C(=O)C34C([H])([H])C5([H])C([H])([H])C([H])(C([H])([H])C([H])(C5([H])[H])C3([H])[H])C4([H])[H])C([H])([H])C2([H])[H])c1[H]

$$$$
38:0:0
     RDKit          3D

 37 40  0  0  1  0  0  0  0  0999 V2000
    0.5922  -10.3429    3.3204 C   0  0  0  0  0  0  0  0  0  0  0  0
   -0.0073   -9.0535    2.8972 C   0  0  0  0  0  0  0  0  0  0  0  0
   -1.2863   -8.7587    3.0795 N   0  0  0  0  0  0  0  0  0  0  0  0
   -1.4037   -7.4731    2.6193 N   0  0  0  0  0  0  0  0  0  0  0  0
   -0.2372   -7.0395    2.1914 N   0  0  0  0  0  0  0  0  0  0  0  0
    0.6675   -8.0493    2.3179 N   0  0  0  0  0  0  0  0  0  0  0  0
    2.0798   -7.9209    1.8968 C   0  0  0  0  0  0  0  0  0  0  0  0
    2.5223   -6.6191    1.2217 C   0  0  0  0  0  0  0  0  0  0  0  0
    3.7527   -6.0116    1.2300 C   0  0  0  0  0  0  0  0  0  0  0  0
    3.5602   -4.8665    0.4652 N   0  0  0  0  0  0  0  0  0  0  0  0
    4.4790   -3.8145    0.1189 C   0  0  2  0  0  0  0  0  0  0  0  0
    4.0499   -2.4256    0.7078 C   0  0  0  0  0  0  0  0  0  0  0  0
    4.8121   -1.2204    0.0787 C   0  0  0  0  0  0  0  0  0  0  0  0
    5.0577   -1.3948   -1.4386 C   0  0  2  0  0  0  0  0  0  0  0  0
    3.7689   -1.7276   -2.1516 C   0  0  0  0  0  0  0  0  0  0  0  0
    3.5793   -3.0441   -2.1488 C   0  0  0  0  0  0  0  0  0  0  0  0
    4.7179   -3.7367   -1.4187 C   0  0  1  0  0  0  0  0  0  0  0  0
    5.8375   -2.7047   -1.6383 C   0  0  0  0  0  0  0  0  0  0  0  0
    2.3019   -4.7890   -0.0101 N   0  0  0  0  0  0  0  0  0  0  0  0
    1.6937   -5.8732    0.3810 N   0  0  0  0  0  0  0  0  0  0  0  0
   -0.1821  -10.9333    3.8051 H   0  0  0  0  0  0  0  0  0  0  0  0
    1.3980  -10.1641    4.0331 H   0  0  0  0  0  0  0  0  0  0  0  0
    0.9638  -10.8800    2.4512 H   0  0  0  0  0  0  0  0  0  0  0  0
    2.6969   -8.1090    2.7808 H   0  0  0  0  0  0  0  0  0  0  0  0
    2.3108   -8.7568    1.2346 H   0  0  0  0  0  0  0  0  0  0  0  0
    4.7127   -6.2780    1.6827 H   0  0  0  0  0  0  0  0  0  0  0  0
    5.4258   -4.0713    0.5733 H   0  0  0  0  0  0  0  0  0  0  0  0
    2.9829   -2.2570    0.5538 H   0  0  0  0  0  0  0  0  0  0  0  0
    4.1882   -2.4327    1.7928 H   0  0  0  0  0  0  0  0  0  0  0  0
    4.2575   -0.3030    0.2721 H   0  0  0  0  0  0  0  0  0  0  0  0
    5.7699   -1.1181    0.5820 H   0  0  0  0  0  0  0  0  0  0  0  0
    5.5509   -0.5369   -1.8914 H   0  0  0  0  0  0  0  0  0  0  0  0
    3.1132   -0.9928   -2.5867 H   0  0  0  0  0  0  0  0  0  0  0  0
    2.7407   -3.5672   -2.5793 H   0  0  0  0  0  0  0  0  0  0  0  0
    4.9518   -4.7083   -1.8613 H   0  0  0  0  0  0  0  0  0  0  0  0
    6.1846   -2.7748   -2.6671 H   0  0  0  0  0  0  0  0  0  0  0  0
    6.7055   -2.8348   -0.9800 H   0  0  0  0  0  0  0  0  0  0  0  0
  1  2  1  0
  1 21  1  0
  1 22  1  0
  1 23  1  0
  2  6  1  0
  2  3  2  0
  3  4  1  0
  4  5  2  0
  5  6  1  0
  6  7  1  0
  7  8  1  0
  7 24  1  0
  7 25  1  0
  8 20  1  0
  8  9  2  0
  9 10  1  0
  9 26  1  0
 10 11  1  0
 10 19  1  0
 11 17  1  0
 11 12  1  0
 11 27  1  1
 12 13  1  0
 12 28  1  0
 12 29  1  0
 13 14  1  0
 13 30  1  0
 13 31  1  0
 14 18  1  0
 14 15  1  0
 14 32  1  6
 15 16  2  0
 15 33  1  0
 16 17  1  0
 16 34  1  0
 17 18  1  0
 17 35  1  6
 18 36  1  0
 18 37  1  0
 19 20  2  0
M  END
>  <i_m_ct_stereo_status>  (151) 
1

>  <s_m_source_file>  (151) 
/var/tmp/pbs.5076255.sched01/tmpguie9axe/40t6mruo9t.sdf

>  <i_m_source_file_index>  (151) 
19

>  <i_lp_mmshare_version>  (151) 
48012

>  <i_f3d_flags>  (151) 
0

>  <s_epik_input>  (151) 
W0NIM11jMW5ubm4xW0NIMl1jMltjSF1uKG5uMilbQ0BIXShbQ0gyXVtDSDJdW0NASF0zNClbQ0BIXShbQ0gyXTQpW0NIXT1bQ0hdMw==

>  <s_epik_cmdline>  (151) 
J2VwaWtfcHl0aG9uJywgJy1waHQnLCAnMi4wJywgJy1waCcsICc3LjAnLCAnLXRuJywgJzgnLCAnLW1hJywgJzIwMCcsICctaW1hZScsICc8aW5maWxlLm1hZT4nLCAnLW9tYWUnLCAnPG91dGZpbGUubWFlPic=

>  <r_lp_tautomer_probability>  (151) 
1

>  <r_epik_Ionization_Penalty>  (151) 
3.88822e-07

>  <r_epik_Ionization_Penalty_Charging>  (151) 
0

>  <r_epik_Ionization_Penalty_Neutral>  (151) 
3.88822e-07

>  <r_epik_State_Penalty>  (151) 
-0

>  <r_epik_Charging_Adjusted_Penalty>  (151) 
0

>  <i_epik_Tot_Q>  (151) 
0

>  <i_epik_Tot_abs_Q>  (151) 
0

>  <s_lp_Force_Field>  (151) 
OPLS3e

>  <r_lp_Energy>  (151) 
15.4487

>  <b_lp_Chiralities_Consistent>  (151) 
1

>  <s_lp_Variant>  (151) 
38:0-1

>  <s_i_glide_gridfile>  (151) 
pfpi4k_grid

>  <i_i_glide_lignum>  (151) 
19

>  <i_i_glide_rotatable_bonds>  (151) 
3

>  <r_i_docking_score>  (151) 
-3.43553

>  <r_i_glide_ligand_efficiency>  (151) 
-0.171777

>  <r_i_glide_ligand_efficiency_sa>  (151) 
-0.466273

>  <r_i_glide_ligand_efficiency_ln>  (151) 
-0.8598

>  <r_i_glide_gscore>  (151) 
-3.43553

>  <r_i_glide_lipo>  (151) 
-0.0810566

>  <r_i_glide_hbond>  (151) 
0

>  <r_i_glide_metal>  (151) 
-0

>  <r_i_glide_rewards>  (151) 
-1.55918

>  <r_i_glide_evdw>  (151) 
-27.6597

>  <r_i_glide_ecoul>  (151) 
-4.58492

>  <r_i_glide_erotb>  (151) 
0.729549

>  <r_i_glide_esite>  (151) 
-0.454125

>  <r_i_glide_emodel>  (151) 
-37.8623

>  <r_i_glide_energy>  (151) 
-32.2446

>  <r_i_glide_einternal>  (151) 
3.21704

>  <r_i_glide_intrahb_reward>  (151) 
-0

>  <i_i_glide_confnum>  (151) 
2

>  <i_i_glide_posenum>  (151) 
18

>  <r_i_glide_eff_state_penalty>  (151) 
0

>  <ligand_id>  (151) 
38

>  <original_smiles>  (151) 
Cc1nnnn1Cc1cn(C2CCC3C=CC2C3)nn1

>  <smiles>  (151) 
[H]C1=C([H])C2([H])C([H])([H])C1([H])C([H])([H])C([H])([H])C2([H])n1nnc(C([H])([H])n2nnnc2C([H])([H])[H])c1[H]

$$$$
38:0:1
     RDKit          3D

 37 40  0  0  1  0  0  0  0  0999 V2000
    2.5385   -3.0574   -3.4577 C   0  0  0  0  0  0  0  0  0  0  0  0
    3.7854   -3.0563   -2.6465 C   0  0  0  0  0  0  0  0  0  0  0  0
    5.0066   -2.9420   -3.1481 N   0  0  0  0  0  0  0  0  0  0  0  0
    5.8260   -2.9880   -2.0418 N   0  0  0  0  0  0  0  0  0  0  0  0
    5.1311   -3.1043   -0.9500 N   0  0  0  0  0  0  0  0  0  0  0  0
    3.8275   -3.1896   -1.3157 N   0  0  0  0  0  0  0  0  0  0  0  0
    2.7809   -3.3649   -0.3256 C   0  0  0  0  0  0  0  0  0  0  0  0
    2.9076   -4.6702    0.4149 C   0  0  0  0  0  0  0  0  0  0  0  0
    3.9828   -5.2370    1.0417 C   0  0  0  0  0  0  0  0  0  0  0  0
    3.4935   -6.4229    1.5526 N   0  0  0  0  0  0  0  0  0  0  0  0
    4.2180   -7.4429    2.3068 C   0  0  2  0  0  0  0  0  0  0  0  0
    4.8578   -8.5233    1.3794 C   0  0  0  0  0  0  0  0  0  0  0  0
    5.3630   -9.7881    2.1367 C   0  0  0  0  0  0  0  0  0  0  0  0
    4.4316  -10.1975    3.3023 C   0  0  2  0  0  0  0  0  0  0  0  0
    3.0015  -10.3084    2.8353 C   0  0  0  0  0  0  0  0  0  0  0  0
    2.4023   -9.1209    2.9221 C   0  0  0  0  0  0  0  0  0  0  0  0
    3.3739   -8.0847    3.4503 C   0  0  1  0  0  0  0  0  0  0  0  0
    4.3203   -8.9965    4.2531 C   0  0  0  0  0  0  0  0  0  0  0  0
    2.1841   -6.5722    1.2400 N   0  0  0  0  0  0  0  0  0  0  0  0
    1.8202   -5.5334    0.5518 N   0  0  0  0  0  0  0  0  0  0  0  0
    2.7824   -2.9209   -4.5119 H   0  0  0  0  0  0  0  0  0  0  0  0
    1.8781   -2.2544   -3.1346 H   0  0  0  0  0  0  0  0  0  0  0  0
    2.0215   -4.0064   -3.3352 H   0  0  0  0  0  0  0  0  0  0  0  0
    2.8247   -2.5213    0.3636 H   0  0  0  0  0  0  0  0  0  0  0  0
    1.8083   -3.3020   -0.8156 H   0  0  0  0  0  0  0  0  0  0  0  0
    5.0049   -4.9107    1.1487 H   0  0  0  0  0  0  0  0  0  0  0  0
    5.0412   -6.9204    2.7930 H   0  0  0  0  0  0  0  0  0  0  0  0
    4.1362   -8.8332    0.6213 H   0  0  0  0  0  0  0  0  0  0  0  0
    5.6921   -8.0793    0.8374 H   0  0  0  0  0  0  0  0  0  0  0  0
    5.4697  -10.6149    1.4356 H   0  0  0  0  0  0  0  0  0  0  0  0
    6.3570   -9.5960    2.5383 H   0  0  0  0  0  0  0  0  0  0  0  0
    4.7573  -11.1033    3.8139 H   0  0  0  0  0  0  0  0  0  0  0  0
    2.5580  -11.2234    2.4771 H   0  0  0  0  0  0  0  0  0  0  0  0
    1.3847   -8.8995    2.6439 H   0  0  0  0  0  0  0  0  0  0  0  0
    2.8898   -7.3416    4.0856 H   0  0  0  0  0  0  0  0  0  0  0  0
    3.8270   -9.3051    5.1741 H   0  0  0  0  0  0  0  0  0  0  0  0
    5.2750   -8.5448    4.5274 H   0  0  0  0  0  0  0  0  0  0  0  0
  1  2  1  0
  1 21  1  0
  1 22  1  0
  1 23  1  0
  2  6  1  0
  2  3  2  0
  3  4  1  0
  4  5  2  0
  5  6  1  0
  6  7  1  0
  7  8  1  0
  7 24  1  0
  7 25  1  0
  8 20  1  0
  8  9  2  0
  9 10  1  0
  9 26  1  0
 10 11  1  0
 10 19  1  0
 11 17  1  0
 11 12  1  0
 11 27  1  1
 12 13  1  0
 12 28  1  0
 12 29  1  0
 13 14  1  0
 13 30  1  0
 13 31  1  0
 14 18  1  0
 14 15  1  0
 14 32  1  1
 15 16  2  0
 15 33  1  0
 16 17  1  0
 16 34  1  0
 17 18  1  0
 17 35  1  1
 18 36  1  0
 18 37  1  0
 19 20  2  0
M  END
>  <i_m_ct_stereo_status>  (152) 
1

>  <s_m_source_file>  (152) 
/var/tmp/pbs.5076255.sched01/tmpguie9axe/40t6mruo9t.sdf

>  <i_m_source_file_index>  (152) 
19

>  <i_lp_mmshare_version>  (152) 
48012

>  <i_f3d_flags>  (152) 
0

>  <s_epik_input>  (152) 
W0NIM11jMW5ubm4xW0NIMl1jMltjSF1uKG5uMilbQ0BIXShbQ0gyXVtDSDJdW0NASF0zNClbQ0BIXShbQ0gyXTQpW0NIXT1bQ0hdMw==

>  <s_epik_cmdline>  (152) 
J2VwaWtfcHl0aG9uJywgJy1waHQnLCAnMi4wJywgJy1waCcsICc3LjAnLCAnLXRuJywgJzgnLCAnLW1hJywgJzIwMCcsICctaW1hZScsICc8aW5maWxlLm1hZT4nLCAnLW9tYWUnLCAnPG91dGZpbGUubWFlPic=

>  <r_lp_tautomer_probability>  (152) 
1

>  <r_epik_Ionization_Penalty>  (152) 
3.88822e-07

>  <r_epik_Ionization_Penalty_Charging>  (152) 
0

>  <r_epik_Ionization_Penalty_Neutral>  (152) 
3.88822e-07

>  <r_epik_State_Penalty>  (152) 
-0

>  <r_epik_Charging_Adjusted_Penalty>  (152) 
0

>  <i_epik_Tot_Q>  (152) 
0

>  <i_epik_Tot_abs_Q>  (152) 
0

>  <s_lp_Force_Field>  (152) 
OPLS3e

>  <r_lp_Energy>  (152) 
15.4487

>  <b_lp_Chiralities_Consistent>  (152) 
1

>  <s_lp_Variant>  (152) 
38:0-1

>  <s_i_glide_gridfile>  (152) 
pfpi4k_grid

>  <i_i_glide_lignum>  (152) 
19

>  <i_i_glide_rotatable_bonds>  (152) 
3

>  <r_i_docking_score>  (152) 
-3.24052

>  <r_i_glide_ligand_efficiency>  (152) 
-0.162026

>  <r_i_glide_ligand_efficiency_sa>  (152) 
-0.439806

>  <r_i_glide_ligand_efficiency_ln>  (152) 
-0.810994

>  <r_i_glide_gscore>  (152) 
-3.24052

>  <r_i_glide_lipo>  (152) 
-0.238039

>  <r_i_glide_hbond>  (152) 
0

>  <r_i_glide_metal>  (152) 
-0

>  <r_i_glide_rewards>  (152) 
-1.62656

>  <r_i_glide_evdw>  (152) 
-24.5218

>  <r_i_glide_ecoul>  (152) 
-4.94264

>  <r_i_glide_erotb>  (152) 
0.729549

>  <r_i_glide_esite>  (152) 
-0.137985

>  <r_i_glide_emodel>  (152) 
-36.2052

>  <r_i_glide_energy>  (152) 
-29.4644

>  <r_i_glide_einternal>  (152) 
1.14421

>  <r_i_glide_intrahb_reward>  (152) 
-0

>  <i_i_glide_confnum>  (152) 
1

>  <i_i_glide_posenum>  (152) 
36

>  <r_i_glide_eff_state_penalty>  (152) 
0

>  <ligand_id>  (152) 
38

>  <original_smiles>  (152) 
Cc1nnnn1Cc1cn(C2CCC3C=CC2C3)nn1

>  <smiles>  (152) 
[H]C1=C([H])C2([H])C([H])([H])C1([H])C([H])([H])C([H])([H])C2([H])n1nnc(C([H])([H])n2nnnc2C([H])([H])[H])c1[H]

$$$$
38:0:2
     RDKit          3D

 37 40  0  0  1  0  0  0  0  0999 V2000
    0.7839   -0.3001    2.9813 C   0  0  0  0  0  0  0  0  0  0  0  0
   -0.1436   -0.7022    4.0809 C   0  0  0  0  0  0  0  0  0  0  0  0
   -1.2214   -0.0225    4.4366 N   0  0  0  0  0  0  0  0  0  0  0  0
   -1.7472   -0.7493    5.4772 N   0  0  0  0  0  0  0  0  0  0  0  0
   -1.0130   -1.7908    5.7352 N   0  0  0  0  0  0  0  0  0  0  0  0
   -0.0020   -1.8067    4.8317 N   0  0  0  0  0  0  0  0  0  0  0  0
    1.0307   -2.8406    4.8471 C   0  0  0  0  0  0  0  0  0  0  0  0
    0.5015   -4.2364    5.0692 C   0  0  0  0  0  0  0  0  0  0  0  0
    0.6427   -5.3277    4.2725 C   0  0  0  0  0  0  0  0  0  0  0  0
   -0.0603   -6.3290    4.9187 N   0  0  0  0  0  0  0  0  0  0  0  0
   -0.2529   -7.7302    4.5450 C   0  0  2  0  0  0  0  0  0  0  0  0
    0.8575   -8.6382    5.1590 C   0  0  0  0  0  0  0  0  0  0  0  0
    0.9422  -10.0562    4.5224 C   0  0  0  0  0  0  0  0  0  0  0  0
    0.6796  -10.0449    2.9983 C   0  0  2  0  0  0  0  0  0  0  0  0
    1.5614   -9.0319    2.3134 C   0  0  0  0  0  0  0  0  0  0  0  0
    0.9548   -7.8468    2.2961 C   0  0  0  0  0  0  0  0  0  0  0  0
   -0.3858   -7.9310    3.0021 C   0  0  1  0  0  0  0  0  0  0  0  0
   -0.7023   -9.4153    2.7580 C   0  0  0  0  0  0  0  0  0  0  0  0
   -0.5587   -5.8642    6.0905 N   0  0  0  0  0  0  0  0  0  0  0  0
   -0.2077   -4.6223    6.2037 N   0  0  0  0  0  0  0  0  0  0  0  0
    0.4216    0.6121    2.5005 H   0  0  0  0  0  0  0  0  0  0  0  0
    0.8441   -1.0843    2.2274 H   0  0  0  0  0  0  0  0  0  0  0  0
    1.7791   -0.1101    3.3822 H   0  0  0  0  0  0  0  0  0  0  0  0
    1.5667   -2.8060    3.8985 H   0  0  0  0  0  0  0  0  0  0  0  0
    1.7615   -2.5838    5.6105 H   0  0  0  0  0  0  0  0  0  0  0  0
    1.1691   -5.4420    3.3410 H   0  0  0  0  0  0  0  0  0  0  0  0
   -1.2014   -8.0497    4.9846 H   0  0  0  0  0  0  0  0  0  0  0  0
    1.8229   -8.1437    5.0447 H   0  0  0  0  0  0  0  0  0  0  0  0
    0.7067   -8.7364    6.2360 H   0  0  0  0  0  0  0  0  0  0  0  0
    1.9176  -10.4941    4.7334 H   0  0  0  0  0  0  0  0  0  0  0  0
    0.2120  -10.7088    4.9980 H   0  0  0  0  0  0  0  0  0  0  0  0
    0.7637  -11.0288    2.5406 H   0  0  0  0  0  0  0  0  0  0  0  0
    2.5220   -9.2613    1.8804 H   0  0  0  0  0  0  0  0  0  0  0  0
    1.3471   -6.9543    1.8382 H   0  0  0  0  0  0  0  0  0  0  0  0
   -1.1420   -7.2809    2.5617 H   0  0  0  0  0  0  0  0  0  0  0  0
   -1.0018   -9.5535    1.7196 H   0  0  0  0  0  0  0  0  0  0  0  0
   -1.5001   -9.8254    3.3722 H   0  0  0  0  0  0  0  0  0  0  0  0
  1  2  1  0
  1 21  1  0
  1 22  1  0
  1 23  1  0
  2  6  1  0
  2  3  2  0
  3  4  1  0
  4  5  2  0
  5  6  1  0
  6  7  1  0
  7  8  1  0
  7 24  1  0
  7 25  1  0
  8 20  1  0
  8  9  2  0
  9 10  1  0
  9 26  1  0
 10 11  1  0
 10 19  1  0
 11 17  1  0
 11 12  1  0
 11 27  1  1
 12 13  1  0
 12 28  1  0
 12 29  1  0
 13 14  1  0
 13 30  1  0
 13 31  1  0
 14 18  1  0
 14 15  1  0
 14 32  1  6
 15 16  2  0
 15 33  1  0
 16 17  1  0
 16 34  1  0
 17 18  1  0
 17 35  1  6
 18 36  1  0
 18 37  1  0
 19 20  2  0
M  END
>  <i_m_ct_stereo_status>  (153) 
1

>  <s_m_source_file>  (153) 
/var/tmp/pbs.5076255.sched01/tmpguie9axe/40t6mruo9t.sdf

>  <i_m_source_file_index>  (153) 
19

>  <i_lp_mmshare_version>  (153) 
48012

>  <i_f3d_flags>  (153) 
0

>  <s_epik_input>  (153) 
W0NIM11jMW5ubm4xW0NIMl1jMltjSF1uKG5uMilbQ0BIXShbQ0gyXVtDSDJdW0NASF0zNClbQ0BIXShbQ0gyXTQpW0NIXT1bQ0hdMw==

>  <s_epik_cmdline>  (153) 
J2VwaWtfcHl0aG9uJywgJy1waHQnLCAnMi4wJywgJy1waCcsICc3LjAnLCAnLXRuJywgJzgnLCAnLW1hJywgJzIwMCcsICctaW1hZScsICc8aW5maWxlLm1hZT4nLCAnLW9tYWUnLCAnPG91dGZpbGUubWFlPic=

>  <r_lp_tautomer_probability>  (153) 
1

>  <r_epik_Ionization_Penalty>  (153) 
3.88822e-07

>  <r_epik_Ionization_Penalty_Charging>  (153) 
0

>  <r_epik_Ionization_Penalty_Neutral>  (153) 
3.88822e-07

>  <r_epik_State_Penalty>  (153) 
-0

>  <r_epik_Charging_Adjusted_Penalty>  (153) 
0

>  <i_epik_Tot_Q>  (153) 
0

>  <i_epik_Tot_abs_Q>  (153) 
0

>  <s_lp_Force_Field>  (153) 
OPLS3e

>  <r_lp_Energy>  (153) 
15.4487

>  <b_lp_Chiralities_Consistent>  (153) 
1

>  <s_lp_Variant>  (153) 
38:0-1

>  <s_i_glide_gridfile>  (153) 
pfpi4k_grid

>  <i_i_glide_lignum>  (153) 
19

>  <i_i_glide_rotatable_bonds>  (153) 
3

>  <r_i_docking_score>  (153) 
-2.7599

>  <r_i_glide_ligand_efficiency>  (153) 
-0.137995

>  <r_i_glide_ligand_efficiency_sa>  (153) 
-0.374577

>  <r_i_glide_ligand_efficiency_ln>  (153) 
-0.690713

>  <r_i_glide_gscore>  (153) 
-2.7599

>  <r_i_glide_lipo>  (153) 
-0.118565

>  <r_i_glide_hbond>  (153) 
0

>  <r_i_glide_metal>  (153) 
-0

>  <r_i_glide_rewards>  (153) 
-1.55918

>  <r_i_glide_evdw>  (153) 
-22.3396

>  <r_i_glide_ecoul>  (153) 
-3.37782

>  <r_i_glide_erotb>  (153) 
0.729549

>  <r_i_glide_esite>  (153) 
-0.188061

>  <r_i_glide_emodel>  (153) 
-30.6498

>  <r_i_glide_energy>  (153) 
-25.7174

>  <r_i_glide_einternal>  (153) 
2.14496

>  <r_i_glide_intrahb_reward>  (153) 
-0

>  <i_i_glide_confnum>  (153) 
6

>  <i_i_glide_posenum>  (153) 
3

>  <r_i_glide_eff_state_penalty>  (153) 
0

>  <ligand_id>  (153) 
38

>  <original_smiles>  (153) 
Cc1nnnn1Cc1cn(C2CCC3C=CC2C3)nn1

>  <smiles>  (153) 
[H]C1=C([H])C2([H])C([H])([H])C1([H])C([H])([H])C([H])([H])C2([H])n1nnc(C([H])([H])n2nnnc2C([H])([H])[H])c1[H]

$$$$
39:0:0
     RDKit          3D

 34 37  0  0  1  0  0  0  0  0999 V2000
    3.3332   -0.1741   -3.8025 C   0  0  0  0  0  0  0  0  0  0  0  0
    3.5245   -1.5049   -3.1907 N   0  0  2  0  0  0  0  0  0  0  0  0
    2.6687   -2.5629   -3.7971 C   0  0  0  0  0  0  0  0  0  0  0  0
    2.2792   -3.3936   -2.6138 C   0  0  0  0  0  0  0  0  0  0  0  0
    2.6678   -2.8475   -1.4733 C   0  0  0  0  0  0  0  0  0  0  0  0
    2.4554   -3.3280   -0.0536 C   0  0  0  0  0  0  0  0  0  0  0  0
    3.8189   -3.4214    0.6171 C   0  0  0  0  0  0  0  0  0  0  0  0
    4.0996   -4.3823    1.3287 O   0  0  0  0  0  0  0  0  0  0  0  0
    4.7918   -2.2375    0.4310 C   0  0  1  0  0  0  0  0  0  0  0  0
    6.2777   -2.6643    0.3353 C   0  0  1  0  0  0  0  0  0  0  0  0
    6.5673   -3.7784   -0.6863 C   0  0  0  0  0  0  0  0  0  0  0  0
    6.2426   -3.0909   -2.0072 C   0  0  0  0  0  0  0  0  0  0  0  0
    5.9777   -1.6516   -1.5504 C   0  0  2  0  0  0  0  0  0  0  0  0
    6.8095   -1.5791   -0.4065 O   0  0  0  0  0  0  0  0  0  0  0  0
    4.6382   -1.3985   -0.8633 C   0  0  1  0  0  0  0  0  0  0  0  0
    3.3493   -1.5394   -1.7044 C   0  0  1  0  0  0  0  0  0  0  0  0
    2.3077    0.1725   -3.6646 H   0  0  0  0  0  0  0  0  0  0  0  0
    3.5321   -0.2200   -4.8736 H   0  0  0  0  0  0  0  0  0  0  0  0
    4.0135    0.5524   -3.3546 H   0  0  0  0  0  0  0  0  0  0  0  0
    1.7633   -2.1745   -4.2592 H   0  0  0  0  0  0  0  0  0  0  0  0
    3.2126   -3.1533   -4.5339 H   0  0  0  0  0  0  0  0  0  0  0  0
    1.7233   -4.3010   -2.7048 H   0  0  0  0  0  0  0  0  0  0  0  0
    1.8527   -2.6007    0.4896 H   0  0  0  0  0  0  0  0  0  0  0  0
    1.9405   -4.2889   -0.0271 H   0  0  0  0  0  0  0  0  0  0  0  0
    4.6653   -1.5792    1.2876 H   0  0  0  0  0  0  0  0  0  0  0  0
    6.7630   -2.8127    1.2997 H   0  0  0  0  0  0  0  0  0  0  0  0
    7.6292   -4.0316   -0.6491 H   0  0  0  0  0  0  0  0  0  0  0  0
    5.9999   -4.6952   -0.5269 H   0  0  0  0  0  0  0  0  0  0  0  0
    7.1069   -3.1298   -2.6722 H   0  0  0  0  0  0  0  0  0  0  0  0
    5.4009   -3.5490   -2.5257 H   0  0  0  0  0  0  0  0  0  0  0  0
    6.1824   -0.9120   -2.3128 H   0  0  0  0  0  0  0  0  0  0  0  0
    4.6576   -0.3545   -0.5536 H   0  0  0  0  0  0  0  0  0  0  0  0
    2.6386   -0.7679   -1.4122 H   0  0  0  0  0  0  0  0  0  0  0  0
    4.4736   -1.8053   -3.3586 H   0  0  0  0  0  0  0  0  0  0  0  0
  1  2  1  0
  1 17  1  0
  1 18  1  0
  1 19  1  0
  2 16  1  0
  2  3  1  0
  2 34  1  1
  3  4  1  0
  3 20  1  0
  3 21  1  0
  4  5  2  0
  4 22  1  0
  5 16  1  0
  5  6  1  0
  6  7  1  0
  6 23  1  0
  6 24  1  0
  7  8  2  0
  7  9  1  0
  9 15  1  0
  9 10  1  0
  9 25  1  1
 10 14  1  0
 10 11  1  0
 10 26  1  1
 11 12  1  0
 11 27  1  0
 11 28  1  0
 12 13  1  0
 12 29  1  0
 12 30  1  0
 13 14  1  0
 13 15  1  0
 13 31  1  6
 15 16  1  0
 15 32  1  1
 16 33  1  1
M  CHG  1   2   1
M  END
>  <i_m_ct_stereo_status>  (154) 
1

>  <s_m_source_file>  (154) 
/var/tmp/pbs.5076255.sched01/tmpguie9axe/40t6mruo9t.sdf

>  <i_m_source_file_index>  (154) 
20

>  <i_lp_mmshare_version>  (154) 
48012

>  <i_f3d_flags>  (154) 
0

>  <s_epik_input>  (154) 
W0NIXT0xW0NIMl1OKFtDSDNdKVtDQEBIXShDMTIpW0NASF0zW0NAQEhdKEMoPU8pW0NIMl0yKVtDQEhdNFtDSDJdW0NIMl1bQ0BASF0zTzQ=

>  <s_epik_cmdline>  (154) 
J2VwaWtfcHl0aG9uJywgJy1waHQnLCAnMi4wJywgJy1waCcsICc3LjAnLCAnLXRuJywgJzgnLCAnLW1hJywgJzIwMCcsICctaW1hZScsICc8aW5maWxlLm1hZT4nLCAnLW9tYWUnLCAnPG91dGZpbGUubWFlPic=

>  <r_epik_Ionization_Penalty>  (154) 
0.00988533

>  <r_epik_Ionization_Penalty_Charging>  (154) 
0.00988533

>  <r_epik_Ionization_Penalty_Neutral>  (154) 
2.54372e-10

>  <r_epik_State_Penalty>  (154) 
0.00753098

>  <r_epik_Charging_Adjusted_Penalty>  (154) 
0.0174163

>  <i_epik_Tot_Q>  (154) 
1

>  <i_epik_Tot_abs_Q>  (154) 
1

>  <s_lp_Force_Field>  (154) 
OPLS3e

>  <r_lp_Energy>  (154) 
35.4424

>  <b_lp_Chiralities_Consistent>  (154) 
1

>  <s_lp_Variant>  (154) 
39:0-1

>  <s_i_glide_gridfile>  (154) 
pfpi4k_grid

>  <i_i_glide_lignum>  (154) 
20

>  <i_i_glide_rotatable_bonds>  (154) 
0

>  <r_i_docking_score>  (154) 
-4.37606

>  <r_i_glide_ligand_efficiency>  (154) 
-0.273504

>  <r_i_glide_ligand_efficiency_sa>  (154) 
-0.689186

>  <r_i_glide_ligand_efficiency_ln>  (154) 
-1.15996

>  <r_i_glide_gscore>  (154) 
-4.37606

>  <r_i_glide_lipo>  (154) 
-0.882629

>  <r_i_glide_hbond>  (154) 
-0.131692

>  <r_i_glide_metal>  (154) 
-0

>  <r_i_glide_rewards>  (154) 
-1.91371

>  <r_i_glide_evdw>  (154) 
-11.9633

>  <r_i_glide_ecoul>  (154) 
-5.66575

>  <r_i_glide_erotb>  (154) 
0

>  <r_i_glide_esite>  (154) 
0

>  <r_i_glide_emodel>  (154) 
-23.7613

>  <r_i_glide_energy>  (154) 
-17.629

>  <r_i_glide_einternal>  (154) 
0

>  <r_i_glide_intrahb_reward>  (154) 
-0

>  <i_i_glide_confnum>  (154) 
1

>  <i_i_glide_posenum>  (154) 
26

>  <r_i_glide_eff_state_penalty>  (154) 
0

>  <ligand_id>  (154) 
39

>  <original_smiles>  (154) 
CN1CC=C2CC(=O)C3C4CCC(O4)C3C21

>  <smiles>  (154) 
[H]C1=C2C([H])([H])C(=O)C3([H])C4([H])OC([H])(C([H])([H])C4([H])[H])C3([H])C2([H])[N+]([H])(C([H])([H])[H])C1([H])[H]

$$$$
39:0:1
     RDKit          3D

 34 37  0  0  1  0  0  0  0  0999 V2000
    3.1530   -0.7158   -3.0632 C   0  0  0  0  0  0  0  0  0  0  0  0
    3.4517   -1.9459   -2.2923 N   0  0  2  0  0  0  0  0  0  0  0  0
    2.4290   -3.0245   -2.4500 C   0  0  0  0  0  0  0  0  0  0  0  0
    2.3745   -3.6249   -1.0751 C   0  0  0  0  0  0  0  0  0  0  0  0
    3.0511   -2.9032   -0.1952 C   0  0  0  0  0  0  0  0  0  0  0  0
    3.2504   -3.1331    1.2856 C   0  0  0  0  0  0  0  0  0  0  0  0
    4.7476   -3.2324    1.5520 C   0  0  0  0  0  0  0  0  0  0  0  0
    5.1891   -4.0846    2.3128 O   0  0  0  0  0  0  0  0  0  0  0  0
    5.6724   -2.1841    0.8939 C   0  0  1  0  0  0  0  0  0  0  0  0
    7.0568   -2.7431    0.4751 C   0  0  1  0  0  0  0  0  0  0  0  0
    7.0023   -4.0282   -0.3544 C   0  0  0  0  0  0  0  0  0  0  0  0
    6.3458   -3.5397   -1.6439 C   0  0  0  0  0  0  0  0  0  0  0  0
    6.2705   -2.0332   -1.4010 C   0  0  2  0  0  0  0  0  0  0  0  0
    7.3995   -1.8580   -0.5716 O   0  0  0  0  0  0  0  0  0  0  0  0
    5.1868   -1.5590   -0.4306 C   0  0  1  0  0  0  0  0  0  0  0  0
    3.6967   -1.7159   -0.8321 C   0  0  1  0  0  0  0  0  0  0  0  0
    2.2324   -0.2523   -2.7049 H   0  0  0  0  0  0  0  0  0  0  0  0
    3.0339   -0.9525   -4.1234 H   0  0  0  0  0  0  0  0  0  0  0  0
    3.9702    0.0029   -2.9676 H   0  0  0  0  0  0  0  0  0  0  0  0
    1.4420   -2.6398   -2.7047 H   0  0  0  0  0  0  0  0  0  0  0  0
    2.7219   -3.7573   -3.2028 H   0  0  0  0  0  0  0  0  0  0  0  0
    1.8169   -4.5256   -0.8660 H   0  0  0  0  0  0  0  0  0  0  0  0
    2.8587   -2.2807    1.8377 H   0  0  0  0  0  0  0  0  0  0  0  0
    2.7268   -4.0288    1.6284 H   0  0  0  0  0  0  0  0  0  0  0  0
    5.8261   -1.3951    1.6259 H   0  0  0  0  0  0  0  0  0  0  0  0
    7.7862   -2.7919    1.2758 H   0  0  0  0  0  0  0  0  0  0  0  0
    8.0262   -4.3440   -0.5516 H   0  0  0  0  0  0  0  0  0  0  0  0
    6.4777   -4.8663    0.1096 H   0  0  0  0  0  0  0  0  0  0  0  0
    6.9877   -3.7429   -2.5009 H   0  0  0  0  0  0  0  0  0  0  0  0
    5.3746   -4.0016   -1.8277 H   0  0  0  0  0  0  0  0  0  0  0  0
    6.2818   -1.4569   -2.3149 H   0  0  0  0  0  0  0  0  0  0  0  0
    5.3362   -0.4833   -0.3292 H   0  0  0  0  0  0  0  0  0  0  0  0
    3.1297   -0.8548   -0.4776 H   0  0  0  0  0  0  0  0  0  0  0  0
    4.3047   -2.3547   -2.6638 H   0  0  0  0  0  0  0  0  0  0  0  0
  1  2  1  0
  1 17  1  0
  1 18  1  0
  1 19  1  0
  2 16  1  0
  2  3  1  0
  2 34  1  6
  3  4  1  0
  3 20  1  0
  3 21  1  0
  4  5  2  0
  4 22  1  0
  5 16  1  0
  5  6  1  0
  6  7  1  0
  6 23  1  0
  6 24  1  0
  7  8  2  0
  7  9  1  0
  9 15  1  0
  9 10  1  0
  9 25  1  1
 10 14  1  0
 10 11  1  0
 10 26  1  1
 11 12  1  0
 11 27  1  0
 11 28  1  0
 12 13  1  0
 12 29  1  0
 12 30  1  0
 13 14  1  0
 13 15  1  0
 13 31  1  6
 15 16  1  0
 15 32  1  1
 16 33  1  1
M  CHG  1   2   1
M  END
>  <i_m_ct_stereo_status>  (155) 
1

>  <s_m_source_file>  (155) 
/var/tmp/pbs.5076255.sched01/tmpguie9axe/40t6mruo9t.sdf

>  <i_m_source_file_index>  (155) 
20

>  <i_lp_mmshare_version>  (155) 
48012

>  <i_f3d_flags>  (155) 
0

>  <s_epik_input>  (155) 
W0NIXT0xW0NIMl1OKFtDSDNdKVtDQEBIXShDMTIpW0NASF0zW0NAQEhdKEMoPU8pW0NIMl0yKVtDQEhdNFtDSDJdW0NIMl1bQ0BASF0zTzQ=

>  <s_epik_cmdline>  (155) 
J2VwaWtfcHl0aG9uJywgJy1waHQnLCAnMi4wJywgJy1waCcsICc3LjAnLCAnLXRuJywgJzgnLCAnLW1hJywgJzIwMCcsICctaW1hZScsICc8aW5maWxlLm1hZT4nLCAnLW9tYWUnLCAnPG91dGZpbGUubWFlPic=

>  <r_epik_Ionization_Penalty>  (155) 
0.00988533

>  <r_epik_Ionization_Penalty_Charging>  (155) 
0.00988533

>  <r_epik_Ionization_Penalty_Neutral>  (155) 
2.54372e-10

>  <r_epik_State_Penalty>  (155) 
0.00753098

>  <r_epik_Charging_Adjusted_Penalty>  (155) 
0.0174163

>  <i_epik_Tot_Q>  (155) 
1

>  <i_epik_Tot_abs_Q>  (155) 
1

>  <s_lp_Force_Field>  (155) 
OPLS3e

>  <r_lp_Energy>  (155) 
35.4424

>  <b_lp_Chiralities_Consistent>  (155) 
1

>  <s_lp_Variant>  (155) 
39:0-1

>  <s_i_glide_gridfile>  (155) 
pfpi4k_grid

>  <i_i_glide_lignum>  (155) 
20

>  <i_i_glide_rotatable_bonds>  (155) 
0

>  <r_i_docking_score>  (155) 
-4.16221

>  <r_i_glide_ligand_efficiency>  (155) 
-0.260138

>  <r_i_glide_ligand_efficiency_sa>  (155) 
-0.655506

>  <r_i_glide_ligand_efficiency_ln>  (155) 
-1.10328

>  <r_i_glide_gscore>  (155) 
-4.16221

>  <r_i_glide_lipo>  (155) 
-0.445865

>  <r_i_glide_hbond>  (155) 
-0.16

>  <r_i_glide_metal>  (155) 
-0

>  <r_i_glide_rewards>  (155) 
-1.94398

>  <r_i_glide_evdw>  (155) 
-13.7615

>  <r_i_glide_ecoul>  (155) 
-5.84759

>  <r_i_glide_erotb>  (155) 
0

>  <r_i_glide_esite>  (155) 
-0.0471502

>  <r_i_glide_emodel>  (155) 
-25.4468

>  <r_i_glide_energy>  (155) 
-19.6091

>  <r_i_glide_einternal>  (155) 
0

>  <r_i_glide_intrahb_reward>  (155) 
-0

>  <i_i_glide_confnum>  (155) 
1

>  <i_i_glide_posenum>  (155) 
1

>  <r_i_glide_eff_state_penalty>  (155) 
0

>  <ligand_id>  (155) 
39

>  <original_smiles>  (155) 
CN1CC=C2CC(=O)C3C4CCC(O4)C3C21

>  <smiles>  (155) 
[H]C1=C2C([H])([H])C(=O)C3([H])C4([H])OC([H])(C([H])([H])C4([H])[H])C3([H])C2([H])[N+]([H])(C([H])([H])[H])C1([H])[H]

$$$$
39:0:2
     RDKit          3D

 34 37  0  0  1  0  0  0  0  0999 V2000
    2.9786    0.1382   -3.6669 C   0  0  0  0  0  0  0  0  0  0  0  0
    3.3642   -1.2971   -3.3991 N   0  0  2  0  0  0  0  0  0  0  0  0
    2.5540   -2.2554   -4.1901 C   0  0  0  0  0  0  0  0  0  0  0  0
    2.3394   -3.3691   -3.2412 C   0  0  0  0  0  0  0  0  0  0  0  0
    2.7110   -3.0640   -1.9941 C   0  0  0  0  0  0  0  0  0  0  0  0
    2.6446   -3.8949   -0.7526 C   0  0  0  0  0  0  0  0  0  0  0  0
    4.0625   -3.9986   -0.1880 C   0  0  0  0  0  0  0  0  0  0  0  0
    4.4943   -5.0391    0.2435 O   0  0  0  0  0  0  0  0  0  0  0  0
    4.8802   -2.6902   -0.0850 C   0  0  1  0  0  0  0  0  0  0  0  0
    6.3887   -2.8718   -0.3184 C   0  0  1  0  0  0  0  0  0  0  0  0
    6.6575   -3.6398   -1.5957 C   0  0  0  0  0  0  0  0  0  0  0  0
    6.1597   -2.7836   -2.7114 C   0  0  0  0  0  0  0  0  0  0  0  0
    5.8571   -1.5057   -1.8820 C   0  0  2  0  0  0  0  0  0  0  0  0
    6.7338   -1.5875   -0.7684 O   0  0  0  0  0  0  0  0  0  0  0  0
    4.5814   -1.6023   -1.1213 C   0  0  1  0  0  0  0  0  0  0  0  0
    3.2821   -1.6757   -1.9534 C   0  0  1  0  0  0  0  0  0  0  0  0
    1.9789    0.4134   -3.3735 H   0  0  0  0  0  0  0  0  0  0  0  0
    3.0618    0.3775   -4.7152 H   0  0  0  0  0  0  0  0  0  0  0  0
    3.6659    0.7698   -3.1422 H   0  0  0  0  0  0  0  0  0  0  0  0
    1.5621   -1.8974   -4.4659 H   0  0  0  0  0  0  0  0  0  0  0  0
    3.1081   -2.5746   -5.0697 H   0  0  0  0  0  0  0  0  0  0  0  0
    1.8911   -4.2839   -3.5545 H   0  0  0  0  0  0  0  0  0  0  0  0
    2.0261   -3.3990   -0.0084 H   0  0  0  0  0  0  0  0  0  0  0  0
    2.2350   -4.8991   -0.9215 H   0  0  0  0  0  0  0  0  0  0  0  0
    4.7615   -2.2787    0.9072 H   0  0  0  0  0  0  0  0  0  0  0  0
    6.9896   -3.2187    0.5183 H   0  0  0  0  0  0  0  0  0  0  0  0
    7.7124   -3.8411   -1.7339 H   0  0  0  0  0  0  0  0  0  0  0  0
    6.1482   -4.5810   -1.6132 H   0  0  0  0  0  0  0  0  0  0  0  0
    7.0187   -2.7196   -3.3619 H   0  0  0  0  0  0  0  0  0  0  0  0
    5.3081   -3.1928   -3.2813 H   0  0  0  0  0  0  0  0  0  0  0  0
    5.7937   -0.5286   -2.3665 H   0  0  0  0  0  0  0  0  0  0  0  0
    4.4779   -0.6580   -0.5801 H   0  0  0  0  0  0  0  0  0  0  0  0
    2.6041   -0.9985   -1.4487 H   0  0  0  0  0  0  0  0  0  0  0  0
    4.3044   -1.3930   -3.6984 H   0  0  0  0  0  0  0  0  0  0  0  0
  1  2  1  0
  1 17  1  0
  1 18  1  0
  1 19  1  0
  2 16  1  0
  2  3  1  0
  2 34  1  6
  3  4  1  0
  3 20  1  0
  3 21  1  0
  4  5  2  0
  4 22  1  0
  5 16  1  0
  5  6  1  0
  6  7  1  0
  6 23  1  0
  6 24  1  0
  7  8  2  0
  7  9  1  0
  9 15  1  0
  9 10  1  0
  9 25  1  1
 10 14  1  0
 10 11  1  0
 10 26  1  1
 11 12  1  0
 11 27  1  0
 11 28  1  0
 12 13  1  0
 12 29  1  0
 12 30  1  0
 13 14  1  0
 13 15  1  0
 13 31  1  6
 15 16  1  0
 15 32  1  1
 16 33  1  1
M  CHG  1   2   1
M  END
>  <i_m_ct_stereo_status>  (156) 
1

>  <s_m_source_file>  (156) 
/var/tmp/pbs.5076255.sched01/tmpguie9axe/40t6mruo9t.sdf

>  <i_m_source_file_index>  (156) 
20

>  <i_lp_mmshare_version>  (156) 
48012

>  <i_f3d_flags>  (156) 
0

>  <s_epik_input>  (156) 
W0NIXT0xW0NIMl1OKFtDSDNdKVtDQEBIXShDMTIpW0NASF0zW0NAQEhdKEMoPU8pW0NIMl0yKVtDQEhdNFtDSDJdW0NIMl1bQ0BASF0zTzQ=

>  <s_epik_cmdline>  (156) 
J2VwaWtfcHl0aG9uJywgJy1waHQnLCAnMi4wJywgJy1waCcsICc3LjAnLCAnLXRuJywgJzgnLCAnLW1hJywgJzIwMCcsICctaW1hZScsICc8aW5maWxlLm1hZT4nLCAnLW9tYWUnLCAnPG91dGZpbGUubWFlPic=

>  <r_epik_Ionization_Penalty>  (156) 
0.00988533

>  <r_epik_Ionization_Penalty_Charging>  (156) 
0.00988533

>  <r_epik_Ionization_Penalty_Neutral>  (156) 
2.54372e-10

>  <r_epik_State_Penalty>  (156) 
0.00753098

>  <r_epik_Charging_Adjusted_Penalty>  (156) 
0.0174163

>  <i_epik_Tot_Q>  (156) 
1

>  <i_epik_Tot_abs_Q>  (156) 
1

>  <s_lp_Force_Field>  (156) 
OPLS3e

>  <r_lp_Energy>  (156) 
35.4424

>  <b_lp_Chiralities_Consistent>  (156) 
1

>  <s_lp_Variant>  (156) 
39:0-1

>  <s_i_glide_gridfile>  (156) 
pfpi4k_grid

>  <i_i_glide_lignum>  (156) 
20

>  <i_i_glide_rotatable_bonds>  (156) 
0

>  <r_i_docking_score>  (156) 
-3.37683

>  <r_i_glide_ligand_efficiency>  (156) 
-0.211052

>  <r_i_glide_ligand_efficiency_sa>  (156) 
-0.531817

>  <r_i_glide_ligand_efficiency_ln>  (156) 
-0.895096

>  <r_i_glide_gscore>  (156) 
-3.37683

>  <r_i_glide_lipo>  (156) 
-0.503585

>  <r_i_glide_hbond>  (156) 
-0.146812

>  <r_i_glide_metal>  (156) 
-0

>  <r_i_glide_rewards>  (156) 
-1.90713

>  <r_i_glide_evdw>  (156) 
4.88248

>  <r_i_glide_ecoul>  (156) 
-7.04975

>  <r_i_glide_erotb>  (156) 
0

>  <r_i_glide_esite>  (156) 
-0.00596183

>  <r_i_glide_emodel>  (156) 
-6.24201

>  <r_i_glide_energy>  (156) 
-2.16727

>  <r_i_glide_einternal>  (156) 
0

>  <r_i_glide_intrahb_reward>  (156) 
-0

>  <i_i_glide_confnum>  (156) 
2

>  <i_i_glide_posenum>  (156) 
25

>  <r_i_glide_eff_state_penalty>  (156) 
0

>  <ligand_id>  (156) 
39

>  <original_smiles>  (156) 
CN1CC=C2CC(=O)C3C4CCC(O4)C3C21

>  <smiles>  (156) 
[H]C1=C2C([H])([H])C(=O)C3([H])C4([H])OC([H])(C([H])([H])C4([H])[H])C3([H])C2([H])[N+]([H])(C([H])([H])[H])C1([H])[H]

$$$$
39:1:0
     RDKit          3D

 33 36  0  0  1  0  0  0  0  0999 V2000
    4.0308    0.0509   -3.5027 C   0  0  0  0  0  0  0  0  0  0  0  0
    4.0432   -1.3660   -3.1845 N   0  0  0  0  0  0  0  0  0  0  0  0
    3.3019   -2.1593   -4.1671 C   0  0  0  0  0  0  0  0  0  0  0  0
    2.6688   -3.2542   -3.3699 C   0  0  0  0  0  0  0  0  0  0  0  0
    2.7671   -2.9723   -2.0813 C   0  0  0  0  0  0  0  0  0  0  0  0
    2.2220   -3.7207   -0.8922 C   0  0  0  0  0  0  0  0  0  0  0  0
    3.3236   -3.9143    0.1469 C   0  0  0  0  0  0  0  0  0  0  0  0
    3.3750   -4.9502    0.8059 O   0  0  0  0  0  0  0  0  0  0  0  0
    4.2848   -2.7391    0.4314 C   0  0  1  0  0  0  0  0  0  0  0  0
    5.7479   -3.1757    0.7077 C   0  0  1  0  0  0  0  0  0  0  0  0
    6.3301   -4.1499   -0.3280 C   0  0  0  0  0  0  0  0  0  0  0  0
    6.3870   -3.2732   -1.5786 C   0  0  0  0  0  0  0  0  0  0  0  0
    5.9779   -1.9012   -1.0247 C   0  0  2  0  0  0  0  0  0  0  0  0
    6.4629   -2.0162    0.3022 O   0  0  0  0  0  0  0  0  0  0  0  0
    4.4923   -1.7157   -0.7071 C   0  0  1  0  0  0  0  0  0  0  0  0
    3.4675   -1.6722   -1.8665 C   0  0  1  0  0  0  0  0  0  0  0  0
    4.4672    0.2271   -4.4885 H   0  0  0  0  0  0  0  0  0  0  0  0
    4.6122    0.5882   -2.7557 H   0  0  0  0  0  0  0  0  0  0  0  0
    3.0139    0.4457   -3.5139 H   0  0  0  0  0  0  0  0  0  0  0  0
    2.5280   -1.5726   -4.6689 H   0  0  0  0  0  0  0  0  0  0  0  0
    3.9885   -2.5760   -4.8916 H   0  0  0  0  0  0  0  0  0  0  0  0
    2.1751   -4.1063   -3.8086 H   0  0  0  0  0  0  0  0  0  0  0  0
    1.4387   -3.1117   -0.4512 H   0  0  0  0  0  0  0  0  0  0  0  0
    1.7884   -4.6764   -1.1859 H   0  0  0  0  0  0  0  0  0  0  0  0
    3.9011   -2.2093    1.3019 H   0  0  0  0  0  0  0  0  0  0  0  0
    5.9340   -3.4694    1.7396 H   0  0  0  0  0  0  0  0  0  0  0  0
    7.3386   -4.4428   -0.0264 H   0  0  0  0  0  0  0  0  0  0  0  0
    5.7520   -5.0643   -0.4668 H   0  0  0  0  0  0  0  0  0  0  0  0
    7.4058   -3.2474   -1.9708 H   0  0  0  0  0  0  0  0  0  0  0  0
    5.7258   -3.6183   -2.3727 H   0  0  0  0  0  0  0  0  0  0  0  0
    6.3668   -1.0613   -1.5821 H   0  0  0  0  0  0  0  0  0  0  0  0
    4.4227   -0.7278   -0.2489 H   0  0  0  0  0  0  0  0  0  0  0  0
    2.6766   -0.9617   -1.6334 H   0  0  0  0  0  0  0  0  0  0  0  0
  1  2  1  0
  1 17  1  0
  1 18  1  0
  1 19  1  0
  2 16  1  0
  2  3  1  0
  3  4  1  0
  3 20  1  0
  3 21  1  0
  4  5  2  0
  4 22  1  0
  5 16  1  0
  5  6  1  0
  6  7  1  0
  6 23  1  0
  6 24  1  0
  7  8  2  0
  7  9  1  0
  9 15  1  0
  9 10  1  0
  9 25  1  1
 10 14  1  0
 10 11  1  0
 10 26  1  1
 11 12  1  0
 11 27  1  0
 11 28  1  0
 12 13  1  0
 12 29  1  0
 12 30  1  0
 13 14  1  0
 13 15  1  0
 13 31  1  6
 15 16  1  0
 15 32  1  1
 16 33  1  1
M  END
>  <i_m_ct_stereo_status>  (157) 
1

>  <s_m_source_file>  (157) 
/var/tmp/pbs.5076255.sched01/tmpguie9axe/40t6mruo9t.sdf

>  <i_m_source_file_index>  (157) 
21

>  <i_lp_mmshare_version>  (157) 
48012

>  <i_f3d_flags>  (157) 
0

>  <s_epik_input>  (157) 
W0NIXT0xW0NIMl1OKFtDSDNdKVtDQEBIXShDMTIpW0NASF0zW0NAQEhdKEMoPU8pW0NIMl0yKVtDQEhdNFtDSDJdW0NIMl1bQ0BASF0zTzQ=

>  <s_epik_cmdline>  (157) 
J2VwaWtfcHl0aG9uJywgJy1waHQnLCAnMi4wJywgJy1waCcsICc3LjAnLCAnLXRuJywgJzgnLCAnLW1hJywgJzIwMCcsICctaW1hZScsICc8aW5maWxlLm1hZT4nLCAnLW9tYWUnLCAnPG91dGZpbGUubWFlPic=

>  <r_epik_Ionization_Penalty>  (157) 
2.43014

>  <r_epik_Ionization_Penalty_Charging>  (157) 
0

>  <r_epik_Ionization_Penalty_Neutral>  (157) 
2.43014

>  <r_epik_State_Penalty>  (157) 
2.59014

>  <r_epik_Charging_Adjusted_Penalty>  (157) 
2.59014

>  <i_epik_Tot_Q>  (157) 
0

>  <i_epik_Tot_abs_Q>  (157) 
0

>  <s_lp_Force_Field>  (157) 
OPLS3e

>  <r_lp_Energy>  (157) 
31.8565

>  <b_lp_Chiralities_Consistent>  (157) 
1

>  <s_lp_Variant>  (157) 
39:0-2

>  <s_i_glide_gridfile>  (157) 
pfpi4k_grid

>  <i_i_glide_lignum>  (157) 
21

>  <i_i_glide_rotatable_bonds>  (157) 
0

>  <r_i_docking_score>  (157) 
-3.56192

>  <r_i_glide_ligand_efficiency>  (157) 
-0.22262

>  <r_i_glide_ligand_efficiency_sa>  (157) 
-0.560968

>  <r_i_glide_ligand_efficiency_ln>  (157) 
-0.944159

>  <r_i_glide_gscore>  (157) 
-3.56192

>  <r_i_glide_lipo>  (157) 
-0.488477

>  <r_i_glide_hbond>  (157) 
0

>  <r_i_glide_metal>  (157) 
-0

>  <r_i_glide_rewards>  (157) 
-1.914

>  <r_i_glide_evdw>  (157) 
-18.3858

>  <r_i_glide_ecoul>  (157) 
-1.53635

>  <r_i_glide_erotb>  (157) 
0

>  <r_i_glide_esite>  (157) 
-0.00970383

>  <r_i_glide_emodel>  (157) 
-24.0461

>  <r_i_glide_energy>  (157) 
-19.9221

>  <r_i_glide_einternal>  (157) 
0

>  <r_i_glide_intrahb_reward>  (157) 
-0

>  <i_i_glide_confnum>  (157) 
2

>  <i_i_glide_posenum>  (157) 
36

>  <r_i_glide_eff_state_penalty>  (157) 
0

>  <ligand_id>  (157) 
39

>  <original_smiles>  (157) 
CN1CC=C2CC(=O)C3C4CCC(O4)C3C21

>  <smiles>  (157) 
[H]C1=C2C([H])([H])C(=O)C3([H])C4([H])OC([H])(C([H])([H])C4([H])[H])C3([H])C2([H])N(C([H])([H])[H])C1([H])[H]

$$$$
39:1:1
     RDKit          3D

 33 36  0  0  1  0  0  0  0  0999 V2000
    1.8907   -3.6127   -2.0218 C   0  0  0  0  0  0  0  0  0  0  0  0
    3.0189   -2.8011   -1.6026 N   0  0  0  0  0  0  0  0  0  0  0  0
    3.1344   -1.5580   -2.3800 C   0  0  0  0  0  0  0  0  0  0  0  0
    4.6133   -1.3295   -2.4555 C   0  0  0  0  0  0  0  0  0  0  0  0
    5.2616   -2.4239   -2.0662 C   0  0  0  0  0  0  0  0  0  0  0  0
    6.7431   -2.7161   -2.0273 C   0  0  0  0  0  0  0  0  0  0  0  0
    7.1265   -3.2052   -0.6348 C   0  0  0  0  0  0  0  0  0  0  0  0
    8.1898   -2.8606   -0.1251 O   0  0  0  0  0  0  0  0  0  0  0  0
    6.2006   -4.2265    0.0617 C   0  0  1  0  0  0  0  0  0  0  0  0
    6.1054   -4.0339    1.5940 C   0  0  1  0  0  0  0  0  0  0  0  0
    5.8088   -2.5925    2.0413 C   0  0  0  0  0  0  0  0  0  0  0  0
    4.3909   -2.3941    1.5093 C   0  0  0  0  0  0  0  0  0  0  0  0
    4.0377   -3.7990    0.9934 C   0  0  2  0  0  0  0  0  0  0  0  0
    4.8276   -4.5896    1.8644 O   0  0  0  0  0  0  0  0  0  0  0  0
    4.7049   -4.2046   -0.3334 C   0  0  1  0  0  0  0  0  0  0  0  0
    4.3090   -3.4987   -1.6562 C   0  0  1  0  0  0  0  0  0  0  0  0
    0.9635   -3.0508   -1.9406 H   0  0  0  0  0  0  0  0  0  0  0  0
    1.8129   -4.4990   -1.3911 H   0  0  0  0  0  0  0  0  0  0  0  0
    2.0144   -3.9250   -3.0609 H   0  0  0  0  0  0  0  0  0  0  0  0
    2.7439   -1.6737   -3.3939 H   0  0  0  0  0  0  0  0  0  0  0  0
    2.6194   -0.7207   -1.9026 H   0  0  0  0  0  0  0  0  0  0  0  0
    5.0232   -0.4136   -2.8445 H   0  0  0  0  0  0  0  0  0  0  0  0
    6.9700   -3.4971   -2.7428 H   0  0  0  0  0  0  0  0  0  0  0  0
    7.3506   -1.8555   -2.3083 H   0  0  0  0  0  0  0  0  0  0  0  0
    6.5949   -5.2176   -0.1367 H   0  0  0  0  0  0  0  0  0  0  0  0
    6.9156   -4.5176    2.1414 H   0  0  0  0  0  0  0  0  0  0  0  0
    5.8080   -2.5442    3.1321 H   0  0  0  0  0  0  0  0  0  0  0  0
    6.5193   -1.8451    1.6851 H   0  0  0  0  0  0  0  0  0  0  0  0
    3.7275   -2.1060    2.3250 H   0  0  0  0  0  0  0  0  0  0  0  0
    4.3287   -1.6334    0.7321 H   0  0  0  0  0  0  0  0  0  0  0  0
    2.9757   -4.0331    1.0372 H   0  0  0  0  0  0  0  0  0  0  0  0
    4.4175   -5.2453   -0.4880 H   0  0  0  0  0  0  0  0  0  0  0  0
    4.3353   -4.2173   -2.4784 H   0  0  0  0  0  0  0  0  0  0  0  0
  1  2  1  0
  1 17  1  0
  1 18  1  0
  1 19  1  0
  2 16  1  0
  2  3  1  0
  3  4  1  0
  3 20  1  0
  3 21  1  0
  4  5  2  0
  4 22  1  0
  5 16  1  0
  5  6  1  0
  6  7  1  0
  6 23  1  0
  6 24  1  0
  7  8  2  0
  7  9  1  0
  9 15  1  0
  9 10  1  0
  9 25  1  1
 10 14  1  0
 10 11  1  0
 10 26  1  1
 11 12  1  0
 11 27  1  0
 11 28  1  0
 12 13  1  0
 12 29  1  0
 12 30  1  0
 13 14  1  0
 13 15  1  0
 13 31  1  6
 15 16  1  0
 15 32  1  6
 16 33  1  6
M  END
>  <i_m_ct_stereo_status>  (158) 
1

>  <s_m_source_file>  (158) 
/var/tmp/pbs.5076255.sched01/tmpguie9axe/40t6mruo9t.sdf

>  <i_m_source_file_index>  (158) 
21

>  <i_lp_mmshare_version>  (158) 
48012

>  <i_f3d_flags>  (158) 
0

>  <s_epik_input>  (158) 
W0NIXT0xW0NIMl1OKFtDSDNdKVtDQEBIXShDMTIpW0NASF0zW0NAQEhdKEMoPU8pW0NIMl0yKVtDQEhdNFtDSDJdW0NIMl1bQ0BASF0zTzQ=

>  <s_epik_cmdline>  (158) 
J2VwaWtfcHl0aG9uJywgJy1waHQnLCAnMi4wJywgJy1waCcsICc3LjAnLCAnLXRuJywgJzgnLCAnLW1hJywgJzIwMCcsICctaW1hZScsICc8aW5maWxlLm1hZT4nLCAnLW9tYWUnLCAnPG91dGZpbGUubWFlPic=

>  <r_epik_Ionization_Penalty>  (158) 
2.43014

>  <r_epik_Ionization_Penalty_Charging>  (158) 
0

>  <r_epik_Ionization_Penalty_Neutral>  (158) 
2.43014

>  <r_epik_State_Penalty>  (158) 
2.59014

>  <r_epik_Charging_Adjusted_Penalty>  (158) 
2.59014

>  <i_epik_Tot_Q>  (158) 
0

>  <i_epik_Tot_abs_Q>  (158) 
0

>  <s_lp_Force_Field>  (158) 
OPLS3e

>  <r_lp_Energy>  (158) 
31.8565

>  <b_lp_Chiralities_Consistent>  (158) 
1

>  <s_lp_Variant>  (158) 
39:0-2

>  <s_i_glide_gridfile>  (158) 
pfpi4k_grid

>  <i_i_glide_lignum>  (158) 
21

>  <i_i_glide_rotatable_bonds>  (158) 
0

>  <r_i_docking_score>  (158) 
-3.37034

>  <r_i_glide_ligand_efficiency>  (158) 
-0.210647

>  <r_i_glide_ligand_efficiency_sa>  (158) 
-0.530796

>  <r_i_glide_ligand_efficiency_ln>  (158) 
-0.893377

>  <r_i_glide_gscore>  (158) 
-3.37034

>  <r_i_glide_lipo>  (158) 
-0.31842

>  <r_i_glide_hbond>  (158) 
0

>  <r_i_glide_metal>  (158) 
-0

>  <r_i_glide_rewards>  (158) 
-2.08009

>  <r_i_glide_evdw>  (158) 
-18.6162

>  <r_i_glide_ecoul>  (158) 
-0.273451

>  <r_i_glide_erotb>  (158) 
0

>  <r_i_glide_esite>  (158) 
0

>  <r_i_glide_emodel>  (158) 
-22.8018

>  <r_i_glide_energy>  (158) 
-18.8897

>  <r_i_glide_einternal>  (158) 
0

>  <r_i_glide_intrahb_reward>  (158) 
-0

>  <i_i_glide_confnum>  (158) 
1

>  <i_i_glide_posenum>  (158) 
8

>  <r_i_glide_eff_state_penalty>  (158) 
0

>  <ligand_id>  (158) 
39

>  <original_smiles>  (158) 
CN1CC=C2CC(=O)C3C4CCC(O4)C3C21

>  <smiles>  (158) 
[H]C1=C2C([H])([H])C(=O)C3([H])C4([H])OC([H])(C([H])([H])C4([H])[H])C3([H])C2([H])N(C([H])([H])[H])C1([H])[H]

$$$$
39:1:2
     RDKit          3D

 33 36  0  0  1  0  0  0  0  0999 V2000
    2.2011   -3.2883   -3.4322 C   0  0  0  0  0  0  0  0  0  0  0  0
    2.9555   -2.5229   -2.4625 N   0  0  0  0  0  0  0  0  0  0  0  0
    3.3195   -1.1800   -2.9329 C   0  0  0  0  0  0  0  0  0  0  0  0
    4.6533   -0.9381   -2.2937 C   0  0  0  0  0  0  0  0  0  0  0  0
    5.1258   -2.0748   -1.7937 C   0  0  0  0  0  0  0  0  0  0  0  0
    6.4453   -2.3599   -1.1218 C   0  0  0  0  0  0  0  0  0  0  0  0
    6.1993   -3.0417    0.2181 C   0  0  0  0  0  0  0  0  0  0  0  0
    6.9055   -2.7687    1.1815 O   0  0  0  0  0  0  0  0  0  0  0  0
    5.1240   -4.1375    0.3085 C   0  0  1  0  0  0  0  0  0  0  0  0
    4.3391   -4.1458    1.6453 C   0  0  1  0  0  0  0  0  0  0  0  0
    3.7837   -2.7769    2.0682 C   0  0  0  0  0  0  0  0  0  0  0  0
    2.7459   -2.5160    0.9782 C   0  0  0  0  0  0  0  0  0  0  0  0
    2.7547   -3.8390    0.1978 C   0  0  2  0  0  0  0  0  0  0  0  0
    3.1117   -4.7344    1.2390 O   0  0  0  0  0  0  0  0  0  0  0  0
    3.9731   -4.0513   -0.7110 C   0  0  1  0  0  0  0  0  0  0  0  0
    4.1685   -3.1992   -1.9908 C   0  0  1  0  0  0  0  0  0  0  0  0
    1.3081   -2.7373   -3.7266 H   0  0  0  0  0  0  0  0  0  0  0  0
    1.8863   -4.2314   -2.9894 H   0  0  0  0  0  0  0  0  0  0  0  0
    2.7921   -3.4883   -4.3250 H   0  0  0  0  0  0  0  0  0  0  0  0
    3.4366   -1.1512   -4.0193 H   0  0  0  0  0  0  0  0  0  0  0  0
    2.5845   -0.4289   -2.6369 H   0  0  0  0  0  0  0  0  0  0  0  0
    5.1534    0.0159   -2.3150 H   0  0  0  0  0  0  0  0  0  0  0  0
    7.0425   -3.0134   -1.7532 H   0  0  0  0  0  0  0  0  0  0  0  0
    7.0128   -1.4513   -0.9420 H   0  0  0  0  0  0  0  0  0  0  0  0
    5.6338   -5.0914    0.1865 H   0  0  0  0  0  0  0  0  0  0  0  0
    4.8439   -4.6862    2.4447 H   0  0  0  0  0  0  0  0  0  0  0  0
    3.2905   -2.8728    3.0375 H   0  0  0  0  0  0  0  0  0  0  0  0
    4.5304   -1.9875    2.1612 H   0  0  0  0  0  0  0  0  0  0  0  0
    1.7736   -2.3324    1.4358 H   0  0  0  0  0  0  0  0  0  0  0  0
    2.9919   -1.6599    0.3499 H   0  0  0  0  0  0  0  0  0  0  0  0
    1.8161   -4.0842   -0.2841 H   0  0  0  0  0  0  0  0  0  0  0  0
    3.8769   -5.0575   -1.0935 H   0  0  0  0  0  0  0  0  0  0  0  0
    4.6086   -3.8132   -2.7777 H   0  0  0  0  0  0  0  0  0  0  0  0
  1  2  1  0
  1 17  1  0
  1 18  1  0
  1 19  1  0
  2 16  1  0
  2  3  1  0
  3  4  1  0
  3 20  1  0
  3 21  1  0
  4  5  2  0
  4 22  1  0
  5 16  1  0
  5  6  1  0
  6  7  1  0
  6 23  1  0
  6 24  1  0
  7  8  2  0
  7  9  1  0
  9 15  1  0
  9 10  1  0
  9 25  1  6
 10 14  1  0
 10 11  1  0
 10 26  1  1
 11 12  1  0
 11 27  1  0
 11 28  1  0
 12 13  1  0
 12 29  1  0
 12 30  1  0
 13 14  1  0
 13 15  1  0
 13 31  1  6
 15 16  1  0
 15 32  1  6
 16 33  1  6
M  END
>  <i_m_ct_stereo_status>  (159) 
1

>  <s_m_source_file>  (159) 
/var/tmp/pbs.5076255.sched01/tmpguie9axe/40t6mruo9t.sdf

>  <i_m_source_file_index>  (159) 
21

>  <i_lp_mmshare_version>  (159) 
48012

>  <i_f3d_flags>  (159) 
0

>  <s_epik_input>  (159) 
W0NIXT0xW0NIMl1OKFtDSDNdKVtDQEBIXShDMTIpW0NASF0zW0NAQEhdKEMoPU8pW0NIMl0yKVtDQEhdNFtDSDJdW0NIMl1bQ0BASF0zTzQ=

>  <s_epik_cmdline>  (159) 
J2VwaWtfcHl0aG9uJywgJy1waHQnLCAnMi4wJywgJy1waCcsICc3LjAnLCAnLXRuJywgJzgnLCAnLW1hJywgJzIwMCcsICctaW1hZScsICc8aW5maWxlLm1hZT4nLCAnLW9tYWUnLCAnPG91dGZpbGUubWFlPic=

>  <r_epik_Ionization_Penalty>  (159) 
2.43014

>  <r_epik_Ionization_Penalty_Charging>  (159) 
0

>  <r_epik_Ionization_Penalty_Neutral>  (159) 
2.43014

>  <r_epik_State_Penalty>  (159) 
2.59014

>  <r_epik_Charging_Adjusted_Penalty>  (159) 
2.59014

>  <i_epik_Tot_Q>  (159) 
0

>  <i_epik_Tot_abs_Q>  (159) 
0

>  <s_lp_Force_Field>  (159) 
OPLS3e

>  <r_lp_Energy>  (159) 
31.8565

>  <b_lp_Chiralities_Consistent>  (159) 
1

>  <s_lp_Variant>  (159) 
39:0-2

>  <s_i_glide_gridfile>  (159) 
pfpi4k_grid

>  <i_i_glide_lignum>  (159) 
21

>  <i_i_glide_rotatable_bonds>  (159) 
0

>  <r_i_docking_score>  (159) 
-3.20267

>  <r_i_glide_ligand_efficiency>  (159) 
-0.200167

>  <r_i_glide_ligand_efficiency_sa>  (159) 
-0.504389

>  <r_i_glide_ligand_efficiency_ln>  (159) 
-0.848932

>  <r_i_glide_gscore>  (159) 
-3.20267

>  <r_i_glide_lipo>  (159) 
-0.297146

>  <r_i_glide_hbond>  (159) 
0

>  <r_i_glide_metal>  (159) 
-0

>  <r_i_glide_rewards>  (159) 
-2.00623

>  <r_i_glide_evdw>  (159) 
-16.9951

>  <r_i_glide_ecoul>  (159) 
-0.330245

>  <r_i_glide_erotb>  (159) 
0

>  <r_i_glide_esite>  (159) 
0

>  <r_i_glide_emodel>  (159) 
-21.034

>  <r_i_glide_energy>  (159) 
-17.3253

>  <r_i_glide_einternal>  (159) 
0

>  <r_i_glide_intrahb_reward>  (159) 
-0

>  <i_i_glide_confnum>  (159) 
2

>  <i_i_glide_posenum>  (159) 
29

>  <r_i_glide_eff_state_penalty>  (159) 
0

>  <ligand_id>  (159) 
39

>  <original_smiles>  (159) 
CN1CC=C2CC(=O)C3C4CCC(O4)C3C21

>  <smiles>  (159) 
[H]C1=C2C([H])([H])C(=O)C3([H])C4([H])OC([H])(C([H])([H])C4([H])[H])C3([H])C2([H])N(C([H])([H])[H])C1([H])[H]

$$$$
40:0:0
     RDKit          3D

 37 41  0  0  1  0  0  0  0  0999 V2000
    0.6695   -3.6252   -1.6601 F   0  0  0  0  0  0  0  0  0  0  0  0
    1.9401   -3.4034   -1.9836 C   0  0  0  0  0  0  0  0  0  0  0  0
    2.2746   -2.6961   -3.1670 C   0  0  0  0  0  0  0  0  0  0  0  0
    3.6220   -2.4016   -3.4498 C   0  0  0  0  0  0  0  0  0  0  0  0
    4.6328   -2.8892   -2.6038 C   0  0  0  0  0  0  0  0  0  0  0  0
    4.2803   -3.6993   -1.4970 C   0  0  0  0  0  0  0  0  0  0  0  0
    2.9562   -3.8851   -1.1263 C   0  0  0  0  0  0  0  0  0  0  0  0
    2.6021   -4.6467    0.1105 C   0  0  0  0  0  0  0  0  0  0  0  0
    1.5877   -5.6797    0.0876 N   0  0  0  0  0  0  0  0  0  0  0  0
    1.5890   -6.2797    1.3011 C   0  0  0  0  0  0  0  0  0  0  0  0
    2.5302   -5.6991    2.0910 N   0  0  0  0  0  0  0  0  0  0  0  0
    2.7939   -6.0899    3.3298 N   0  0  0  0  0  0  0  0  0  0  0  0
    3.8016   -5.3567    3.8878 C   0  0  0  0  0  0  0  0  0  0  0  0
    4.4820   -4.3052    3.3329 N   0  0  0  0  0  0  0  0  0  0  0  0
    4.1244   -3.9196    2.0649 C   0  0  0  0  0  0  0  0  0  0  0  0
    4.7967   -2.7761    1.5660 N   0  0  0  0  0  0  0  0  0  0  0  0
    6.0677   -2.2816    2.0732 C   0  0  0  0  0  0  0  0  0  0  0  0
    6.2174   -0.9924    1.2457 C   0  0  1  0  0  0  0  0  0  0  0  0
    5.5763   -1.3681   -0.0686 C   0  0  0  0  0  0  0  0  0  0  0  0
    4.2823   -1.7775    0.6823 C   0  0  2  0  0  0  0  0  0  0  0  0
    4.0079   -0.4796    1.4061 C   0  0  0  0  0  0  0  0  0  0  0  0
    5.3151   -0.0044    1.7673 O   0  0  0  0  0  0  0  0  0  0  0  0
    3.1203   -4.6766    1.3753 C   0  0  0  0  0  0  0  0  0  0  0  0
    1.4882   -2.3159   -3.7974 H   0  0  0  0  0  0  0  0  0  0  0  0
    3.8612   -1.7075   -4.2483 H   0  0  0  0  0  0  0  0  0  0  0  0
    5.6510   -2.6533   -2.8010 H   0  0  0  0  0  0  0  0  0  0  0  0
    5.0760   -4.1361   -0.8734 H   0  0  0  0  0  0  0  0  0  0  0  0
    0.9411   -7.0906    1.5937 H   0  0  0  0  0  0  0  0  0  0  0  0
    4.0814   -5.6308    4.8694 H   0  0  0  0  0  0  0  0  0  0  0  0
    6.0936   -2.0656    3.1523 H   0  0  0  0  0  0  0  0  0  0  0  0
    6.8519   -2.9842    1.8015 H   0  0  0  0  0  0  0  0  0  0  0  0
    7.2817   -0.7393    1.1342 H   0  0  0  0  0  0  0  0  0  0  0  0
    5.4366   -0.5512   -0.7772 H   0  0  0  0  0  0  0  0  0  0  0  0
    6.1778   -2.1852   -0.5010 H   0  0  0  0  0  0  0  0  0  0  0  0
    3.4126   -2.0568    0.0778 H   0  0  0  0  0  0  0  0  0  0  0  0
    3.5314    0.1674    0.6839 H   0  0  0  0  0  0  0  0  0  0  0  0
    3.3378   -0.6492    2.2595 H   0  0  0  0  0  0  0  0  0  0  0  0
  1  2  1  0
  2  7  2  0
  2  3  1  0
  3  4  2  0
  3 24  1  0
  4  5  1  0
  4 25  1  0
  5  6  2  0
  5 26  1  0
  6  7  1  0
  6 27  1  0
  7  8  1  0
  8 23  2  0
  8  9  1  0
  9 10  2  0
 10 11  1  0
 10 28  1  0
 11 23  1  0
 11 12  1  0
 12 13  2  0
 13 14  1  0
 13 29  1  0
 14 15  2  0
 15 16  1  0
 15 23  1  0
 16 20  1  0
 16 17  1  0
 17 18  1  0
 17 30  1  0
 17 31  1  0
 18 22  1  0
 18 19  1  0
 18 32  1  6
 19 20  1  0
 19 33  1  0
 19 34  1  0
 20 21  1  0
 20 35  1  6
 21 22  1  0
 21 36  1  0
 21 37  1  0
M  END
>  <i_m_ct_stereo_status>  (160) 
1

>  <s_m_source_file>  (160) 
/var/tmp/pbs.5076255.sched01/tmpguie9axe/40t6mruo9t.sdf

>  <i_m_source_file_index>  (160) 
22

>  <i_lp_mmshare_version>  (160) 
48012

>  <i_f3d_flags>  (160) 
0

>  <s_epik_input>  (160) 
RmMxW2NIXVtjSF1bY0hdW2NIXWMxLWMobltjSF0yKWMobjIzKWMobltjSF1uMylOKFtDSDJdW0NAQEhdNDUpW0NASF0oW0NIMl00KVtDSDJdTzU=

>  <s_epik_cmdline>  (160) 
J2VwaWtfcHl0aG9uJywgJy1waHQnLCAnMi4wJywgJy1waCcsICc3LjAnLCAnLXRuJywgJzgnLCAnLW1hJywgJzIwMCcsICctaW1hZScsICc8aW5maWxlLm1hZT4nLCAnLW9tYWUnLCAnPG91dGZpbGUubWFlPic=

>  <r_lp_tautomer_probability>  (160) 
1

>  <r_epik_Ionization_Penalty>  (160) 
0.00575463

>  <r_epik_Ionization_Penalty_Charging>  (160) 
0

>  <r_epik_Ionization_Penalty_Neutral>  (160) 
0.00575463

>  <r_epik_State_Penalty>  (160) 
-0

>  <r_epik_Charging_Adjusted_Penalty>  (160) 
0

>  <i_epik_Tot_Q>  (160) 
0

>  <i_epik_Tot_abs_Q>  (160) 
0

>  <s_lp_Force_Field>  (160) 
OPLS3e

>  <r_lp_Energy>  (160) 
36.9477

>  <b_lp_Chiralities_Consistent>  (160) 
1

>  <s_lp_Variant>  (160) 
40:0-1

>  <s_i_glide_gridfile>  (160) 
pfpi4k_grid

>  <i_i_glide_lignum>  (160) 
22

>  <i_i_glide_rotatable_bonds>  (160) 
2

>  <r_i_docking_score>  (160) 
-3.76178

>  <r_i_glide_ligand_efficiency>  (160) 
-0.163556

>  <r_i_glide_ligand_efficiency_sa>  (160) 
-0.465131

>  <r_i_glide_ligand_efficiency_ln>  (160) 
-0.909634

>  <r_i_glide_gscore>  (160) 
-3.76178

>  <r_i_glide_lipo>  (160) 
-0.77108

>  <r_i_glide_hbond>  (160) 
-0.351508

>  <r_i_glide_metal>  (160) 
-0

>  <r_i_glide_rewards>  (160) 
-1.32719

>  <r_i_glide_evdw>  (160) 
-14.3659

>  <r_i_glide_ecoul>  (160) 
-5.38765

>  <r_i_glide_erotb>  (160) 
0.38267

>  <r_i_glide_esite>  (160) 
-0.168228

>  <r_i_glide_emodel>  (160) 
-21.5645

>  <r_i_glide_energy>  (160) 
-19.7536

>  <r_i_glide_einternal>  (160) 
0.485108

>  <r_i_glide_intrahb_reward>  (160) 
-0

>  <i_i_glide_confnum>  (160) 
3

>  <i_i_glide_posenum>  (160) 
8

>  <r_i_glide_eff_state_penalty>  (160) 
0

>  <ligand_id>  (160) 
40

>  <original_smiles>  (160) 
Fc1ccccc1-c1ncn2ncnc(N3CC4CC3CO4)c12

>  <smiles>  (160) 
[H]c1nc(N2C([H])([H])C3([H])OC([H])([H])C2([H])C3([H])[H])c2c(-c3c([H])c([H])c([H])c([H])c3F)nc([H])n2n1

$$$$
41:0:0
     RDKit          3D

 33 34  0  0  1  0  0  0  0  0999 V2000
   -2.4698    2.7139   10.2078 C   0  0  0  0  0  0  0  0  0  0  0  0
   -1.8987    2.7106    8.8086 C   0  0  0  0  0  0  0  0  0  0  0  0
   -2.6164    2.9317    7.6911 C   0  0  0  0  0  0  0  0  0  0  0  0
   -2.0539    2.9125    6.3397 C   0  0  0  0  0  0  0  0  0  0  0  0
   -2.8028    3.3388    5.2930 N   0  0  0  0  0  0  0  0  0  0  0  0
   -2.1078    3.2921    4.1508 N   0  0  0  0  0  0  0  0  0  0  0  0
   -2.7612    3.6772    2.8867 C   0  0  0  0  0  0  0  0  0  0  0  0
   -0.8836    2.8251    4.3671 C   0  0  0  0  0  0  0  0  0  0  0  0
    0.0257    2.6678    3.3253 N   0  0  0  0  0  0  0  0  0  0  0  0
    1.2147    1.8179    3.2406 C   0  0  0  0  0  0  0  0  0  0  0  0
    2.2151    2.2173    2.1662 C   0  0  0  0  0  0  0  0  0  0  0  0
    3.0267    0.9458    1.9116 C   0  0  0  0  0  0  0  0  0  0  0  0
    2.0945   -0.2297    2.2128 C   0  0  0  0  0  0  0  0  0  0  0  0
    0.8716    0.3532    2.9283 C   0  0  0  0  0  0  0  0  0  0  0  0
   -0.3994    2.3961    5.9878 S   0  0  0  0  0  0  0  0  0  0  0  0
   -1.9893    3.4814   10.8124 H   0  0  0  0  0  0  0  0  0  0  0  0
   -2.2830    1.7607   10.7000 H   0  0  0  0  0  0  0  0  0  0  0  0
   -3.5435    2.9000   10.2123 H   0  0  0  0  0  0  0  0  0  0  0  0
   -0.8385    2.5224    8.7478 H   0  0  0  0  0  0  0  0  0  0  0  0
   -3.6773    3.1320    7.7828 H   0  0  0  0  0  0  0  0  0  0  0  0
   -2.3795    3.0503    2.0774 H   0  0  0  0  0  0  0  0  0  0  0  0
   -2.5470    4.7216    2.6833 H   0  0  0  0  0  0  0  0  0  0  0  0
   -3.8350    3.5213    2.9603 H   0  0  0  0  0  0  0  0  0  0  0  0
    1.7552    1.8459    4.1875 H   0  0  0  0  0  0  0  0  0  0  0  0
    1.6682    2.5004    1.2763 H   0  0  0  0  0  0  0  0  0  0  0  0
    2.8363    3.0643    2.4624 H   0  0  0  0  0  0  0  0  0  0  0  0
    3.4216    0.9126    0.8987 H   0  0  0  0  0  0  0  0  0  0  0  0
    3.8743    0.9132    2.5916 H   0  0  0  0  0  0  0  0  0  0  0  0
    1.7869   -0.7191    1.2904 H   0  0  0  0  0  0  0  0  0  0  0  0
    2.6016   -0.9757    2.8223 H   0  0  0  0  0  0  0  0  0  0  0  0
    0.6097   -0.2061    3.8292 H   0  0  0  0  0  0  0  0  0  0  0  0
    0.0199    0.3077    2.2494 H   0  0  0  0  0  0  0  0  0  0  0  0
   -0.1964    3.1273    2.4402 H   0  0  0  0  0  0  0  0  0  0  0  0
  1  2  1  0
  1 16  1  0
  1 17  1  0
  1 18  1  0
  2  3  2  3
  2 19  1  0
  3  4  1  0
  3 20  1  0
  4 15  1  0
  4  5  2  0
  5  6  1  0
  6  7  1  0
  6  8  2  0
  7 21  1  0
  7 22  1  0
  7 23  1  0
  8  9  1  0
  8 15  1  0
  9 10  1  0
  9 33  1  0
 10 14  1  0
 10 11  1  0
 10 24  1  0
 11 12  1  0
 11 25  1  0
 11 26  1  0
 12 13  1  0
 12 27  1  0
 12 28  1  0
 13 14  1  0
 13 29  1  0
 13 30  1  0
 14 31  1  0
 14 32  1  0
M  CHG  1   6   1
M  END
>  <i_m_ct_stereo_status>  (161) 
1

>  <s_m_source_file>  (161) 
/var/tmp/pbs.5076255.sched01/tmpguie9axe/40t6mruo9t.sdf

>  <i_m_source_file_index>  (161) 
23

>  <i_lp_mmshare_version>  (161) 
48012

>  <i_f3d_flags>  (161) 
0

>  <s_epik_input>  (161) 
W0NIM10vW0NIXT1bQ0hdL2Mxbm4oW0NIM10pL2MoczEpPU4vW0NIXTJbQ0gyXVtDSDJdW0NIMl1bQ0gyXTI=

>  <s_epik_cmdline>  (161) 
J2VwaWtfcHl0aG9uJywgJy1waHQnLCAnMi4wJywgJy1waCcsICc3LjAnLCAnLXRuJywgJzgnLCAnLW1hJywgJzIwMCcsICctaW1hZScsICc8aW5maWxlLm1hZT4nLCAnLW9tYWUnLCAnPG91dGZpbGUubWFlPic=

>  <r_epik_Ionization_Penalty>  (161) 
0.0557258

>  <r_epik_Ionization_Penalty_Charging>  (161) 
0

>  <r_epik_Ionization_Penalty_Neutral>  (161) 
0.0557258

>  <r_epik_State_Penalty>  (161) 
0.0480214

>  <r_epik_Charging_Adjusted_Penalty>  (161) 
0.0480214

>  <i_epik_Tot_Q>  (161) 
1

>  <i_epik_Tot_abs_Q>  (161) 
1

>  <s_lp_Force_Field>  (161) 
OPLS3e

>  <r_lp_Energy>  (161) 
16.9472

>  <b_lp_Chiralities_Consistent>  (161) 
1

>  <s_lp_Variant>  (161) 
41:0-1

>  <s_i_glide_gridfile>  (161) 
pfpi4k_grid

>  <i_i_glide_lignum>  (161) 
23

>  <i_i_glide_rotatable_bonds>  (161) 
3

>  <r_i_docking_score>  (161) 
-2.99515

>  <r_i_glide_ligand_efficiency>  (161) 
-0.199676

>  <r_i_glide_ligand_efficiency_sa>  (161) 
-0.492444

>  <r_i_glide_ligand_efficiency_ln>  (161) 
-0.807741

>  <r_i_glide_gscore>  (161) 
-2.99515

>  <r_i_glide_lipo>  (161) 
-0.289205

>  <r_i_glide_hbond>  (161) 
-0.136845

>  <r_i_glide_metal>  (161) 
-0

>  <r_i_glide_rewards>  (161) 
-1.87945

>  <r_i_glide_evdw>  (161) 
-16.7159

>  <r_i_glide_ecoul>  (161) 
-4.99324

>  <r_i_glide_erotb>  (161) 
1.01009

>  <r_i_glide_esite>  (161) 
-0.114946

>  <r_i_glide_emodel>  (161) 
-27.0585

>  <r_i_glide_energy>  (161) 
-21.7091

>  <r_i_glide_einternal>  (161) 
1.35844

>  <r_i_glide_intrahb_reward>  (161) 
-0

>  <i_i_glide_confnum>  (161) 
2

>  <i_i_glide_posenum>  (161) 
15

>  <r_i_glide_eff_state_penalty>  (161) 
0

>  <ligand_id>  (161) 
41

>  <original_smiles>  (161) 
CC=Cc1nn(C)c(=NC2CCCC2)s1

>  <smiles>  (161) 
[H]C(=C([H])C([H])([H])[H])c1n[n+](C([H])([H])[H])c(N([H])C2([H])C([H])([H])C([H])([H])C([H])([H])C2([H])[H])s1

$$$$
41:0:1
     RDKit          3D

 33 34  0  0  1  0  0  0  0  0999 V2000
   -3.0713    3.2582    9.7158 C   0  0  0  0  0  0  0  0  0  0  0  0
   -2.8308    3.1353    8.2213 C   0  0  0  0  0  0  0  0  0  0  0  0
   -1.6476    2.8100    7.6870 C   0  0  0  0  0  0  0  0  0  0  0  0
   -1.3566    2.7066    6.2635 C   0  0  0  0  0  0  0  0  0  0  0  0
   -2.1979    3.1540    5.3031 N   0  0  0  0  0  0  0  0  0  0  0  0
   -1.6610    2.9324    4.0862 N   0  0  0  0  0  0  0  0  0  0  0  0
   -2.4056    3.3589    2.8886 C   0  0  0  0  0  0  0  0  0  0  0  0
   -0.4897    2.2808    4.1573 C   0  0  0  0  0  0  0  0  0  0  0  0
    0.2009    1.8888    3.0269 N   0  0  0  0  0  0  0  0  0  0  0  0
    1.3183    0.9656    2.8514 C   0  0  0  0  0  0  0  0  0  0  0  0
    2.6574    1.6408    2.5907 C   0  0  0  0  0  0  0  0  0  0  0  0
    3.5121    0.5333    1.9610 C   0  0  0  0  0  0  0  0  0  0  0  0
    2.5423   -0.3882    1.2288 C   0  0  0  0  0  0  0  0  0  0  0  0
    1.1337    0.0189    1.6785 C   0  0  0  0  0  0  0  0  0  0  0  0
    0.1218    1.9140    5.7368 S   0  0  0  0  0  0  0  0  0  0  0  0
   -3.8362    2.5605   10.0466 H   0  0  0  0  0  0  0  0  0  0  0  0
   -3.3938    4.2648    9.9704 H   0  0  0  0  0  0  0  0  0  0  0  0
   -2.1681    3.0559   10.2885 H   0  0  0  0  0  0  0  0  0  0  0  0
   -3.6893    3.3324    7.5935 H   0  0  0  0  0  0  0  0  0  0  0  0
   -0.8196    2.6187    8.3589 H   0  0  0  0  0  0  0  0  0  0  0  0
   -2.2432    2.6255    2.1049 H   0  0  0  0  0  0  0  0  0  0  0  0
   -2.0617    4.3474    2.5735 H   0  0  0  0  0  0  0  0  0  0  0  0
   -3.4750    3.3819    3.1044 H   0  0  0  0  0  0  0  0  0  0  0  0
    1.4308    0.3438    3.7367 H   0  0  0  0  0  0  0  0  0  0  0  0
    2.5353    2.4544    1.8776 H   0  0  0  0  0  0  0  0  0  0  0  0
    3.1177    2.0459    3.4938 H   0  0  0  0  0  0  0  0  0  0  0  0
    4.2445    0.9351    1.2649 H   0  0  0  0  0  0  0  0  0  0  0  0
    4.0430   -0.0314    2.7292 H   0  0  0  0  0  0  0  0  0  0  0  0
    2.6287   -0.2540    0.1522 H   0  0  0  0  0  0  0  0  0  0  0  0
    2.7585   -1.4377    1.4316 H   0  0  0  0  0  0  0  0  0  0  0  0
    0.5456   -0.8584    1.9459 H   0  0  0  0  0  0  0  0  0  0  0  0
    0.6269    0.5491    0.8760 H   0  0  0  0  0  0  0  0  0  0  0  0
   -0.0727    2.3759    2.1847 H   0  0  0  0  0  0  0  0  0  0  0  0
  1  2  1  0
  1 16  1  0
  1 17  1  0
  1 18  1  0
  2  3  2  3
  2 19  1  0
  3  4  1  0
  3 20  1  0
  4 15  1  0
  4  5  2  0
  5  6  1  0
  6  7  1  0
  6  8  2  0
  7 21  1  0
  7 22  1  0
  7 23  1  0
  8  9  1  0
  8 15  1  0
  9 10  1  0
  9 33  1  0
 10 14  1  0
 10 11  1  0
 10 24  1  0
 11 12  1  0
 11 25  1  0
 11 26  1  0
 12 13  1  0
 12 27  1  0
 12 28  1  0
 13 14  1  0
 13 29  1  0
 13 30  1  0
 14 31  1  0
 14 32  1  0
M  CHG  1   6   1
M  END
>  <i_m_ct_stereo_status>  (162) 
1

>  <s_m_source_file>  (162) 
/var/tmp/pbs.5076255.sched01/tmpguie9axe/40t6mruo9t.sdf

>  <i_m_source_file_index>  (162) 
23

>  <i_lp_mmshare_version>  (162) 
48012

>  <i_f3d_flags>  (162) 
0

>  <s_epik_input>  (162) 
W0NIM10vW0NIXT1bQ0hdL2Mxbm4oW0NIM10pL2MoczEpPU4vW0NIXTJbQ0gyXVtDSDJdW0NIMl1bQ0gyXTI=

>  <s_epik_cmdline>  (162) 
J2VwaWtfcHl0aG9uJywgJy1waHQnLCAnMi4wJywgJy1waCcsICc3LjAnLCAnLXRuJywgJzgnLCAnLW1hJywgJzIwMCcsICctaW1hZScsICc8aW5maWxlLm1hZT4nLCAnLW9tYWUnLCAnPG91dGZpbGUubWFlPic=

>  <r_epik_Ionization_Penalty>  (162) 
0.0557258

>  <r_epik_Ionization_Penalty_Charging>  (162) 
0

>  <r_epik_Ionization_Penalty_Neutral>  (162) 
0.0557258

>  <r_epik_State_Penalty>  (162) 
0.0480214

>  <r_epik_Charging_Adjusted_Penalty>  (162) 
0.0480214

>  <i_epik_Tot_Q>  (162) 
1

>  <i_epik_Tot_abs_Q>  (162) 
1

>  <s_lp_Force_Field>  (162) 
OPLS3e

>  <r_lp_Energy>  (162) 
16.9472

>  <b_lp_Chiralities_Consistent>  (162) 
1

>  <s_lp_Variant>  (162) 
41:0-1

>  <s_i_glide_gridfile>  (162) 
pfpi4k_grid

>  <i_i_glide_lignum>  (162) 
23

>  <i_i_glide_rotatable_bonds>  (162) 
3

>  <r_i_docking_score>  (162) 
-2.62563

>  <r_i_glide_ligand_efficiency>  (162) 
-0.175042

>  <r_i_glide_ligand_efficiency_sa>  (162) 
-0.43169

>  <r_i_glide_ligand_efficiency_ln>  (162) 
-0.708088

>  <r_i_glide_gscore>  (162) 
-2.62563

>  <r_i_glide_lipo>  (162) 
-0.216215

>  <r_i_glide_hbond>  (162) 
-0.00415453

>  <r_i_glide_metal>  (162) 
-0

>  <r_i_glide_rewards>  (162) 
-1.87945

>  <r_i_glide_evdw>  (162) 
-16.9553

>  <r_i_glide_ecoul>  (162) 
-3.96461

>  <r_i_glide_erotb>  (162) 
1.01009

>  <r_i_glide_esite>  (162) 
-0.0934339

>  <r_i_glide_emodel>  (162) 
-25.0418

>  <r_i_glide_energy>  (162) 
-20.9199

>  <r_i_glide_einternal>  (162) 
2.11397

>  <r_i_glide_intrahb_reward>  (162) 
-0

>  <i_i_glide_confnum>  (162) 
4

>  <i_i_glide_posenum>  (162) 
39

>  <r_i_glide_eff_state_penalty>  (162) 
0

>  <ligand_id>  (162) 
41

>  <original_smiles>  (162) 
CC=Cc1nn(C)c(=NC2CCCC2)s1

>  <smiles>  (162) 
[H]C(=C([H])C([H])([H])[H])c1n[n+](C([H])([H])[H])c(N([H])C2([H])C([H])([H])C([H])([H])C([H])([H])C2([H])[H])s1

$$$$
41:0:2
     RDKit          3D

 33 34  0  0  1  0  0  0  0  0999 V2000
   -3.4126    3.1391    9.6445 C   0  0  0  0  0  0  0  0  0  0  0  0
   -2.9519    3.2850    8.2100 C   0  0  0  0  0  0  0  0  0  0  0  0
   -2.0739    2.4522    7.6199 C   0  0  0  0  0  0  0  0  0  0  0  0
   -1.6163    2.5445    6.2364 C   0  0  0  0  0  0  0  0  0  0  0  0
   -2.1674    3.3643    5.3144 N   0  0  0  0  0  0  0  0  0  0  0  0
   -1.5099    3.2661    4.1446 N   0  0  0  0  0  0  0  0  0  0  0  0
   -1.9570    4.0642    3.0033 C   0  0  0  0  0  0  0  0  0  0  0  0
   -0.4845    2.4013    4.2143 C   0  0  0  0  0  0  0  0  0  0  0  0
    0.3450    2.1427    3.1270 N   0  0  0  0  0  0  0  0  0  0  0  0
    1.3908    1.1314    2.9781 C   0  0  0  0  0  0  0  0  0  0  0  0
    2.2097    1.2548    1.7052 C   0  0  0  0  0  0  0  0  0  0  0  0
    2.8275   -0.1250    1.4935 C   0  0  0  0  0  0  0  0  0  0  0  0
    1.8313   -1.1161    2.1011 C   0  0  0  0  0  0  0  0  0  0  0  0
    0.8309   -0.2910    2.9193 C   0  0  0  0  0  0  0  0  0  0  0  0
   -0.2220    1.5949    5.7248 S   0  0  0  0  0  0  0  0  0  0  0  0
   -4.4923    3.0094    9.6927 H   0  0  0  0  0  0  0  0  0  0  0  0
   -3.1613    4.0263   10.2228 H   0  0  0  0  0  0  0  0  0  0  0  0
   -2.9511    2.2855   10.1396 H   0  0  0  0  0  0  0  0  0  0  0  0
   -3.3660    4.1173    7.6687 H   0  0  0  0  0  0  0  0  0  0  0  0
   -1.6719    1.6415    8.2067 H   0  0  0  0  0  0  0  0  0  0  0  0
   -1.7891    3.5034    2.0837 H   0  0  0  0  0  0  0  0  0  0  0  0
   -1.3947    4.9998    2.9671 H   0  0  0  0  0  0  0  0  0  0  0  0
   -3.0263    4.2645    3.0864 H   0  0  0  0  0  0  0  0  0  0  0  0
    2.0798    1.2146    3.8145 H   0  0  0  0  0  0  0  0  0  0  0  0
    1.5368    1.4511    0.8815 H   0  0  0  0  0  0  0  0  0  0  0  0
    2.9635    2.0383    1.7731 H   0  0  0  0  0  0  0  0  0  0  0  0
    3.0070   -0.3291    0.4387 H   0  0  0  0  0  0  0  0  0  0  0  0
    3.7832   -0.1998    2.0060 H   0  0  0  0  0  0  0  0  0  0  0  0
    1.3065   -1.6637    1.3197 H   0  0  0  0  0  0  0  0  0  0  0  0
    2.3453   -1.8529    2.7165 H   0  0  0  0  0  0  0  0  0  0  0  0
    0.6731   -0.7090    3.9124 H   0  0  0  0  0  0  0  0  0  0  0  0
   -0.1286   -0.2800    2.4019 H   0  0  0  0  0  0  0  0  0  0  0  0
    0.1486    2.6901    2.2928 H   0  0  0  0  0  0  0  0  0  0  0  0
  1  2  1  0
  1 16  1  0
  1 17  1  0
  1 18  1  0
  2  3  2  3
  2 19  1  0
  3  4  1  0
  3 20  1  0
  4 15  1  0
  4  5  2  0
  5  6  1  0
  6  7  1  0
  6  8  2  0
  7 21  1  0
  7 22  1  0
  7 23  1  0
  8  9  1  0
  8 15  1  0
  9 10  1  0
  9 33  1  0
 10 14  1  0
 10 11  1  0
 10 24  1  0
 11 12  1  0
 11 25  1  0
 11 26  1  0
 12 13  1  0
 12 27  1  0
 12 28  1  0
 13 14  1  0
 13 29  1  0
 13 30  1  0
 14 31  1  0
 14 32  1  0
M  CHG  1   6   1
M  END
>  <i_m_ct_stereo_status>  (163) 
1

>  <s_m_source_file>  (163) 
/var/tmp/pbs.5076255.sched01/tmpguie9axe/40t6mruo9t.sdf

>  <i_m_source_file_index>  (163) 
23

>  <i_lp_mmshare_version>  (163) 
48012

>  <i_f3d_flags>  (163) 
0

>  <s_epik_input>  (163) 
W0NIM10vW0NIXT1bQ0hdL2Mxbm4oW0NIM10pL2MoczEpPU4vW0NIXTJbQ0gyXVtDSDJdW0NIMl1bQ0gyXTI=

>  <s_epik_cmdline>  (163) 
J2VwaWtfcHl0aG9uJywgJy1waHQnLCAnMi4wJywgJy1waCcsICc3LjAnLCAnLXRuJywgJzgnLCAnLW1hJywgJzIwMCcsICctaW1hZScsICc8aW5maWxlLm1hZT4nLCAnLW9tYWUnLCAnPG91dGZpbGUubWFlPic=

>  <r_epik_Ionization_Penalty>  (163) 
0.0557258

>  <r_epik_Ionization_Penalty_Charging>  (163) 
0

>  <r_epik_Ionization_Penalty_Neutral>  (163) 
0.0557258

>  <r_epik_State_Penalty>  (163) 
0.0480214

>  <r_epik_Charging_Adjusted_Penalty>  (163) 
0.0480214

>  <i_epik_Tot_Q>  (163) 
1

>  <i_epik_Tot_abs_Q>  (163) 
1

>  <s_lp_Force_Field>  (163) 
OPLS3e

>  <r_lp_Energy>  (163) 
16.9472

>  <b_lp_Chiralities_Consistent>  (163) 
1

>  <s_lp_Variant>  (163) 
41:0-1

>  <s_i_glide_gridfile>  (163) 
pfpi4k_grid

>  <i_i_glide_lignum>  (163) 
23

>  <i_i_glide_rotatable_bonds>  (163) 
3

>  <r_i_docking_score>  (163) 
-2.62521

>  <r_i_glide_ligand_efficiency>  (163) 
-0.175014

>  <r_i_glide_ligand_efficiency_sa>  (163) 
-0.431622

>  <r_i_glide_ligand_efficiency_ln>  (163) 
-0.707976

>  <r_i_glide_gscore>  (163) 
-2.62521

>  <r_i_glide_lipo>  (163) 
-0.156264

>  <r_i_glide_hbond>  (163) 
-0.0736414

>  <r_i_glide_metal>  (163) 
-0

>  <r_i_glide_rewards>  (163) 
-1.87945

>  <r_i_glide_evdw>  (163) 
-16.3336

>  <r_i_glide_ecoul>  (163) 
-4.02115

>  <r_i_glide_erotb>  (163) 
1.01009

>  <r_i_glide_esite>  (163) 
-0.106082

>  <r_i_glide_emodel>  (163) 
-25.4979

>  <r_i_glide_energy>  (163) 
-20.3548

>  <r_i_glide_einternal>  (163) 
0.346129

>  <r_i_glide_intrahb_reward>  (163) 
-0

>  <i_i_glide_confnum>  (163) 
1

>  <i_i_glide_posenum>  (163) 
27

>  <r_i_glide_eff_state_penalty>  (163) 
0

>  <ligand_id>  (163) 
41

>  <original_smiles>  (163) 
CC=Cc1nn(C)c(=NC2CCCC2)s1

>  <smiles>  (163) 
[H]C(=C([H])C([H])([H])[H])c1n[n+](C([H])([H])[H])c(N([H])C2([H])C([H])([H])C([H])([H])C([H])([H])C2([H])[H])s1

$$$$
41:1:0
     RDKit          3D

 33 34  0  0  1  0  0  0  0  0999 V2000
    2.2690    0.9828   -5.4892 C   0  0  0  0  0  0  0  0  0  0  0  0
    3.4063    1.2661   -4.6063 C   0  0  0  0  0  0  0  0  0  0  0  0
    3.9886    0.5701   -3.6276 C   0  0  0  0  0  0  0  0  0  0  0  0
    3.6979   -0.7439   -3.1607 C   0  0  0  0  0  0  0  0  0  0  0  0
    3.0425   -1.6448   -3.9046 N   0  0  0  0  0  0  0  0  0  0  0  0
    2.9333   -2.7589   -3.2147 N   0  0  0  0  0  0  0  0  0  0  0  0
    2.3016   -3.8680   -3.8776 C   0  0  0  0  0  0  0  0  0  0  0  0
    3.4430   -2.6618   -1.9825 C   0  0  0  0  0  0  0  0  0  0  0  0
    3.3814   -3.7036   -1.0770 N   0  0  0  0  0  0  0  0  0  0  0  0
    3.6004   -3.7545    0.3828 C   0  0  0  0  0  0  0  0  0  0  0  0
    3.2758   -5.0761    1.0914 C   0  0  0  0  0  0  0  0  0  0  0  0
    3.0682   -4.6715    2.5620 C   0  0  0  0  0  0  0  0  0  0  0  0
    2.5347   -3.2369    2.5462 C   0  0  0  0  0  0  0  0  0  0  0  0
    2.7541   -2.7194    1.1303 C   0  0  0  0  0  0  0  0  0  0  0  0
    4.1958   -1.1730   -1.5362 S   0  0  0  0  0  0  0  0  0  0  0  0
    2.6224    1.2150   -6.4860 H   0  0  0  0  0  0  0  0  0  0  0  0
    1.4793    1.6936   -5.2579 H   0  0  0  0  0  0  0  0  0  0  0  0
    1.8853   -0.0308   -5.4083 H   0  0  0  0  0  0  0  0  0  0  0  0
    3.8086    2.2447   -4.7530 H   0  0  0  0  0  0  0  0  0  0  0  0
    4.7671    1.0817   -3.1149 H   0  0  0  0  0  0  0  0  0  0  0  0
    1.8182   -4.4254   -3.0968 H   0  0  0  0  0  0  0  0  0  0  0  0
    3.0857   -4.4900   -4.2962 H   0  0  0  0  0  0  0  0  0  0  0  0
    1.5907   -3.5000   -4.6255 H   0  0  0  0  0  0  0  0  0  0  0  0
    4.6469   -3.5478    0.5961 H   0  0  0  0  0  0  0  0  0  0  0  0
    2.3515   -5.5141    0.7188 H   0  0  0  0  0  0  0  0  0  0  0  0
    4.0692   -5.8236    0.9987 H   0  0  0  0  0  0  0  0  0  0  0  0
    2.3838   -5.3394    3.0811 H   0  0  0  0  0  0  0  0  0  0  0  0
    4.0105   -4.6862    3.1116 H   0  0  0  0  0  0  0  0  0  0  0  0
    1.4708   -3.1921    2.7790 H   0  0  0  0  0  0  0  0  0  0  0  0
    3.0505   -2.6054    3.2704 H   0  0  0  0  0  0  0  0  0  0  0  0
    3.2074   -1.7323    1.1490 H   0  0  0  0  0  0  0  0  0  0  0  0
    1.7945   -2.6250    0.6395 H   0  0  0  0  0  0  0  0  0  0  0  0
    3.0647   -4.5623   -1.5112 H   0  0  0  0  0  0  0  0  0  0  0  0
  1  2  1  0
  1 16  1  0
  1 17  1  0
  1 18  1  0
  2  3  2  3
  2 19  1  0
  3  4  1  0
  3 20  1  0
  4 15  1  0
  4  5  2  0
  5  6  1  0
  6  7  1  0
  6  8  2  0
  7 21  1  0
  7 22  1  0
  7 23  1  0
  8  9  1  0
  8 15  1  0
  9 10  1  0
  9 33  1  0
 10 14  1  0
 10 11  1  0
 10 24  1  0
 11 12  1  0
 11 25  1  0
 11 26  1  0
 12 13  1  0
 12 27  1  0
 12 28  1  0
 13 14  1  0
 13 29  1  0
 13 30  1  0
 14 31  1  0
 14 32  1  0
M  CHG  1   6   1
M  END
>  <i_m_ct_stereo_status>  (164) 
1

>  <s_m_source_file>  (164) 
/var/tmp/pbs.5076255.sched01/tmpguie9axe/40t6mruo9t.sdf

>  <i_m_source_file_index>  (164) 
24

>  <i_lp_mmshare_version>  (164) 
48012

>  <i_f3d_flags>  (164) 
0

>  <s_epik_input>  (164) 
W0NIM10vW0NIXT1bQ0hdL2Mxbm4oW0NIM10pL2MoczEpPU4vW0NIXTJbQ0gyXVtDSDJdW0NIMl1bQ0gyXTI=

>  <s_epik_cmdline>  (164) 
J2VwaWtfcHl0aG9uJywgJy1waHQnLCAnMi4wJywgJy1waCcsICc3LjAnLCAnLXRuJywgJzgnLCAnLW1hJywgJzIwMCcsICctaW1hZScsICc8aW5maWxlLm1hZT4nLCAnLW9tYWUnLCAnPG91dGZpbGUubWFlPic=

>  <r_epik_Ionization_Penalty>  (164) 
0.0557258

>  <r_epik_Ionization_Penalty_Charging>  (164) 
0

>  <r_epik_Ionization_Penalty_Neutral>  (164) 
0.0557258

>  <r_epik_State_Penalty>  (164) 
0.0480214

>  <r_epik_Charging_Adjusted_Penalty>  (164) 
0.0480214

>  <i_epik_Tot_Q>  (164) 
1

>  <i_epik_Tot_abs_Q>  (164) 
1

>  <s_lp_Force_Field>  (164) 
OPLS3e

>  <r_lp_Energy>  (164) 
19.397

>  <b_lp_Chiralities_Consistent>  (164) 
1

>  <s_lp_Variant>  (164) 
41:0-2

>  <s_i_glide_gridfile>  (164) 
pfpi4k_grid

>  <i_i_glide_lignum>  (164) 
24

>  <i_i_glide_rotatable_bonds>  (164) 
3

>  <r_i_docking_score>  (164) 
-3.11416

>  <r_i_glide_ligand_efficiency>  (164) 
-0.207611

>  <r_i_glide_ligand_efficiency_sa>  (164) 
-0.512012

>  <r_i_glide_ligand_efficiency_ln>  (164) 
-0.839837

>  <r_i_glide_gscore>  (164) 
-3.11416

>  <r_i_glide_lipo>  (164) 
-0.153587

>  <r_i_glide_hbond>  (164) 
-0.32

>  <r_i_glide_metal>  (164) 
-0

>  <r_i_glide_rewards>  (164) 
-2.01977

>  <r_i_glide_evdw>  (164) 
-13.7711

>  <r_i_glide_ecoul>  (164) 
-6.28225

>  <r_i_glide_erotb>  (164) 
1.01009

>  <r_i_glide_esite>  (164) 
0

>  <r_i_glide_emodel>  (164) 
-25.2702

>  <r_i_glide_energy>  (164) 
-20.0534

>  <r_i_glide_einternal>  (164) 
2.09846

>  <r_i_glide_intrahb_reward>  (164) 
-0

>  <i_i_glide_confnum>  (164) 
1

>  <i_i_glide_posenum>  (164) 
6

>  <r_i_glide_eff_state_penalty>  (164) 
0

>  <ligand_id>  (164) 
41

>  <original_smiles>  (164) 
CC=Cc1nn(C)c(=NC2CCCC2)s1

>  <smiles>  (164) 
[H]C(=C([H])C([H])([H])[H])c1n[n+](C([H])([H])[H])c(N([H])C2([H])C([H])([H])C([H])([H])C([H])([H])C2([H])[H])s1

$$$$
41:1:1
     RDKit          3D

 33 34  0  0  1  0  0  0  0  0999 V2000
   -0.4703    1.4340    9.0202 C   0  0  0  0  0  0  0  0  0  0  0  0
   -1.8084    2.1304    8.7877 C   0  0  0  0  0  0  0  0  0  0  0  0
   -2.3654    2.6483    7.6696 C   0  0  0  0  0  0  0  0  0  0  0  0
   -1.8539    2.7084    6.2953 C   0  0  0  0  0  0  0  0  0  0  0  0
   -2.5710    3.3264    5.3230 N   0  0  0  0  0  0  0  0  0  0  0  0
   -1.9113    3.2867    4.1472 N   0  0  0  0  0  0  0  0  0  0  0  0
   -2.5188    3.8700    2.9486 C   0  0  0  0  0  0  0  0  0  0  0  0
   -0.7429    2.6522    4.2657 C   0  0  0  0  0  0  0  0  0  0  0  0
    0.1374    2.4738    3.2015 N   0  0  0  0  0  0  0  0  0  0  0  0
    1.3094    1.6003    3.1143 C   0  0  0  0  0  0  0  0  0  0  0  0
    2.3784    2.0906    2.1586 C   0  0  0  0  0  0  0  0  0  0  0  0
    3.1946    0.8413    1.8311 C   0  0  0  0  0  0  0  0  0  0  0  0
    2.2336   -0.3417    1.9472 C   0  0  0  0  0  0  0  0  0  0  0  0
    0.9673    0.1825    2.6355 C   0  0  0  0  0  0  0  0  0  0  0  0
   -0.3080    2.0222    5.8079 S   0  0  0  0  0  0  0  0  0  0  0  0
   -0.6385    0.4577    9.4671 H   0  0  0  0  0  0  0  0  0  0  0  0
    0.1277    2.0339    9.7030 H   0  0  0  0  0  0  0  0  0  0  0  0
    0.1654    1.2471    8.1678 H   0  0  0  0  0  0  0  0  0  0  0  0
   -2.3942    2.2237    9.6917 H   0  0  0  0  0  0  0  0  0  0  0  0
   -3.3441    3.1027    7.7850 H   0  0  0  0  0  0  0  0  0  0  0  0
   -2.1344    3.3422    2.0874 H   0  0  0  0  0  0  0  0  0  0  0  0
   -2.2496    4.9221    2.8803 H   0  0  0  0  0  0  0  0  0  0  0  0
   -3.6028    3.7503    2.9750 H   0  0  0  0  0  0  0  0  0  0  0  0
    1.8122    1.5064    4.0798 H   0  0  0  0  0  0  0  0  0  0  0  0
    1.8767    2.4800    1.2753 H   0  0  0  0  0  0  0  0  0  0  0  0
    2.9896    2.8899    2.5749 H   0  0  0  0  0  0  0  0  0  0  0  0
    3.6552    0.9066    0.8514 H   0  0  0  0  0  0  0  0  0  0  0  0
    3.9999    0.7152    2.5508 H   0  0  0  0  0  0  0  0  0  0  0  0
    1.9880   -0.7222    0.9609 H   0  0  0  0  0  0  0  0  0  0  0  0
    2.6893   -1.1631    2.4975 H   0  0  0  0  0  0  0  0  0  0  0  0
    0.6480   -0.4621    3.4586 H   0  0  0  0  0  0  0  0  0  0  0  0
    0.1589    0.2191    1.9045 H   0  0  0  0  0  0  0  0  0  0  0  0
   -0.0902    2.9737    2.3448 H   0  0  0  0  0  0  0  0  0  0  0  0
  1  2  1  0
  1 16  1  0
  1 17  1  0
  1 18  1  0
  2  3  2  3
  2 19  1  0
  3  4  1  0
  3 20  1  0
  4 15  1  0
  4  5  2  0
  5  6  1  0
  6  7  1  0
  6  8  2  0
  7 21  1  0
  7 22  1  0
  7 23  1  0
  8  9  1  0
  8 15  1  0
  9 10  1  0
  9 33  1  0
 10 14  1  0
 10 11  1  0
 10 24  1  0
 11 12  1  0
 11 25  1  0
 11 26  1  0
 12 13  1  0
 12 27  1  0
 12 28  1  0
 13 14  1  0
 13 29  1  0
 13 30  1  0
 14 31  1  0
 14 32  1  0
M  CHG  1   6   1
M  END
>  <i_m_ct_stereo_status>  (165) 
1

>  <s_m_source_file>  (165) 
/var/tmp/pbs.5076255.sched01/tmpguie9axe/40t6mruo9t.sdf

>  <i_m_source_file_index>  (165) 
24

>  <i_lp_mmshare_version>  (165) 
48012

>  <i_f3d_flags>  (165) 
0

>  <s_epik_input>  (165) 
W0NIM10vW0NIXT1bQ0hdL2Mxbm4oW0NIM10pL2MoczEpPU4vW0NIXTJbQ0gyXVtDSDJdW0NIMl1bQ0gyXTI=

>  <s_epik_cmdline>  (165) 
J2VwaWtfcHl0aG9uJywgJy1waHQnLCAnMi4wJywgJy1waCcsICc3LjAnLCAnLXRuJywgJzgnLCAnLW1hJywgJzIwMCcsICctaW1hZScsICc8aW5maWxlLm1hZT4nLCAnLW9tYWUnLCAnPG91dGZpbGUubWFlPic=

>  <r_epik_Ionization_Penalty>  (165) 
0.0557258

>  <r_epik_Ionization_Penalty_Charging>  (165) 
0

>  <r_epik_Ionization_Penalty_Neutral>  (165) 
0.0557258

>  <r_epik_State_Penalty>  (165) 
0.0480214

>  <r_epik_Charging_Adjusted_Penalty>  (165) 
0.0480214

>  <i_epik_Tot_Q>  (165) 
1

>  <i_epik_Tot_abs_Q>  (165) 
1

>  <s_lp_Force_Field>  (165) 
OPLS3e

>  <r_lp_Energy>  (165) 
19.397

>  <b_lp_Chiralities_Consistent>  (165) 
1

>  <s_lp_Variant>  (165) 
41:0-2

>  <s_i_glide_gridfile>  (165) 
pfpi4k_grid

>  <i_i_glide_lignum>  (165) 
24

>  <i_i_glide_rotatable_bonds>  (165) 
3

>  <r_i_docking_score>  (165) 
-2.92078

>  <r_i_glide_ligand_efficiency>  (165) 
-0.194719

>  <r_i_glide_ligand_efficiency_sa>  (165) 
-0.480218

>  <r_i_glide_ligand_efficiency_ln>  (165) 
-0.787686

>  <r_i_glide_gscore>  (165) 
-2.92078

>  <r_i_glide_lipo>  (165) 
-0.265904

>  <r_i_glide_hbond>  (165) 
-0.133927

>  <r_i_glide_metal>  (165) 
-0

>  <r_i_glide_rewards>  (165) 
-1.87945

>  <r_i_glide_evdw>  (165) 
-15.7637

>  <r_i_glide_ecoul>  (165) 
-4.96277

>  <r_i_glide_erotb>  (165) 
1.01009

>  <r_i_glide_esite>  (165) 
-0.118979

>  <r_i_glide_emodel>  (165) 
-25.9646

>  <r_i_glide_energy>  (165) 
-20.7265

>  <r_i_glide_einternal>  (165) 
1.29428

>  <r_i_glide_intrahb_reward>  (165) 
-0

>  <i_i_glide_confnum>  (165) 
3

>  <i_i_glide_posenum>  (165) 
19

>  <r_i_glide_eff_state_penalty>  (165) 
0

>  <ligand_id>  (165) 
41

>  <original_smiles>  (165) 
CC=Cc1nn(C)c(=NC2CCCC2)s1

>  <smiles>  (165) 
[H]C(=C([H])C([H])([H])[H])c1n[n+](C([H])([H])[H])c(N([H])C2([H])C([H])([H])C([H])([H])C([H])([H])C2([H])[H])s1

$$$$
41:1:2
     RDKit          3D

 33 34  0  0  1  0  0  0  0  0999 V2000
   -0.2217    1.7652    8.9695 C   0  0  0  0  0  0  0  0  0  0  0  0
   -1.4456    2.6590    8.7843 C   0  0  0  0  0  0  0  0  0  0  0  0
   -2.0594    3.1153    7.6727 C   0  0  0  0  0  0  0  0  0  0  0  0
   -1.7246    2.9411    6.2583 C   0  0  0  0  0  0  0  0  0  0  0  0
   -2.5832    3.3414    5.2953 N   0  0  0  0  0  0  0  0  0  0  0  0
   -2.1137    3.0680    4.0720 N   0  0  0  0  0  0  0  0  0  0  0  0
   -2.9103    3.4245    2.8787 C   0  0  0  0  0  0  0  0  0  0  0  0
   -0.9199    2.4796    4.1536 C   0  0  0  0  0  0  0  0  0  0  0  0
   -0.2220    2.0606    3.0265 N   0  0  0  0  0  0  0  0  0  0  0  0
    1.0162    1.2684    2.9567 C   0  0  0  0  0  0  0  0  0  0  0  0
    1.6167    1.1736    1.5683 C   0  0  0  0  0  0  0  0  0  0  0  0
    2.5356   -0.0391    1.6448 C   0  0  0  0  0  0  0  0  0  0  0  0
    1.9078   -0.9873    2.6735 C   0  0  0  0  0  0  0  0  0  0  0  0
    0.8382   -0.1875    3.4105 C   0  0  0  0  0  0  0  0  0  0  0  0
   -0.2181    2.2159    5.7064 S   0  0  0  0  0  0  0  0  0  0  0  0
   -0.4930    0.9241    9.6072 H   0  0  0  0  0  0  0  0  0  0  0  0
    0.5626    2.3412    9.4603 H   0  0  0  0  0  0  0  0  0  0  0  0
    0.2226    1.3045    8.0955 H   0  0  0  0  0  0  0  0  0  0  0  0
   -1.8854    2.9730    9.7182 H   0  0  0  0  0  0  0  0  0  0  0  0
   -2.9365    3.7218    7.8166 H   0  0  0  0  0  0  0  0  0  0  0  0
   -2.6758    2.7285    2.0801 H   0  0  0  0  0  0  0  0  0  0  0  0
   -2.6608    4.4388    2.5579 H   0  0  0  0  0  0  0  0  0  0  0  0
   -3.9853    3.3481    3.0739 H   0  0  0  0  0  0  0  0  0  0  0  0
    1.7826    1.7228    3.5813 H   0  0  0  0  0  0  0  0  0  0  0  0
    0.8335    0.9832    0.8428 H   0  0  0  0  0  0  0  0  0  0  0  0
    2.1505    2.0801    1.3013 H   0  0  0  0  0  0  0  0  0  0  0  0
    2.6316   -0.5147    0.6700 H   0  0  0  0  0  0  0  0  0  0  0  0
    3.5378    0.2436    1.9677 H   0  0  0  0  0  0  0  0  0  0  0  0
    1.4403   -1.8378    2.1805 H   0  0  0  0  0  0  0  0  0  0  0  0
    2.6641   -1.3812    3.3520 H   0  0  0  0  0  0  0  0  0  0  0  0
    0.9349   -0.2937    4.4941 H   0  0  0  0  0  0  0  0  0  0  0  0
   -0.1451   -0.5617    3.1229 H   0  0  0  0  0  0  0  0  0  0  0  0
   -0.6428    2.3449    2.1447 H   0  0  0  0  0  0  0  0  0  0  0  0
  1  2  1  0
  1 16  1  0
  1 17  1  0
  1 18  1  0
  2  3  2  3
  2 19  1  0
  3  4  1  0
  3 20  1  0
  4 15  1  0
  4  5  2  0
  5  6  1  0
  6  7  1  0
  6  8  2  0
  7 21  1  0
  7 22  1  0
  7 23  1  0
  8  9  1  0
  8 15  1  0
  9 10  1  0
  9 33  1  0
 10 14  1  0
 10 11  1  0
 10 24  1  0
 11 12  1  0
 11 25  1  0
 11 26  1  0
 12 13  1  0
 12 27  1  0
 12 28  1  0
 13 14  1  0
 13 29  1  0
 13 30  1  0
 14 31  1  0
 14 32  1  0
M  CHG  1   6   1
M  END
>  <i_m_ct_stereo_status>  (166) 
1

>  <s_m_source_file>  (166) 
/var/tmp/pbs.5076255.sched01/tmpguie9axe/40t6mruo9t.sdf

>  <i_m_source_file_index>  (166) 
24

>  <i_lp_mmshare_version>  (166) 
48012

>  <i_f3d_flags>  (166) 
0

>  <s_epik_input>  (166) 
W0NIM10vW0NIXT1bQ0hdL2Mxbm4oW0NIM10pL2MoczEpPU4vW0NIXTJbQ0gyXVtDSDJdW0NIMl1bQ0gyXTI=

>  <s_epik_cmdline>  (166) 
J2VwaWtfcHl0aG9uJywgJy1waHQnLCAnMi4wJywgJy1waCcsICc3LjAnLCAnLXRuJywgJzgnLCAnLW1hJywgJzIwMCcsICctaW1hZScsICc8aW5maWxlLm1hZT4nLCAnLW9tYWUnLCAnPG91dGZpbGUubWFlPic=

>  <r_epik_Ionization_Penalty>  (166) 
0.0557258

>  <r_epik_Ionization_Penalty_Charging>  (166) 
0

>  <r_epik_Ionization_Penalty_Neutral>  (166) 
0.0557258

>  <r_epik_State_Penalty>  (166) 
0.0480214

>  <r_epik_Charging_Adjusted_Penalty>  (166) 
0.0480214

>  <i_epik_Tot_Q>  (166) 
1

>  <i_epik_Tot_abs_Q>  (166) 
1

>  <s_lp_Force_Field>  (166) 
OPLS3e

>  <r_lp_Energy>  (166) 
19.397

>  <b_lp_Chiralities_Consistent>  (166) 
1

>  <s_lp_Variant>  (166) 
41:0-2

>  <s_i_glide_gridfile>  (166) 
pfpi4k_grid

>  <i_i_glide_lignum>  (166) 
24

>  <i_i_glide_rotatable_bonds>  (166) 
3

>  <r_i_docking_score>  (166) 
-2.46957

>  <r_i_glide_ligand_efficiency>  (166) 
-0.164638

>  <r_i_glide_ligand_efficiency_sa>  (166) 
-0.406032

>  <r_i_glide_ligand_efficiency_ln>  (166) 
-0.666002

>  <r_i_glide_gscore>  (166) 
-2.46957

>  <r_i_glide_lipo>  (166) 
-0.0983264

>  <r_i_glide_hbond>  (166) 
0

>  <r_i_glide_metal>  (166) 
-0

>  <r_i_glide_rewards>  (166) 
-1.87945

>  <r_i_glide_evdw>  (166) 
-16.1526

>  <r_i_glide_ecoul>  (166) 
-3.93383

>  <r_i_glide_erotb>  (166) 
1.01009

>  <r_i_glide_esite>  (166) 
-0.10417

>  <r_i_glide_emodel>  (166) 
-24.5869

>  <r_i_glide_energy>  (166) 
-20.0864

>  <r_i_glide_einternal>  (166) 
0.723876

>  <r_i_glide_intrahb_reward>  (166) 
-0

>  <i_i_glide_confnum>  (166) 
2

>  <i_i_glide_posenum>  (166) 
23

>  <r_i_glide_eff_state_penalty>  (166) 
0

>  <ligand_id>  (166) 
41

>  <original_smiles>  (166) 
CC=Cc1nn(C)c(=NC2CCCC2)s1

>  <smiles>  (166) 
[H]C(=C([H])C([H])([H])[H])c1n[n+](C([H])([H])[H])c(N([H])C2([H])C([H])([H])C([H])([H])C([H])([H])C2([H])[H])s1

$$$$
41:2:0
     RDKit          3D

 32 33  0  0  1  0  0  0  0  0999 V2000
    4.3067   -0.4419    0.9044 C   0  0  0  0  0  0  0  0  0  0  0  0
    3.2041   -0.7760    1.8862 C   0  0  0  0  0  0  0  0  0  0  0  0
    2.1730    0.0366    2.1880 C   0  0  0  0  0  0  0  0  0  0  0  0
    1.1487   -0.3496    3.1435 C   0  0  0  0  0  0  0  0  0  0  0  0
    0.1811    0.4264    3.4803 N   0  0  0  0  0  0  0  0  0  0  0  0
   -0.6223   -0.1139    4.3958 N   0  0  0  0  0  0  0  0  0  0  0  0
   -1.7035    0.7343    4.8900 C   0  0  0  0  0  0  0  0  0  0  0  0
   -0.3408   -1.3869    4.8776 C   0  0  0  0  0  0  0  0  0  0  0  0
   -1.0219   -2.0057    5.7928 N   0  0  0  0  0  0  0  0  0  0  0  0
   -0.5869   -3.3490    6.1634 C   0  0  0  0  0  0  0  0  0  0  0  0
   -1.7133   -4.0753    6.9296 C   0  0  0  0  0  0  0  0  0  0  0  0
   -1.2502   -4.2337    8.3844 C   0  0  0  0  0  0  0  0  0  0  0  0
   -0.0099   -3.3552    8.5384 C   0  0  0  0  0  0  0  0  0  0  0  0
    0.6029   -3.3203    7.1440 C   0  0  0  0  0  0  0  0  0  0  0  0
    1.1250   -1.9266    3.9706 S   0  0  0  0  0  0  0  0  0  0  0  0
    4.3133   -1.1658    0.0895 H   0  0  0  0  0  0  0  0  0  0  0  0
    5.2785   -0.4751    1.3976 H   0  0  0  0  0  0  0  0  0  0  0  0
    4.1699    0.5511    0.4783 H   0  0  0  0  0  0  0  0  0  0  0  0
    3.3008   -1.7478    2.3475 H   0  0  0  0  0  0  0  0  0  0  0  0
    2.1048    1.0057    1.7102 H   0  0  0  0  0  0  0  0  0  0  0  0
   -2.5697    0.1399    5.1766 H   0  0  0  0  0  0  0  0  0  0  0  0
   -2.0336    1.4537    4.1388 H   0  0  0  0  0  0  0  0  0  0  0  0
   -1.3653    1.2899    5.7637 H   0  0  0  0  0  0  0  0  0  0  0  0
   -0.3275   -3.9287    5.2726 H   0  0  0  0  0  0  0  0  0  0  0  0
   -2.6628   -3.5421    6.8684 H   0  0  0  0  0  0  0  0  0  0  0  0
   -1.8851   -5.0611    6.4946 H   0  0  0  0  0  0  0  0  0  0  0  0
   -2.0335   -3.9840    9.0976 H   0  0  0  0  0  0  0  0  0  0  0  0
   -0.9757   -5.2725    8.5649 H   0  0  0  0  0  0  0  0  0  0  0  0
   -0.2867   -2.3467    8.8372 H   0  0  0  0  0  0  0  0  0  0  0  0
    0.6814   -3.7418    9.2866 H   0  0  0  0  0  0  0  0  0  0  0  0
    1.1875   -4.2290    7.0008 H   0  0  0  0  0  0  0  0  0  0  0  0
    1.2835   -2.4805    7.0019 H   0  0  0  0  0  0  0  0  0  0  0  0
  1  2  1  0
  1 16  1  0
  1 17  1  0
  1 18  1  0
  2  3  2  3
  2 19  1  0
  3  4  1  0
  3 20  1  0
  4 15  1  0
  4  5  2  0
  5  6  1  0
  6  7  1  0
  6  8  1  0
  7 21  1  0
  7 22  1  0
  7 23  1  0
  8  9  2  3
  8 15  1  0
  9 10  1  0
 10 14  1  0
 10 11  1  0
 10 24  1  0
 11 12  1  0
 11 25  1  0
 11 26  1  0
 12 13  1  0
 12 27  1  0
 12 28  1  0
 13 14  1  0
 13 29  1  0
 13 30  1  0
 14 31  1  0
 14 32  1  0
M  END
>  <i_m_ct_stereo_status>  (167) 
1

>  <s_m_source_file>  (167) 
/var/tmp/pbs.5076255.sched01/tmpguie9axe/40t6mruo9t.sdf

>  <i_m_source_file_index>  (167) 
25

>  <i_lp_mmshare_version>  (167) 
48012

>  <i_f3d_flags>  (167) 
0

>  <s_epik_input>  (167) 
W0NIM10vW0NIXT1bQ0hdL2Mxbm4oW0NIM10pL2MoczEpPU4vW0NIXTJbQ0gyXVtDSDJdW0NIMl1bQ0gyXTI=

>  <s_epik_cmdline>  (167) 
J2VwaWtfcHl0aG9uJywgJy1waHQnLCAnMi4wJywgJy1waCcsICc3LjAnLCAnLXRuJywgJzgnLCAnLW1hJywgJzIwMCcsICctaW1hZScsICc8aW5maWxlLm1hZT4nLCAnLW9tYWUnLCAnPG91dGZpbGUubWFlPic=

>  <r_epik_Ionization_Penalty>  (167) 
1.42826

>  <r_epik_Ionization_Penalty_Charging>  (167) 
1.42821

>  <r_epik_Ionization_Penalty_Neutral>  (167) 
5.1683e-05

>  <r_epik_State_Penalty>  (167) 
1.51258

>  <r_epik_Charging_Adjusted_Penalty>  (167) 
2.94079

>  <i_epik_Tot_Q>  (167) 
0

>  <i_epik_Tot_abs_Q>  (167) 
0

>  <s_lp_Force_Field>  (167) 
OPLS3e

>  <r_lp_Energy>  (167) 
20.4811

>  <b_lp_Chiralities_Consistent>  (167) 
1

>  <s_lp_Variant>  (167) 
41:0-3

>  <s_i_glide_gridfile>  (167) 
pfpi4k_grid

>  <i_i_glide_lignum>  (167) 
25

>  <i_i_glide_rotatable_bonds>  (167) 
2

>  <r_i_docking_score>  (167) 
-2.80906

>  <r_i_glide_ligand_efficiency>  (167) 
-0.187271

>  <r_i_glide_ligand_efficiency_sa>  (167) 
-0.46185

>  <r_i_glide_ligand_efficiency_ln>  (167) 
-0.757558

>  <r_i_glide_gscore>  (167) 
-2.80906

>  <r_i_glide_lipo>  (167) 
-0.135605

>  <r_i_glide_hbond>  (167) 
0

>  <r_i_glide_metal>  (167) 
-0

>  <r_i_glide_rewards>  (167) 
-1.88633

>  <r_i_glide_evdw>  (167) 
-17.5951

>  <r_i_glide_ecoul>  (167) 
-1.50228

>  <r_i_glide_erotb>  (167) 
0.339269

>  <r_i_glide_esite>  (167) 
-0.0213057

>  <r_i_glide_emodel>  (167) 
-22.3149

>  <r_i_glide_energy>  (167) 
-19.0973

>  <r_i_glide_einternal>  (167) 
0.360922

>  <r_i_glide_intrahb_reward>  (167) 
-0

>  <i_i_glide_confnum>  (167) 
6

>  <i_i_glide_posenum>  (167) 
6

>  <r_i_glide_eff_state_penalty>  (167) 
0

>  <ligand_id>  (167) 
41

>  <original_smiles>  (167) 
CC=Cc1nn(C)c(=NC2CCCC2)s1

>  <smiles>  (167) 
[H]C(=C([H])C([H])([H])[H])c1nn(C([H])([H])[H])c(=NC2([H])C([H])([H])C([H])([H])C([H])([H])C2([H])[H])s1

$$$$
41:2:1
     RDKit          3D

 32 33  0  0  1  0  0  0  0  0999 V2000
    2.8683   -0.2786    1.2705 C   0  0  0  0  0  0  0  0  0  0  0  0
    1.6010    0.4390    1.6604 C   0  0  0  0  0  0  0  0  0  0  0  0
    1.2906    0.7221    2.9397 C   0  0  0  0  0  0  0  0  0  0  0  0
    0.0951    1.4120    3.3279 C   0  0  0  0  0  0  0  0  0  0  0  0
   -0.8895    1.7544    2.5651 N   0  0  0  0  0  0  0  0  0  0  0  0
   -1.8166    2.4170    3.2645 N   0  0  0  0  0  0  0  0  0  0  0  0
   -2.9690    2.9421    2.5360 C   0  0  0  0  0  0  0  0  0  0  0  0
   -1.6299    2.6520    4.6278 C   0  0  0  0  0  0  0  0  0  0  0  0
   -2.4226    3.2993    5.4233 N   0  0  0  0  0  0  0  0  0  0  0  0
   -2.0981    3.4626    6.8378 C   0  0  0  0  0  0  0  0  0  0  0  0
   -0.8077    4.2769    7.0927 C   0  0  0  0  0  0  0  0  0  0  0  0
   -0.3614    3.8026    8.4736 C   0  0  0  0  0  0  0  0  0  0  0  0
   -0.9388    2.3891    8.6919 C   0  0  0  0  0  0  0  0  0  0  0  0
   -2.0025    2.1275    7.6190 C   0  0  0  0  0  0  0  0  0  0  0  0
   -0.0693    1.8627    5.0175 S   0  0  0  0  0  0  0  0  0  0  0  0
    3.4729    0.3536    0.6198 H   0  0  0  0  0  0  0  0  0  0  0  0
    2.6173   -1.1968    0.7374 H   0  0  0  0  0  0  0  0  0  0  0  0
    3.4680   -0.5410    2.1467 H   0  0  0  0  0  0  0  0  0  0  0  0
    0.9286    0.7305    0.8723 H   0  0  0  0  0  0  0  0  0  0  0  0
    1.9714    0.4371    3.7140 H   0  0  0  0  0  0  0  0  0  0  0  0
   -3.8730    2.9731    3.1523 H   0  0  0  0  0  0  0  0  0  0  0  0
   -3.1814    2.3249    1.6707 H   0  0  0  0  0  0  0  0  0  0  0  0
   -2.7545    3.9645    2.2008 H   0  0  0  0  0  0  0  0  0  0  0  0
   -2.9198    4.0277    7.2865 H   0  0  0  0  0  0  0  0  0  0  0  0
   -0.0073    4.0591    6.3909 H   0  0  0  0  0  0  0  0  0  0  0  0
   -0.9690    5.3611    7.0456 H   0  0  0  0  0  0  0  0  0  0  0  0
    0.7255    3.8070    8.5400 H   0  0  0  0  0  0  0  0  0  0  0  0
   -0.7388    4.4731    9.2463 H   0  0  0  0  0  0  0  0  0  0  0  0
   -0.1538    1.6396    8.6013 H   0  0  0  0  0  0  0  0  0  0  0  0
   -1.3548    2.2944    9.6943 H   0  0  0  0  0  0  0  0  0  0  0  0
   -2.9684    1.8282    8.0393 H   0  0  0  0  0  0  0  0  0  0  0  0
   -1.6725    1.2887    7.0097 H   0  0  0  0  0  0  0  0  0  0  0  0
  1  2  1  0
  1 16  1  0
  1 17  1  0
  1 18  1  0
  2  3  2  3
  2 19  1  0
  3  4  1  0
  3 20  1  0
  4 15  1  0
  4  5  2  0
  5  6  1  0
  6  7  1  0
  6  8  1  0
  7 21  1  0
  7 22  1  0
  7 23  1  0
  8  9  2  3
  8 15  1  0
  9 10  1  0
 10 14  1  0
 10 11  1  0
 10 24  1  0
 11 12  1  0
 11 25  1  0
 11 26  1  0
 12 13  1  0
 12 27  1  0
 12 28  1  0
 13 14  1  0
 13 29  1  0
 13 30  1  0
 14 31  1  0
 14 32  1  0
M  END
>  <i_m_ct_stereo_status>  (168) 
1

>  <s_m_source_file>  (168) 
/var/tmp/pbs.5076255.sched01/tmpguie9axe/40t6mruo9t.sdf

>  <i_m_source_file_index>  (168) 
25

>  <i_lp_mmshare_version>  (168) 
48012

>  <i_f3d_flags>  (168) 
0

>  <s_epik_input>  (168) 
W0NIM10vW0NIXT1bQ0hdL2Mxbm4oW0NIM10pL2MoczEpPU4vW0NIXTJbQ0gyXVtDSDJdW0NIMl1bQ0gyXTI=

>  <s_epik_cmdline>  (168) 
J2VwaWtfcHl0aG9uJywgJy1waHQnLCAnMi4wJywgJy1waCcsICc3LjAnLCAnLXRuJywgJzgnLCAnLW1hJywgJzIwMCcsICctaW1hZScsICc8aW5maWxlLm1hZT4nLCAnLW9tYWUnLCAnPG91dGZpbGUubWFlPic=

>  <r_epik_Ionization_Penalty>  (168) 
1.42826

>  <r_epik_Ionization_Penalty_Charging>  (168) 
1.42821

>  <r_epik_Ionization_Penalty_Neutral>  (168) 
5.1683e-05

>  <r_epik_State_Penalty>  (168) 
1.51258

>  <r_epik_Charging_Adjusted_Penalty>  (168) 
2.94079

>  <i_epik_Tot_Q>  (168) 
0

>  <i_epik_Tot_abs_Q>  (168) 
0

>  <s_lp_Force_Field>  (168) 
OPLS3e

>  <r_lp_Energy>  (168) 
20.4811

>  <b_lp_Chiralities_Consistent>  (168) 
1

>  <s_lp_Variant>  (168) 
41:0-3

>  <s_i_glide_gridfile>  (168) 
pfpi4k_grid

>  <i_i_glide_lignum>  (168) 
25

>  <i_i_glide_rotatable_bonds>  (168) 
2

>  <r_i_docking_score>  (168) 
-2.65217

>  <r_i_glide_ligand_efficiency>  (168) 
-0.176811

>  <r_i_glide_ligand_efficiency_sa>  (168) 
-0.436054

>  <r_i_glide_ligand_efficiency_ln>  (168) 
-0.715246

>  <r_i_glide_gscore>  (168) 
-2.65217

>  <r_i_glide_lipo>  (168) 
-0.0900692

>  <r_i_glide_hbond>  (168) 
0

>  <r_i_glide_metal>  (168) 
-0

>  <r_i_glide_rewards>  (168) 
-1.88633

>  <r_i_glide_evdw>  (168) 
-18.924

>  <r_i_glide_ecoul>  (168) 
-0.223099

>  <r_i_glide_erotb>  (168) 
0.339269

>  <r_i_glide_esite>  (168) 
-0.0353768

>  <r_i_glide_emodel>  (168) 
-15.1407

>  <r_i_glide_energy>  (168) 
-19.1471

>  <r_i_glide_einternal>  (168) 
13.3277

>  <r_i_glide_intrahb_reward>  (168) 
-0

>  <i_i_glide_confnum>  (168) 
1

>  <i_i_glide_posenum>  (168) 
36

>  <r_i_glide_eff_state_penalty>  (168) 
0

>  <ligand_id>  (168) 
41

>  <original_smiles>  (168) 
CC=Cc1nn(C)c(=NC2CCCC2)s1

>  <smiles>  (168) 
[H]C(=C([H])C([H])([H])[H])c1nn(C([H])([H])[H])c(=NC2([H])C([H])([H])C([H])([H])C([H])([H])C2([H])[H])s1

$$$$
41:2:2
     RDKit          3D

 32 33  0  0  1  0  0  0  0  0999 V2000
    3.2673   -0.1529    1.1253 C   0  0  0  0  0  0  0  0  0  0  0  0
    2.0033    0.4782    1.6819 C   0  0  0  0  0  0  0  0  0  0  0  0
    1.7876    0.6442    2.9987 C   0  0  0  0  0  0  0  0  0  0  0  0
    0.5894    1.2600    3.5424 C   0  0  0  0  0  0  0  0  0  0  0  0
   -0.4492    1.6306    2.8800 N   0  0  0  0  0  0  0  0  0  0  0  0
   -1.3759    2.1759    3.6680 N   0  0  0  0  0  0  0  0  0  0  0  0
   -2.5552    2.7275    3.0057 C   0  0  0  0  0  0  0  0  0  0  0  0
   -1.1361    2.2849    5.0323 C   0  0  0  0  0  0  0  0  0  0  0  0
   -1.9519    2.8208    5.8845 N   0  0  0  0  0  0  0  0  0  0  0  0
   -1.5529    2.9046    7.2866 C   0  0  0  0  0  0  0  0  0  0  0  0
   -2.7631    3.2375    8.1656 C   0  0  0  0  0  0  0  0  0  0  0  0
   -2.1810    3.8650    9.4300 C   0  0  0  0  0  0  0  0  0  0  0  0
   -0.8876    4.5582    8.9917 C   0  0  0  0  0  0  0  0  0  0  0  0
   -0.5779    4.0665    7.5693 C   0  0  0  0  0  0  0  0  0  0  0  0
    0.4879    1.5519    5.2920 S   0  0  0  0  0  0  0  0  0  0  0  0
    3.8077    0.5466    0.4903 H   0  0  0  0  0  0  0  0  0  0  0  0
    3.0181   -1.0294    0.5295 H   0  0  0  0  0  0  0  0  0  0  0  0
    3.9422   -0.4649    1.9227 H   0  0  0  0  0  0  0  0  0  0  0  0
    1.2722    0.7944    0.9494 H   0  0  0  0  0  0  0  0  0  0  0  0
    2.5443    0.3165    3.6975 H   0  0  0  0  0  0  0  0  0  0  0  0
   -3.4354    2.6655    3.6477 H   0  0  0  0  0  0  0  0  0  0  0  0
   -2.7740    2.1853    2.0849 H   0  0  0  0  0  0  0  0  0  0  0  0
   -2.3818    3.7740    2.7547 H   0  0  0  0  0  0  0  0  0  0  0  0
   -1.1192    1.9667    7.6489 H   0  0  0  0  0  0  0  0  0  0  0  0
   -3.3834    3.9718    7.6682 H   0  0  0  0  0  0  0  0  0  0  0  0
   -3.3791    2.3657    8.3792 H   0  0  0  0  0  0  0  0  0  0  0  0
   -2.8826    4.5558    9.8943 H   0  0  0  0  0  0  0  0  0  0  0  0
   -1.9575    3.0938   10.1664 H   0  0  0  0  0  0  0  0  0  0  0  0
   -1.0062    5.6402    8.9949 H   0  0  0  0  0  0  0  0  0  0  0  0
   -0.0810    4.3257    9.6857 H   0  0  0  0  0  0  0  0  0  0  0  0
    0.4653    3.7625    7.4680 H   0  0  0  0  0  0  0  0  0  0  0  0
   -0.7493    4.8827    6.8672 H   0  0  0  0  0  0  0  0  0  0  0  0
  1  2  1  0
  1 16  1  0
  1 17  1  0
  1 18  1  0
  2  3  2  3
  2 19  1  0
  3  4  1  0
  3 20  1  0
  4 15  1  0
  4  5  2  0
  5  6  1  0
  6  7  1  0
  6  8  1  0
  7 21  1  0
  7 22  1  0
  7 23  1  0
  8  9  2  3
  8 15  1  0
  9 10  1  0
 10 14  1  0
 10 11  1  0
 10 24  1  0
 11 12  1  0
 11 25  1  0
 11 26  1  0
 12 13  1  0
 12 27  1  0
 12 28  1  0
 13 14  1  0
 13 29  1  0
 13 30  1  0
 14 31  1  0
 14 32  1  0
M  END
>  <i_m_ct_stereo_status>  (169) 
1

>  <s_m_source_file>  (169) 
/var/tmp/pbs.5076255.sched01/tmpguie9axe/40t6mruo9t.sdf

>  <i_m_source_file_index>  (169) 
25

>  <i_lp_mmshare_version>  (169) 
48012

>  <i_f3d_flags>  (169) 
0

>  <s_epik_input>  (169) 
W0NIM10vW0NIXT1bQ0hdL2Mxbm4oW0NIM10pL2MoczEpPU4vW0NIXTJbQ0gyXVtDSDJdW0NIMl1bQ0gyXTI=

>  <s_epik_cmdline>  (169) 
J2VwaWtfcHl0aG9uJywgJy1waHQnLCAnMi4wJywgJy1waCcsICc3LjAnLCAnLXRuJywgJzgnLCAnLW1hJywgJzIwMCcsICctaW1hZScsICc8aW5maWxlLm1hZT4nLCAnLW9tYWUnLCAnPG91dGZpbGUubWFlPic=

>  <r_epik_Ionization_Penalty>  (169) 
1.42826

>  <r_epik_Ionization_Penalty_Charging>  (169) 
1.42821

>  <r_epik_Ionization_Penalty_Neutral>  (169) 
5.1683e-05

>  <r_epik_State_Penalty>  (169) 
1.51258

>  <r_epik_Charging_Adjusted_Penalty>  (169) 
2.94079

>  <i_epik_Tot_Q>  (169) 
0

>  <i_epik_Tot_abs_Q>  (169) 
0

>  <s_lp_Force_Field>  (169) 
OPLS3e

>  <r_lp_Energy>  (169) 
20.4811

>  <b_lp_Chiralities_Consistent>  (169) 
1

>  <s_lp_Variant>  (169) 
41:0-3

>  <s_i_glide_gridfile>  (169) 
pfpi4k_grid

>  <i_i_glide_lignum>  (169) 
25

>  <i_i_glide_rotatable_bonds>  (169) 
2

>  <r_i_docking_score>  (169) 
-2.64567

>  <r_i_glide_ligand_efficiency>  (169) 
-0.176378

>  <r_i_glide_ligand_efficiency_sa>  (169) 
-0.434985

>  <r_i_glide_ligand_efficiency_ln>  (169) 
-0.713493

>  <r_i_glide_gscore>  (169) 
-2.64567

>  <r_i_glide_lipo>  (169) 
-0.138556

>  <r_i_glide_hbond>  (169) 
0

>  <r_i_glide_metal>  (169) 
-0

>  <r_i_glide_rewards>  (169) 
-1.88633

>  <r_i_glide_evdw>  (169) 
-17.5255

>  <r_i_glide_ecoul>  (169) 
-0.334122

>  <r_i_glide_erotb>  (169) 
0.339269

>  <r_i_glide_esite>  (169) 
-0.033664

>  <r_i_glide_emodel>  (169) 
-20.9801

>  <r_i_glide_energy>  (169) 
-17.8596

>  <r_i_glide_einternal>  (169) 
0.045848

>  <r_i_glide_intrahb_reward>  (169) 
-0

>  <i_i_glide_confnum>  (169) 
1

>  <i_i_glide_posenum>  (169) 
2

>  <r_i_glide_eff_state_penalty>  (169) 
0

>  <ligand_id>  (169) 
41

>  <original_smiles>  (169) 
CC=Cc1nn(C)c(=NC2CCCC2)s1

>  <smiles>  (169) 
[H]C(=C([H])C([H])([H])[H])c1nn(C([H])([H])[H])c(=NC2([H])C([H])([H])C([H])([H])C([H])([H])C2([H])[H])s1

$$$$
41:3:0
     RDKit          3D

 32 33  0  0  1  0  0  0  0  0999 V2000
   -7.8920   -4.6721   -5.1502 C   0  0  0  0  0  0  0  0  0  0  0  0
   -6.7853   -5.3894   -4.4130 C   0  0  0  0  0  0  0  0  0  0  0  0
   -6.1630   -6.5413   -4.7345 C   0  0  0  0  0  0  0  0  0  0  0  0
   -6.4151   -7.3580   -5.9060 C   0  0  0  0  0  0  0  0  0  0  0  0
   -7.0256   -7.0241   -6.9816 N   0  0  0  0  0  0  0  0  0  0  0  0
   -7.0409   -8.0351   -7.8677 N   0  0  0  0  0  0  0  0  0  0  0  0
   -7.6936   -7.7904   -9.1559 C   0  0  0  0  0  0  0  0  0  0  0  0
   -6.4346   -9.2359   -7.5341 C   0  0  0  0  0  0  0  0  0  0  0  0
   -6.3799  -10.2959   -8.2877 N   0  0  0  0  0  0  0  0  0  0  0  0
   -5.7181  -11.4979   -7.8215 C   0  0  0  0  0  0  0  0  0  0  0  0
   -6.3897  -12.1485   -6.5929 C   0  0  0  0  0  0  0  0  0  0  0  0
   -5.2597  -12.9506   -5.9389 C   0  0  0  0  0  0  0  0  0  0  0  0
   -3.9303  -12.2982   -6.3504 C   0  0  0  0  0  0  0  0  0  0  0  0
   -4.2108  -11.3288   -7.5046 C   0  0  0  0  0  0  0  0  0  0  0  0
   -5.7649   -8.9970   -5.8958 S   0  0  0  0  0  0  0  0  0  0  0  0
   -8.6519   -4.3730   -4.4302 H   0  0  0  0  0  0  0  0  0  0  0  0
   -8.3908   -5.2678   -5.9130 H   0  0  0  0  0  0  0  0  0  0  0  0
   -7.4799   -3.7833   -5.6178 H   0  0  0  0  0  0  0  0  0  0  0  0
   -6.4594   -4.9066   -3.5062 H   0  0  0  0  0  0  0  0  0  0  0  0
   -5.4156   -6.9082   -4.0605 H   0  0  0  0  0  0  0  0  0  0  0  0
   -6.9845   -7.9233   -9.9721 H   0  0  0  0  0  0  0  0  0  0  0  0
   -8.0923   -6.7799   -9.2037 H   0  0  0  0  0  0  0  0  0  0  0  0
   -8.5125   -8.4937   -9.2969 H   0  0  0  0  0  0  0  0  0  0  0  0
   -5.7802  -12.2286   -8.6258 H   0  0  0  0  0  0  0  0  0  0  0  0
   -6.7490  -11.4212   -5.8669 H   0  0  0  0  0  0  0  0  0  0  0  0
   -7.2592  -12.7670   -6.8554 H   0  0  0  0  0  0  0  0  0  0  0  0
   -5.3861  -12.9620   -4.8574 H   0  0  0  0  0  0  0  0  0  0  0  0
   -5.2824  -13.9812   -6.2911 H   0  0  0  0  0  0  0  0  0  0  0  0
   -3.5001  -11.7336   -5.5237 H   0  0  0  0  0  0  0  0  0  0  0  0
   -3.1981  -13.0507   -6.6359 H   0  0  0  0  0  0  0  0  0  0  0  0
   -3.5633  -11.5166   -8.3696 H   0  0  0  0  0  0  0  0  0  0  0  0
   -3.9485  -10.3347   -7.1449 H   0  0  0  0  0  0  0  0  0  0  0  0
  1  2  1  0
  1 16  1  0
  1 17  1  0
  1 18  1  0
  2  3  2  3
  2 19  1  0
  3  4  1  0
  3 20  1  0
  4 15  1  0
  4  5  2  0
  5  6  1  0
  6  7  1  0
  6  8  1  0
  7 21  1  0
  7 22  1  0
  7 23  1  0
  8  9  2  3
  8 15  1  0
  9 10  1  0
 10 14  1  0
 10 11  1  0
 10 24  1  0
 11 12  1  0
 11 25  1  0
 11 26  1  0
 12 13  1  0
 12 27  1  0
 12 28  1  0
 13 14  1  0
 13 29  1  0
 13 30  1  0
 14 31  1  0
 14 32  1  0
M  END
>  <i_m_ct_stereo_status>  (170) 
1

>  <s_m_source_file>  (170) 
/var/tmp/pbs.5076255.sched01/tmpguie9axe/40t6mruo9t.sdf

>  <i_m_source_file_index>  (170) 
26

>  <i_lp_mmshare_version>  (170) 
48012

>  <i_f3d_flags>  (170) 
0

>  <s_epik_input>  (170) 
W0NIM10vW0NIXT1bQ0hdL2Mxbm4oW0NIM10pL2MoczEpPU4vW0NIXTJbQ0gyXVtDSDJdW0NIMl1bQ0gyXTI=

>  <s_epik_cmdline>  (170) 
J2VwaWtfcHl0aG9uJywgJy1waHQnLCAnMi4wJywgJy1waCcsICc3LjAnLCAnLXRuJywgJzgnLCAnLW1hJywgJzIwMCcsICctaW1hZScsICc8aW5maWxlLm1hZT4nLCAnLW9tYWUnLCAnPG91dGZpbGUubWFlPic=

>  <r_epik_Ionization_Penalty>  (170) 
1.42826

>  <r_epik_Ionization_Penalty_Charging>  (170) 
1.42821

>  <r_epik_Ionization_Penalty_Neutral>  (170) 
5.1683e-05

>  <r_epik_State_Penalty>  (170) 
1.51258

>  <r_epik_Charging_Adjusted_Penalty>  (170) 
2.94079

>  <i_epik_Tot_Q>  (170) 
0

>  <i_epik_Tot_abs_Q>  (170) 
0

>  <s_lp_Force_Field>  (170) 
OPLS3e

>  <r_lp_Energy>  (170) 
23.6663

>  <b_lp_Chiralities_Consistent>  (170) 
1

>  <s_lp_Variant>  (170) 
41:0-4

>  <s_i_glide_gridfile>  (170) 
pfpi4k_grid

>  <i_i_glide_lignum>  (170) 
26

>  <i_i_glide_rotatable_bonds>  (170) 
2

>  <r_i_docking_score>  (170) 
-5.28306

>  <r_i_glide_ligand_efficiency>  (170) 
-0.352204

>  <r_i_glide_ligand_efficiency_sa>  (170) 
-0.86861

>  <r_i_glide_ligand_efficiency_ln>  (170) 
-1.42475

>  <r_i_glide_gscore>  (170) 
-5.28306

>  <r_i_glide_lipo>  (170) 
-2.03125

>  <r_i_glide_hbond>  (170) 
0

>  <r_i_glide_metal>  (170) 
-0

>  <r_i_glide_rewards>  (170) 
-2.34361

>  <r_i_glide_evdw>  (170) 
-24.5873

>  <r_i_glide_ecoul>  (170) 
-0.1207

>  <r_i_glide_erotb>  (170) 
0.339269

>  <r_i_glide_esite>  (170) 
0

>  <r_i_glide_emodel>  (170) 
-25.4712

>  <r_i_glide_energy>  (170) 
-24.708

>  <r_i_glide_einternal>  (170) 
13.3355

>  <r_i_glide_intrahb_reward>  (170) 
-0

>  <i_i_glide_confnum>  (170) 
2

>  <i_i_glide_posenum>  (170) 
31

>  <r_i_glide_eff_state_penalty>  (170) 
0

>  <ligand_id>  (170) 
41

>  <original_smiles>  (170) 
CC=Cc1nn(C)c(=NC2CCCC2)s1

>  <smiles>  (170) 
[H]C(=C([H])C([H])([H])[H])c1nn(C([H])([H])[H])c(=NC2([H])C([H])([H])C([H])([H])C([H])([H])C2([H])[H])s1

$$$$
41:3:1
     RDKit          3D

 32 33  0  0  1  0  0  0  0  0999 V2000
   -0.5289   -7.0440    3.1200 C   0  0  0  0  0  0  0  0  0  0  0  0
    0.2561   -7.9656    2.2043 C   0  0  0  0  0  0  0  0  0  0  0  0
    1.4337   -7.7846    1.5623 C   0  0  0  0  0  0  0  0  0  0  0  0
    2.2838   -6.6077    1.6076 C   0  0  0  0  0  0  0  0  0  0  0  0
    1.9842   -5.4649    2.1125 N   0  0  0  0  0  0  0  0  0  0  0  0
    2.9684   -4.5795    1.9948 N   0  0  0  0  0  0  0  0  0  0  0  0
    2.7379   -3.2569    2.5619 C   0  0  0  0  0  0  0  0  0  0  0  0
    4.1468   -4.9583    1.3658 C   0  0  0  0  0  0  0  0  0  0  0  0
    5.1669   -4.1787    1.2046 N   0  0  0  0  0  0  0  0  0  0  0  0
    6.3521   -4.7128    0.5509 C   0  0  0  0  0  0  0  0  0  0  0  0
    7.2358   -5.5307    1.5020 C   0  0  0  0  0  0  0  0  0  0  0  0
    8.6398   -5.4496    0.9016 C   0  0  0  0  0  0  0  0  0  0  0  0
    8.7091   -4.1004    0.1778 C   0  0  0  0  0  0  0  0  0  0  0  0
    7.2712   -3.5712    0.0953 C   0  0  0  0  0  0  0  0  0  0  0  0
    3.9071   -6.6752    0.8806 S   0  0  0  0  0  0  0  0  0  0  0  0
   -1.5805   -7.0612    2.8331 H   0  0  0  0  0  0  0  0  0  0  0  0
   -0.1889   -6.0146    3.1117 H   0  0  0  0  0  0  0  0  0  0  0  0
   -0.4636   -7.4041    4.1460 H   0  0  0  0  0  0  0  0  0  0  0  0
   -0.2109   -8.9298    2.0659 H   0  0  0  0  0  0  0  0  0  0  0  0
    1.7878   -8.6155    0.9665 H   0  0  0  0  0  0  0  0  0  0  0  0
    3.4780   -3.0383    3.3338 H   0  0  0  0  0  0  0  0  0  0  0  0
    1.7469   -3.1793    3.0119 H   0  0  0  0  0  0  0  0  0  0  0  0
    2.8186   -2.4948    1.7853 H   0  0  0  0  0  0  0  0  0  0  0  0
    6.1007   -5.3249   -0.3186 H   0  0  0  0  0  0  0  0  0  0  0  0
    7.2386   -5.0697    2.4882 H   0  0  0  0  0  0  0  0  0  0  0  0
    6.9011   -6.5625    1.6149 H   0  0  0  0  0  0  0  0  0  0  0  0
    9.4061   -5.5501    1.6690 H   0  0  0  0  0  0  0  0  0  0  0  0
    8.7926   -6.2583    0.1867 H   0  0  0  0  0  0  0  0  0  0  0  0
    9.3290   -3.3928    0.7272 H   0  0  0  0  0  0  0  0  0  0  0  0
    9.1479   -4.2106   -0.8135 H   0  0  0  0  0  0  0  0  0  0  0  0
    7.0201   -3.2210   -0.9069 H   0  0  0  0  0  0  0  0  0  0  0  0
    7.1710   -2.7227    0.7724 H   0  0  0  0  0  0  0  0  0  0  0  0
  1  2  1  0
  1 16  1  0
  1 17  1  0
  1 18  1  0
  2  3  2  3
  2 19  1  0
  3  4  1  0
  3 20  1  0
  4 15  1  0
  4  5  2  0
  5  6  1  0
  6  7  1  0
  6  8  1  0
  7 21  1  0
  7 22  1  0
  7 23  1  0
  8  9  2  3
  8 15  1  0
  9 10  1  0
 10 14  1  0
 10 11  1  0
 10 24  1  0
 11 12  1  0
 11 25  1  0
 11 26  1  0
 12 13  1  0
 12 27  1  0
 12 28  1  0
 13 14  1  0
 13 29  1  0
 13 30  1  0
 14 31  1  0
 14 32  1  0
M  END
>  <i_m_ct_stereo_status>  (171) 
1

>  <s_m_source_file>  (171) 
/var/tmp/pbs.5076255.sched01/tmpguie9axe/40t6mruo9t.sdf

>  <i_m_source_file_index>  (171) 
26

>  <i_lp_mmshare_version>  (171) 
48012

>  <i_f3d_flags>  (171) 
0

>  <s_epik_input>  (171) 
W0NIM10vW0NIXT1bQ0hdL2Mxbm4oW0NIM10pL2MoczEpPU4vW0NIXTJbQ0gyXVtDSDJdW0NIMl1bQ0gyXTI=

>  <s_epik_cmdline>  (171) 
J2VwaWtfcHl0aG9uJywgJy1waHQnLCAnMi4wJywgJy1waCcsICc3LjAnLCAnLXRuJywgJzgnLCAnLW1hJywgJzIwMCcsICctaW1hZScsICc8aW5maWxlLm1hZT4nLCAnLW9tYWUnLCAnPG91dGZpbGUubWFlPic=

>  <r_epik_Ionization_Penalty>  (171) 
1.42826

>  <r_epik_Ionization_Penalty_Charging>  (171) 
1.42821

>  <r_epik_Ionization_Penalty_Neutral>  (171) 
5.1683e-05

>  <r_epik_State_Penalty>  (171) 
1.51258

>  <r_epik_Charging_Adjusted_Penalty>  (171) 
2.94079

>  <i_epik_Tot_Q>  (171) 
0

>  <i_epik_Tot_abs_Q>  (171) 
0

>  <s_lp_Force_Field>  (171) 
OPLS3e

>  <r_lp_Energy>  (171) 
23.6663

>  <b_lp_Chiralities_Consistent>  (171) 
1

>  <s_lp_Variant>  (171) 
41:0-4

>  <s_i_glide_gridfile>  (171) 
pfpi4k_grid

>  <i_i_glide_lignum>  (171) 
26

>  <i_i_glide_rotatable_bonds>  (171) 
2

>  <r_i_docking_score>  (171) 
-2.98789

>  <r_i_glide_ligand_efficiency>  (171) 
-0.199193

>  <r_i_glide_ligand_efficiency_sa>  (171) 
-0.491252

>  <r_i_glide_ligand_efficiency_ln>  (171) 
-0.805785

>  <r_i_glide_gscore>  (171) 
-2.98789

>  <r_i_glide_lipo>  (171) 
-0.472276

>  <r_i_glide_hbond>  (171) 
0

>  <r_i_glide_metal>  (171) 
-0

>  <r_i_glide_rewards>  (171) 
-1.88633

>  <r_i_glide_evdw>  (171) 
-18.0303

>  <r_i_glide_ecoul>  (171) 
-0.426611

>  <r_i_glide_erotb>  (171) 
0.339269

>  <r_i_glide_esite>  (171) 
-0.00305128

>  <r_i_glide_emodel>  (171) 
-22.8387

>  <r_i_glide_energy>  (171) 
-18.4569

>  <r_i_glide_einternal>  (171) 
0.198268

>  <r_i_glide_intrahb_reward>  (171) 
-0

>  <i_i_glide_confnum>  (171) 
1

>  <i_i_glide_posenum>  (171) 
25

>  <r_i_glide_eff_state_penalty>  (171) 
0

>  <ligand_id>  (171) 
41

>  <original_smiles>  (171) 
CC=Cc1nn(C)c(=NC2CCCC2)s1

>  <smiles>  (171) 
[H]C(=C([H])C([H])([H])[H])c1nn(C([H])([H])[H])c(=NC2([H])C([H])([H])C([H])([H])C([H])([H])C2([H])[H])s1

$$$$
41:3:2
     RDKit          3D

 32 33  0  0  1  0  0  0  0  0999 V2000
   -1.9426   -7.6253    3.7794 C   0  0  0  0  0  0  0  0  0  0  0  0
   -1.2629   -8.8048    3.1091 C   0  0  0  0  0  0  0  0  0  0  0  0
   -0.0565   -8.9047    2.5072 C   0  0  0  0  0  0  0  0  0  0  0  0
    0.9359   -7.8567    2.3669 C   0  0  0  0  0  0  0  0  0  0  0  0
    0.7801   -6.6087    2.6327 N   0  0  0  0  0  0  0  0  0  0  0  0
    1.8792   -5.8962    2.4026 N   0  0  0  0  0  0  0  0  0  0  0  0
    1.8210   -4.4716    2.7102 C   0  0  0  0  0  0  0  0  0  0  0  0
    3.0081   -6.5392    1.9131 C   0  0  0  0  0  0  0  0  0  0  0  0
    4.1276   -5.9417    1.6602 N   0  0  0  0  0  0  0  0  0  0  0  0
    5.2498   -6.7354    1.1809 C   0  0  0  0  0  0  0  0  0  0  0  0
    5.8942   -7.5919    2.2828 C   0  0  0  0  0  0  0  0  0  0  0  0
    7.3321   -7.8170    1.8182 C   0  0  0  0  0  0  0  0  0  0  0  0
    7.7056   -6.5802    0.9985 C   0  0  0  0  0  0  0  0  0  0  0  0
    6.3963   -5.8189    0.7303 C   0  0  0  0  0  0  0  0  0  0  0  0
    2.5476   -8.2740    1.7465 S   0  0  0  0  0  0  0  0  0  0  0  0
   -2.9778   -7.5781    3.4475 H   0  0  0  0  0  0  0  0  0  0  0  0
   -1.4955   -6.6591    3.5776 H   0  0  0  0  0  0  0  0  0  0  0  0
   -1.9419   -7.7774    4.8573 H   0  0  0  0  0  0  0  0  0  0  0  0
   -1.8468   -9.7127    3.1432 H   0  0  0  0  0  0  0  0  0  0  0  0
    0.2074   -9.8729    2.1027 H   0  0  0  0  0  0  0  0  0  0  0  0
    2.5662   -4.2056    3.4617 H   0  0  0  0  0  0  0  0  0  0  0  0
    0.8419   -4.1810    3.0933 H   0  0  0  0  0  0  0  0  0  0  0  0
    2.0236   -3.8856    1.8129 H   0  0  0  0  0  0  0  0  0  0  0  0
    4.9637   -7.3700    0.3376 H   0  0  0  0  0  0  0  0  0  0  0  0
    5.8993   -7.0415    3.2231 H   0  0  0  0  0  0  0  0  0  0  0  0
    5.3752   -8.5360    2.4496 H   0  0  0  0  0  0  0  0  0  0  0  0
    8.0089   -7.9744    2.6559 H   0  0  0  0  0  0  0  0  0  0  0  0
    7.3887   -8.7019    1.1856 H   0  0  0  0  0  0  0  0  0  0  0  0
    8.3998   -5.9478    1.5501 H   0  0  0  0  0  0  0  0  0  0  0  0
    8.2121   -6.8719    0.0790 H   0  0  0  0  0  0  0  0  0  0  0  0
    6.2825   -5.5221   -0.3129 H   0  0  0  0  0  0  0  0  0  0  0  0
    6.4006   -4.9041    1.3234 H   0  0  0  0  0  0  0  0  0  0  0  0
  1  2  1  0
  1 16  1  0
  1 17  1  0
  1 18  1  0
  2  3  2  3
  2 19  1  0
  3  4  1  0
  3 20  1  0
  4 15  1  0
  4  5  2  0
  5  6  1  0
  6  7  1  0
  6  8  1  0
  7 21  1  0
  7 22  1  0
  7 23  1  0
  8  9  2  3
  8 15  1  0
  9 10  1  0
 10 14  1  0
 10 11  1  0
 10 24  1  0
 11 12  1  0
 11 25  1  0
 11 26  1  0
 12 13  1  0
 12 27  1  0
 12 28  1  0
 13 14  1  0
 13 29  1  0
 13 30  1  0
 14 31  1  0
 14 32  1  0
M  END
>  <i_m_ct_stereo_status>  (172) 
1

>  <s_m_source_file>  (172) 
/var/tmp/pbs.5076255.sched01/tmpguie9axe/40t6mruo9t.sdf

>  <i_m_source_file_index>  (172) 
26

>  <i_lp_mmshare_version>  (172) 
48012

>  <i_f3d_flags>  (172) 
0

>  <s_epik_input>  (172) 
W0NIM10vW0NIXT1bQ0hdL2Mxbm4oW0NIM10pL2MoczEpPU4vW0NIXTJbQ0gyXVtDSDJdW0NIMl1bQ0gyXTI=

>  <s_epik_cmdline>  (172) 
J2VwaWtfcHl0aG9uJywgJy1waHQnLCAnMi4wJywgJy1waCcsICc3LjAnLCAnLXRuJywgJzgnLCAnLW1hJywgJzIwMCcsICctaW1hZScsICc8aW5maWxlLm1hZT4nLCAnLW9tYWUnLCAnPG91dGZpbGUubWFlPic=

>  <r_epik_Ionization_Penalty>  (172) 
1.42826

>  <r_epik_Ionization_Penalty_Charging>  (172) 
1.42821

>  <r_epik_Ionization_Penalty_Neutral>  (172) 
5.1683e-05

>  <r_epik_State_Penalty>  (172) 
1.51258

>  <r_epik_Charging_Adjusted_Penalty>  (172) 
2.94079

>  <i_epik_Tot_Q>  (172) 
0

>  <i_epik_Tot_abs_Q>  (172) 
0

>  <s_lp_Force_Field>  (172) 
OPLS3e

>  <r_lp_Energy>  (172) 
23.6663

>  <b_lp_Chiralities_Consistent>  (172) 
1

>  <s_lp_Variant>  (172) 
41:0-4

>  <s_i_glide_gridfile>  (172) 
pfpi4k_grid

>  <i_i_glide_lignum>  (172) 
26

>  <i_i_glide_rotatable_bonds>  (172) 
2

>  <r_i_docking_score>  (172) 
-2.88394

>  <r_i_glide_ligand_efficiency>  (172) 
-0.192262

>  <r_i_glide_ligand_efficiency_sa>  (172) 
-0.47416

>  <r_i_glide_ligand_efficiency_ln>  (172) 
-0.77775

>  <r_i_glide_gscore>  (172) 
-2.88394

>  <r_i_glide_lipo>  (172) 
-0.247129

>  <r_i_glide_hbond>  (172) 
0

>  <r_i_glide_metal>  (172) 
-0

>  <r_i_glide_rewards>  (172) 
-1.88633

>  <r_i_glide_evdw>  (172) 
-18.5791

>  <r_i_glide_ecoul>  (172) 
-0.915726

>  <r_i_glide_erotb>  (172) 
0.339269

>  <r_i_glide_esite>  (172) 
-0.0234373

>  <r_i_glide_emodel>  (172) 
-23.6719

>  <r_i_glide_energy>  (172) 
-19.4948

>  <r_i_glide_einternal>  (172) 
0.27104

>  <r_i_glide_intrahb_reward>  (172) 
-0

>  <i_i_glide_confnum>  (172) 
1

>  <i_i_glide_posenum>  (172) 
5

>  <r_i_glide_eff_state_penalty>  (172) 
0

>  <ligand_id>  (172) 
41

>  <original_smiles>  (172) 
CC=Cc1nn(C)c(=NC2CCCC2)s1

>  <smiles>  (172) 
[H]C(=C([H])C([H])([H])[H])c1nn(C([H])([H])[H])c(=NC2([H])C([H])([H])C([H])([H])C([H])([H])C2([H])[H])s1

$$$$
41:4:0
     RDKit          3D

 32 33  0  0  1  0  0  0  0  0999 V2000
   -6.4146   -3.8635   -4.1772 C   0  0  0  0  0  0  0  0  0  0  0  0
   -6.5325   -5.1818   -4.8825 C   0  0  0  0  0  0  0  0  0  0  0  0
   -7.3063   -5.3925   -5.9618 C   0  0  0  0  0  0  0  0  0  0  0  0
   -7.3579   -6.6926   -6.5917 C   0  0  0  0  0  0  0  0  0  0  0  0
   -8.1673   -6.9569   -7.5600 N   0  0  0  0  0  0  0  0  0  0  0  0
   -8.0307   -8.1991   -8.0362 N   0  0  0  0  0  0  0  0  0  0  0  0
   -9.0575   -8.5569   -9.0289 C   0  0  0  0  0  0  0  0  0  0  0  0
   -7.0263   -9.0046   -7.4815 C   0  0  0  0  0  0  0  0  0  0  0  0
   -6.5627  -10.1817   -7.7915 N   0  0  0  0  0  0  0  0  0  0  0  0
   -6.9893  -10.9445   -8.9421 C   0  0  0  0  0  0  0  0  0  0  0  0
   -8.3089  -11.6992   -8.6845 C   0  0  0  0  0  0  0  0  0  0  0  0
   -7.9103  -13.0410   -8.1092 C   0  0  0  0  0  0  0  0  0  0  0  0
   -6.6147  -13.4010   -8.8213 C   0  0  0  0  0  0  0  0  0  0  0  0
   -5.9422  -12.0635   -9.1676 C   0  0  0  0  0  0  0  0  0  0  0  0
   -6.3092   -8.0488   -6.1370 S   0  0  0  0  0  0  0  0  0  0  0  0
   -5.3856   -3.5196   -4.1758 H   0  0  0  0  0  0  0  0  0  0  0  0
   -6.7404   -3.9773   -3.1454 H   0  0  0  0  0  0  0  0  0  0  0  0
   -7.0289   -3.1213   -4.6859 H   0  0  0  0  0  0  0  0  0  0  0  0
   -5.9438   -5.9803   -4.4600 H   0  0  0  0  0  0  0  0  0  0  0  0
   -7.9034   -4.5887   -6.3692 H   0  0  0  0  0  0  0  0  0  0  0  0
   -8.6582   -8.4829  -10.0459 H   0  0  0  0  0  0  0  0  0  0  0  0
   -9.8845   -7.8352   -8.9880 H   0  0  0  0  0  0  0  0  0  0  0  0
   -9.5005   -9.5322   -8.8779 H   0  0  0  0  0  0  0  0  0  0  0  0
   -7.0458  -10.3041   -9.8240 H   0  0  0  0  0  0  0  0  0  0  0  0
   -9.0071  -11.2250   -8.0012 H   0  0  0  0  0  0  0  0  0  0  0  0
   -8.8060  -11.8467   -9.6430 H   0  0  0  0  0  0  0  0  0  0  0  0
   -7.7208  -12.9035   -7.0486 H   0  0  0  0  0  0  0  0  0  0  0  0
   -8.6880  -13.7914   -8.2272 H   0  0  0  0  0  0  0  0  0  0  0  0
   -5.9756  -14.0368   -8.2041 H   0  0  0  0  0  0  0  0  0  0  0  0
   -6.8444  -13.9377   -9.7431 H   0  0  0  0  0  0  0  0  0  0  0  0
   -5.6059  -12.0866  -10.2036 H   0  0  0  0  0  0  0  0  0  0  0  0
   -5.0452  -11.9124   -8.5595 H   0  0  0  0  0  0  0  0  0  0  0  0
  1  2  1  0
  1 16  1  0
  1 17  1  0
  1 18  1  0
  2  3  2  3
  2 19  1  0
  3  4  1  0
  3 20  1  0
  4 15  1  0
  4  5  2  0
  5  6  1  0
  6  7  1  0
  6  8  1  0
  7 21  1  0
  7 22  1  0
  7 23  1  0
  8  9  2  3
  8 15  1  0
  9 10  1  0
 10 14  1  0
 10 11  1  0
 10 24  1  0
 11 12  1  0
 11 25  1  0
 11 26  1  0
 12 13  1  0
 12 27  1  0
 12 28  1  0
 13 14  1  0
 13 29  1  0
 13 30  1  0
 14 31  1  0
 14 32  1  0
M  END
>  <i_m_ct_stereo_status>  (173) 
1

>  <s_m_source_file>  (173) 
/var/tmp/pbs.5076255.sched01/tmpguie9axe/40t6mruo9t.sdf

>  <i_m_source_file_index>  (173) 
27

>  <i_lp_mmshare_version>  (173) 
48012

>  <i_f3d_flags>  (173) 
0

>  <s_epik_input>  (173) 
W0NIM10vW0NIXT1bQ0hdL2Mxbm4oW0NIM10pL2MoczEpPU4vW0NIXTJbQ0gyXVtDSDJdW0NIMl1bQ0gyXTI=

>  <s_epik_cmdline>  (173) 
J2VwaWtfcHl0aG9uJywgJy1waHQnLCAnMi4wJywgJy1waCcsICc3LjAnLCAnLXRuJywgJzgnLCAnLW1hJywgJzIwMCcsICctaW1hZScsICc8aW5maWxlLm1hZT4nLCAnLW9tYWUnLCAnPG91dGZpbGUubWFlPic=

>  <r_epik_Ionization_Penalty>  (173) 
1.42826

>  <r_epik_Ionization_Penalty_Charging>  (173) 
1.42821

>  <r_epik_Ionization_Penalty_Neutral>  (173) 
5.1683e-05

>  <r_epik_State_Penalty>  (173) 
1.51258

>  <r_epik_Charging_Adjusted_Penalty>  (173) 
2.94079

>  <i_epik_Tot_Q>  (173) 
0

>  <i_epik_Tot_abs_Q>  (173) 
0

>  <s_lp_Force_Field>  (173) 
OPLS3e

>  <r_lp_Energy>  (173) 
23.5002

>  <b_lp_Chiralities_Consistent>  (173) 
1

>  <s_lp_Variant>  (173) 
41:0-5

>  <s_i_glide_gridfile>  (173) 
pfpi4k_grid

>  <i_i_glide_lignum>  (173) 
27

>  <i_i_glide_rotatable_bonds>  (173) 
2

>  <r_i_docking_score>  (173) 
-4.43402

>  <r_i_glide_ligand_efficiency>  (173) 
-0.295602

>  <r_i_glide_ligand_efficiency_sa>  (173) 
-0.729016

>  <r_i_glide_ligand_efficiency_ln>  (173) 
-1.19578

>  <r_i_glide_gscore>  (173) 
-4.43402

>  <r_i_glide_lipo>  (173) 
-1.56018

>  <r_i_glide_hbond>  (173) 
0

>  <r_i_glide_metal>  (173) 
-0

>  <r_i_glide_rewards>  (173) 
-2.22352

>  <r_i_glide_evdw>  (173) 
-20.0561

>  <r_i_glide_ecoul>  (173) 
0.0880773

>  <r_i_glide_erotb>  (173) 
0.339269

>  <r_i_glide_esite>  (173) 
0

>  <r_i_glide_emodel>  (173) 
-23.9912

>  <r_i_glide_energy>  (173) 
-19.968

>  <r_i_glide_einternal>  (173) 
0.362173

>  <r_i_glide_intrahb_reward>  (173) 
-0

>  <i_i_glide_confnum>  (173) 
6

>  <i_i_glide_posenum>  (173) 
1

>  <r_i_glide_eff_state_penalty>  (173) 
0

>  <ligand_id>  (173) 
41

>  <original_smiles>  (173) 
CC=Cc1nn(C)c(=NC2CCCC2)s1

>  <smiles>  (173) 
[H]C(=C([H])C([H])([H])[H])c1nn(C([H])([H])[H])c(=NC2([H])C([H])([H])C([H])([H])C([H])([H])C2([H])[H])s1

$$$$
41:5:0
     RDKit          3D

 32 33  0  0  1  0  0  0  0  0999 V2000
   -6.9005   -4.7087   -3.3441 C   0  0  0  0  0  0  0  0  0  0  0  0
   -6.8860   -4.1393   -4.7310 C   0  0  0  0  0  0  0  0  0  0  0  0
   -6.9524   -4.7458   -5.9350 C   0  0  0  0  0  0  0  0  0  0  0  0
   -6.9845   -6.1828   -6.1099 C   0  0  0  0  0  0  0  0  0  0  0  0
   -7.6542   -6.7420   -7.0391 N   0  0  0  0  0  0  0  0  0  0  0  0
   -7.4732   -8.0630   -7.0958 N   0  0  0  0  0  0  0  0  0  0  0  0
   -8.3673   -8.7266   -8.0535 C   0  0  0  0  0  0  0  0  0  0  0  0
   -6.6168   -8.6293   -6.1536 C   0  0  0  0  0  0  0  0  0  0  0  0
   -6.2207   -9.8578   -5.9599 N   0  0  0  0  0  0  0  0  0  0  0  0
   -6.4239  -10.9290   -6.9012 C   0  0  0  0  0  0  0  0  0  0  0  0
   -5.9744  -12.2462   -6.2625 C   0  0  0  0  0  0  0  0  0  0  0  0
   -5.4137  -13.0713   -7.4131 C   0  0  0  0  0  0  0  0  0  0  0  0
   -4.7441  -12.0459   -8.3203 C   0  0  0  0  0  0  0  0  0  0  0  0
   -5.5100  -10.7355   -8.1250 C   0  0  0  0  0  0  0  0  0  0  0  0
   -5.9611   -7.2863   -5.1686 S   0  0  0  0  0  0  0  0  0  0  0  0
   -6.1890   -4.1893   -2.7219 H   0  0  0  0  0  0  0  0  0  0  0  0
   -6.7720   -5.7785   -3.2142 H   0  0  0  0  0  0  0  0  0  0  0  0
   -7.8707   -4.4706   -2.9475 H   0  0  0  0  0  0  0  0  0  0  0  0
   -6.8577   -3.0651   -4.7269 H   0  0  0  0  0  0  0  0  0  0  0  0
   -7.0138   -4.0900   -6.7895 H   0  0  0  0  0  0  0  0  0  0  0  0
   -7.8259   -9.0239   -8.9532 H   0  0  0  0  0  0  0  0  0  0  0  0
   -9.1923   -8.0791   -8.3735 H   0  0  0  0  0  0  0  0  0  0  0  0
   -8.8682   -9.5895   -7.6237 H   0  0  0  0  0  0  0  0  0  0  0  0
   -7.4560  -11.1175   -7.2006 H   0  0  0  0  0  0  0  0  0  0  0  0
   -5.1850  -12.0799   -5.5340 H   0  0  0  0  0  0  0  0  0  0  0  0
   -6.7978  -12.7442   -5.7480 H   0  0  0  0  0  0  0  0  0  0  0  0
   -4.7324  -13.8556   -7.0728 H   0  0  0  0  0  0  0  0  0  0  0  0
   -6.2316  -13.5396   -7.9514 H   0  0  0  0  0  0  0  0  0  0  0  0
   -3.7143  -11.9022   -7.9923 H   0  0  0  0  0  0  0  0  0  0  0  0
   -4.7317  -12.3513   -9.3656 H   0  0  0  0  0  0  0  0  0  0  0  0
   -6.1076  -10.4729   -9.0005 H   0  0  0  0  0  0  0  0  0  0  0  0
   -4.7776   -9.9340   -7.9890 H   0  0  0  0  0  0  0  0  0  0  0  0
  1  2  1  0
  1 16  1  0
  1 17  1  0
  1 18  1  0
  2  3  2  3
  2 19  1  0
  3  4  1  0
  3 20  1  0
  4 15  1  0
  4  5  2  0
  5  6  1  0
  6  7  1  0
  6  8  1  0
  7 21  1  0
  7 22  1  0
  7 23  1  0
  8  9  2  3
  8 15  1  0
  9 10  1  0
 10 14  1  0
 10 11  1  0
 10 24  1  0
 11 12  1  0
 11 25  1  0
 11 26  1  0
 12 13  1  0
 12 27  1  0
 12 28  1  0
 13 14  1  0
 13 29  1  0
 13 30  1  0
 14 31  1  0
 14 32  1  0
M  END
>  <i_m_ct_stereo_status>  (174) 
1

>  <s_m_source_file>  (174) 
/var/tmp/pbs.5076255.sched01/tmpguie9axe/40t6mruo9t.sdf

>  <i_m_source_file_index>  (174) 
28

>  <i_lp_mmshare_version>  (174) 
48012

>  <i_f3d_flags>  (174) 
0

>  <s_epik_input>  (174) 
W0NIM10vW0NIXT1bQ0hdL2Mxbm4oW0NIM10pL2MoczEpPU4vW0NIXTJbQ0gyXVtDSDJdW0NIMl1bQ0gyXTI=

>  <s_epik_cmdline>  (174) 
J2VwaWtfcHl0aG9uJywgJy1waHQnLCAnMi4wJywgJy1waCcsICc3LjAnLCAnLXRuJywgJzgnLCAnLW1hJywgJzIwMCcsICctaW1hZScsICc8aW5maWxlLm1hZT4nLCAnLW9tYWUnLCAnPG91dGZpbGUubWFlPic=

>  <r_epik_Ionization_Penalty>  (174) 
1.42826

>  <r_epik_Ionization_Penalty_Charging>  (174) 
1.42821

>  <r_epik_Ionization_Penalty_Neutral>  (174) 
5.1683e-05

>  <r_epik_State_Penalty>  (174) 
1.51258

>  <r_epik_Charging_Adjusted_Penalty>  (174) 
2.94079

>  <i_epik_Tot_Q>  (174) 
0

>  <i_epik_Tot_abs_Q>  (174) 
0

>  <s_lp_Force_Field>  (174) 
OPLS3e

>  <r_lp_Energy>  (174) 
26.5494

>  <b_lp_Chiralities_Consistent>  (174) 
1

>  <s_lp_Variant>  (174) 
41:0-6

>  <s_i_glide_gridfile>  (174) 
pfpi4k_grid

>  <i_i_glide_lignum>  (174) 
28

>  <i_i_glide_rotatable_bonds>  (174) 
2

>  <r_i_docking_score>  (174) 
-4.89804

>  <r_i_glide_ligand_efficiency>  (174) 
-0.326536

>  <r_i_glide_ligand_efficiency_sa>  (174) 
-0.805306

>  <r_i_glide_ligand_efficiency_ln>  (174) 
-1.32092

>  <r_i_glide_gscore>  (174) 
-4.89804

>  <r_i_glide_lipo>  (174) 
-1.94881

>  <r_i_glide_hbond>  (174) 
0

>  <r_i_glide_metal>  (174) 
-0

>  <r_i_glide_rewards>  (174) 
-2.36631

>  <r_i_glide_evdw>  (174) 
-20.0854

>  <r_i_glide_ecoul>  (174) 
0.547239

>  <r_i_glide_erotb>  (174) 
0.339269

>  <r_i_glide_esite>  (174) 
0

>  <r_i_glide_emodel>  (174) 
-22.556

>  <r_i_glide_energy>  (174) 
-19.5381

>  <r_i_glide_einternal>  (174) 
2.36676

>  <r_i_glide_intrahb_reward>  (174) 
-0

>  <i_i_glide_confnum>  (174) 
4

>  <i_i_glide_posenum>  (174) 
16

>  <r_i_glide_eff_state_penalty>  (174) 
0

>  <ligand_id>  (174) 
41

>  <original_smiles>  (174) 
CC=Cc1nn(C)c(=NC2CCCC2)s1

>  <smiles>  (174) 
[H]C(=C([H])C([H])([H])[H])c1nn(C([H])([H])[H])c(=NC2([H])C([H])([H])C([H])([H])C([H])([H])C2([H])[H])s1

$$$$
41:5:1
     RDKit          3D

 32 33  0  0  1  0  0  0  0  0999 V2000
   -6.9336   -4.7831   -3.2844 C   0  0  0  0  0  0  0  0  0  0  0  0
   -6.3271   -3.9756   -4.3916 C   0  0  0  0  0  0  0  0  0  0  0  0
   -6.4026   -4.2477   -5.7022 C   0  0  0  0  0  0  0  0  0  0  0  0
   -7.0938   -5.3711   -6.2428 C   0  0  0  0  0  0  0  0  0  0  0  0
   -7.9914   -5.2219   -7.1469 N   0  0  0  0  0  0  0  0  0  0  0  0
   -8.3567   -6.3790   -7.7172 N   0  0  0  0  0  0  0  0  0  0  0  0
   -9.4876   -6.2111   -8.6440 C   0  0  0  0  0  0  0  0  0  0  0  0
   -7.7515   -7.5555   -7.2127 C   0  0  0  0  0  0  0  0  0  0  0  0
   -7.8728   -8.8068   -7.5121 N   0  0  0  0  0  0  0  0  0  0  0  0
   -8.6455   -9.3176   -8.6580 C   0  0  0  0  0  0  0  0  0  0  0  0
  -10.1658   -9.3794   -8.4331 C   0  0  0  0  0  0  0  0  0  0  0  0
  -10.6701  -10.5656   -9.2009 C   0  0  0  0  0  0  0  0  0  0  0  0
   -9.5695  -11.6082   -9.0350 C   0  0  0  0  0  0  0  0  0  0  0  0
   -8.2634  -10.8160   -8.8586 C   0  0  0  0  0  0  0  0  0  0  0  0
   -6.6541   -7.0497   -5.8472 S   0  0  0  0  0  0  0  0  0  0  0  0
   -6.2401   -4.9106   -2.4786 H   0  0  0  0  0  0  0  0  0  0  0  0
   -7.2146   -5.7459   -3.6349 H   0  0  0  0  0  0  0  0  0  0  0  0
   -7.8045   -4.3136   -2.8349 H   0  0  0  0  0  0  0  0  0  0  0  0
   -5.7754   -3.1199   -4.0716 H   0  0  0  0  0  0  0  0  0  0  0  0
   -5.9306   -3.5640   -6.3784 H   0  0  0  0  0  0  0  0  0  0  0  0
   -9.2194   -6.4557   -9.6698 H   0  0  0  0  0  0  0  0  0  0  0  0
   -9.9347   -5.2091   -8.6064 H   0  0  0  0  0  0  0  0  0  0  0  0
  -10.3101   -6.8018   -8.2476 H   0  0  0  0  0  0  0  0  0  0  0  0
   -8.3727   -8.7792   -9.5733 H   0  0  0  0  0  0  0  0  0  0  0  0
  -10.4013   -9.4657   -7.3821 H   0  0  0  0  0  0  0  0  0  0  0  0
  -10.7635   -8.6180   -8.9394 H   0  0  0  0  0  0  0  0  0  0  0  0
  -11.6689  -10.8622   -8.8397 H   0  0  0  0  0  0  0  0  0  0  0  0
  -10.7594  -10.2712  -10.2508 H   0  0  0  0  0  0  0  0  0  0  0  0
   -9.8151  -12.1531   -8.1228 H   0  0  0  0  0  0  0  0  0  0  0  0
   -9.5620  -12.2993   -9.8844 H   0  0  0  0  0  0  0  0  0  0  0  0
   -7.6138  -10.9396   -9.7283 H   0  0  0  0  0  0  0  0  0  0  0  0
   -7.7302  -11.2402   -8.0016 H   0  0  0  0  0  0  0  0  0  0  0  0
  1  2  1  0
  1 16  1  0
  1 17  1  0
  1 18  1  0
  2  3  2  3
  2 19  1  0
  3  4  1  0
  3 20  1  0
  4 15  1  0
  4  5  2  0
  5  6  1  0
  6  7  1  0
  6  8  1  0
  7 21  1  0
  7 22  1  0
  7 23  1  0
  8  9  2  3
  8 15  1  0
  9 10  1  0
 10 14  1  0
 10 11  1  0
 10 24  1  0
 11 12  1  0
 11 25  1  0
 11 26  1  0
 12 13  1  0
 12 27  1  0
 12 28  1  0
 13 14  1  0
 13 29  1  0
 13 30  1  0
 14 31  1  0
 14 32  1  0
M  END
>  <i_m_ct_stereo_status>  (175) 
1

>  <s_m_source_file>  (175) 
/var/tmp/pbs.5076255.sched01/tmpguie9axe/40t6mruo9t.sdf

>  <i_m_source_file_index>  (175) 
28

>  <i_lp_mmshare_version>  (175) 
48012

>  <i_f3d_flags>  (175) 
0

>  <s_epik_input>  (175) 
W0NIM10vW0NIXT1bQ0hdL2Mxbm4oW0NIM10pL2MoczEpPU4vW0NIXTJbQ0gyXVtDSDJdW0NIMl1bQ0gyXTI=

>  <s_epik_cmdline>  (175) 
J2VwaWtfcHl0aG9uJywgJy1waHQnLCAnMi4wJywgJy1waCcsICc3LjAnLCAnLXRuJywgJzgnLCAnLW1hJywgJzIwMCcsICctaW1hZScsICc8aW5maWxlLm1hZT4nLCAnLW9tYWUnLCAnPG91dGZpbGUubWFlPic=

>  <r_epik_Ionization_Penalty>  (175) 
1.42826

>  <r_epik_Ionization_Penalty_Charging>  (175) 
1.42821

>  <r_epik_Ionization_Penalty_Neutral>  (175) 
5.1683e-05

>  <r_epik_State_Penalty>  (175) 
1.51258

>  <r_epik_Charging_Adjusted_Penalty>  (175) 
2.94079

>  <i_epik_Tot_Q>  (175) 
0

>  <i_epik_Tot_abs_Q>  (175) 
0

>  <s_lp_Force_Field>  (175) 
OPLS3e

>  <r_lp_Energy>  (175) 
26.5494

>  <b_lp_Chiralities_Consistent>  (175) 
1

>  <s_lp_Variant>  (175) 
41:0-6

>  <s_i_glide_gridfile>  (175) 
pfpi4k_grid

>  <i_i_glide_lignum>  (175) 
28

>  <i_i_glide_rotatable_bonds>  (175) 
2

>  <r_i_docking_score>  (175) 
-4.15414

>  <r_i_glide_ligand_efficiency>  (175) 
-0.276943

>  <r_i_glide_ligand_efficiency_sa>  (175) 
-0.682999

>  <r_i_glide_ligand_efficiency_ln>  (175) 
-1.1203

>  <r_i_glide_gscore>  (175) 
-4.15414

>  <r_i_glide_lipo>  (175) 
-1.49626

>  <r_i_glide_hbond>  (175) 
0

>  <r_i_glide_metal>  (175) 
-0

>  <r_i_glide_rewards>  (175) 
-2.37412

>  <r_i_glide_evdw>  (175) 
-11.8363

>  <r_i_glide_ecoul>  (175) 
-0.208127

>  <r_i_glide_erotb>  (175) 
0.339269

>  <r_i_glide_esite>  (175) 
0

>  <r_i_glide_emodel>  (175) 
-12.9559

>  <r_i_glide_energy>  (175) 
-12.0444

>  <r_i_glide_einternal>  (175) 
3.5326

>  <r_i_glide_intrahb_reward>  (175) 
-0

>  <i_i_glide_confnum>  (175) 
4

>  <i_i_glide_posenum>  (175) 
37

>  <r_i_glide_eff_state_penalty>  (175) 
0

>  <ligand_id>  (175) 
41

>  <original_smiles>  (175) 
CC=Cc1nn(C)c(=NC2CCCC2)s1

>  <smiles>  (175) 
[H]C(=C([H])C([H])([H])[H])c1nn(C([H])([H])[H])c(=NC2([H])C([H])([H])C([H])([H])C([H])([H])C2([H])[H])s1

$$$$
42:0:0
     RDKit          3D

 40 41  0  0  1  0  0  0  0  0999 V2000
    3.7860   -0.0509   -4.0048 C   0  0  0  0  0  0  0  0  0  0  0  0
    3.9126   -0.6936   -2.7403 O   0  0  0  0  0  0  0  0  0  0  0  0
    4.2172   -1.9917   -2.7035 C   0  0  0  0  0  0  0  0  0  0  0  0
    4.4747   -2.6708   -3.7103 O   0  0  0  0  0  0  0  0  0  0  0  0
    4.1712   -2.5304   -1.3195 C   0  0  0  0  0  0  0  0  0  0  0  0
    4.7933   -1.9316   -0.2434 C   0  0  0  0  0  0  0  0  0  0  0  0
    5.6692   -0.6834   -0.3012 C   0  0  0  0  0  0  0  0  0  0  0  0
    4.7377   -2.5023    1.0563 N   0  0  0  0  0  0  0  0  0  0  0  0
    5.6074   -2.0511    2.1502 C   0  0  0  0  0  0  0  0  0  0  0  0
    4.2213   -3.8540    1.2066 C   0  0  1  0  0  0  0  0  0  0  0  0
    5.1993   -4.8250    0.8810 O   0  0  0  0  0  0  0  0  0  0  0  0
    3.6523   -4.2593    2.5840 C   0  0  0  0  0  0  0  0  0  0  0  0
    2.7604   -5.4807    2.3189 C   0  0  1  0  0  0  0  0  0  0  0  0
    1.5925   -5.6461    3.3089 C   0  0  0  0  0  0  0  0  0  0  0  0
    2.2826   -5.2297    0.8886 C   0  0  0  0  0  0  0  0  0  0  0  0
    1.4016   -5.8614    0.3143 O   0  0  0  0  0  0  0  0  0  0  0  0
    2.9818   -3.9781    0.3430 C   0  0  2  0  0  0  0  0  0  0  0  0
    3.2852   -3.7902   -1.1601 C   0  0  1  0  0  0  0  0  0  0  0  0
    1.9808   -3.7483   -1.9980 C   0  0  0  0  0  0  0  0  0  0  0  0
    3.8094    1.0180   -3.8253 H   0  0  0  0  0  0  0  0  0  0  0  0
    2.8290   -0.3251   -4.4693 H   0  0  0  0  0  0  0  0  0  0  0  0
    4.6088   -0.2886   -4.7028 H   0  0  0  0  0  0  0  0  0  0  0  0
    5.8235   -0.3515   -1.3194 H   0  0  0  0  0  0  0  0  0  0  0  0
    6.6473   -0.8926    0.1292 H   0  0  0  0  0  0  0  0  0  0  0  0
    5.2092    0.1207    0.2871 H   0  0  0  0  0  0  0  0  0  0  0  0
    5.6710   -0.9652    2.1970 H   0  0  0  0  0  0  0  0  0  0  0  0
    6.6073   -2.4375    1.9775 H   0  0  0  0  0  0  0  0  0  0  0  0
    5.2672   -2.3818    3.1253 H   0  0  0  0  0  0  0  0  0  0  0  0
    4.8153   -5.4523    0.2850 H   0  0  0  0  0  0  0  0  0  0  0  0
    4.4485   -4.4901    3.3007 H   0  0  0  0  0  0  0  0  0  0  0  0
    3.0559   -3.4489    3.0036 H   0  0  0  0  0  0  0  0  0  0  0  0
    3.3491   -6.3977    2.3179 H   0  0  0  0  0  0  0  0  0  0  0  0
    0.9843   -6.5292    3.0724 H   0  0  0  0  0  0  0  0  0  0  0  0
    0.9269   -4.7789    3.2981 H   0  0  0  0  0  0  0  0  0  0  0  0
    1.9600   -5.7719    4.3284 H   0  0  0  0  0  0  0  0  0  0  0  0
    2.2810   -3.1843    0.6056 H   0  0  0  0  0  0  0  0  0  0  0  0
    3.9229   -4.6155   -1.4872 H   0  0  0  0  0  0  0  0  0  0  0  0
    2.1645   -3.7404   -3.0629 H   0  0  0  0  0  0  0  0  0  0  0  0
    1.3869   -2.8550   -1.7948 H   0  0  0  0  0  0  0  0  0  0  0  0
    1.3328   -4.6111   -1.8320 H   0  0  0  0  0  0  0  0  0  0  0  0
  1  2  1  0
  1 20  1  0
  1 21  1  0
  1 22  1  0
  2  3  1  0
  3  4  2  0
  3  5  1  0
  5 18  1  0
  5  6  2  0
  6  7  1  0
  6  8  1  0
  7 23  1  0
  7 24  1  0
  7 25  1  0
  8  9  1  0
  8 10  1  0
  9 26  1  0
  9 27  1  0
  9 28  1  0
 10 17  1  0
 10 11  1  6
 10 12  1  0
 11 29  1  0
 12 13  1  0
 12 30  1  0
 12 31  1  0
 13 14  1  0
 13 15  1  0
 13 32  1  6
 14 33  1  0
 14 34  1  0
 14 35  1  0
 15 16  2  0
 15 17  1  0
 17 18  1  0
 17 36  1  1
 18 19  1  0
 18 37  1  6
 19 38  1  0
 19 39  1  0
 19 40  1  0
M  END
>  <i_m_ct_stereo_status>  (176) 
1

>  <s_m_source_file>  (176) 
/var/tmp/pbs.5076255.sched01/tmpguie9axe/40t6mruo9t.sdf

>  <i_m_source_file_index>  (176) 
29

>  <i_lp_mmshare_version>  (176) 
48012

>  <i_f3d_flags>  (176) 
0

>  <s_epik_input>  (176) 
W0NIM11PQyg9TylDKD1DKFtDSDNdKU4xW0NIM10pW0NASF0oW0NIM10pW0NASF0oW0NAQF0xMltPSF0pQyg9TylbQ0BASF0oW0NIMl0yKVtDSDNd

>  <s_epik_cmdline>  (176) 
J2VwaWtfcHl0aG9uJywgJy1waHQnLCAnMi4wJywgJy1waCcsICc3LjAnLCAnLXRuJywgJzgnLCAnLW1hJywgJzIwMCcsICctaW1hZScsICc8aW5maWxlLm1hZT4nLCAnLW9tYWUnLCAnPG91dGZpbGUubWFlPic=

>  <r_lp_tautomer_probability>  (176) 
1

>  <r_epik_Ionization_Penalty>  (176) 
6.39242e-06

>  <r_epik_Ionization_Penalty_Charging>  (176) 
0

>  <r_epik_Ionization_Penalty_Neutral>  (176) 
6.39242e-06

>  <r_epik_State_Penalty>  (176) 
-0

>  <r_epik_Charging_Adjusted_Penalty>  (176) 
0

>  <i_epik_Tot_Q>  (176) 
0

>  <i_epik_Tot_abs_Q>  (176) 
0

>  <s_epik_Chemistry_Notes>  (176) 
This compound has an ester and may undergo hydrolysis at high or low pH.

>  <s_lp_Force_Field>  (176) 
OPLS3e

>  <r_lp_Energy>  (176) 
17.7311

>  <b_lp_Chiralities_Consistent>  (176) 
1

>  <s_lp_Variant>  (176) 
42:0-1

>  <s_i_glide_gridfile>  (176) 
pfpi4k_grid

>  <i_i_glide_lignum>  (176) 
29

>  <i_i_glide_rotatable_bonds>  (176) 
3

>  <r_i_docking_score>  (176) 
-3.71382

>  <r_i_glide_ligand_efficiency>  (176) 
-0.195464

>  <r_i_glide_ligand_efficiency_sa>  (176) 
-0.521577

>  <r_i_glide_ligand_efficiency_ln>  (176) 
-0.941533

>  <r_i_glide_gscore>  (176) 
-3.71382

>  <r_i_glide_lipo>  (176) 
-0.291568

>  <r_i_glide_hbond>  (176) 
-0.153933

>  <r_i_glide_metal>  (176) 
-0

>  <r_i_glide_rewards>  (176) 
-1.6924

>  <r_i_glide_evdw>  (176) 
-22.1379

>  <r_i_glide_ecoul>  (176) 
-4.47931

>  <r_i_glide_erotb>  (176) 
0.24951

>  <r_i_glide_esite>  (176) 
-0.0466361

>  <r_i_glide_emodel>  (176) 
-31.211

>  <r_i_glide_energy>  (176) 
-26.6172

>  <r_i_glide_einternal>  (176) 
1.54623

>  <r_i_glide_intrahb_reward>  (176) 
-0

>  <i_i_glide_confnum>  (176) 
5

>  <i_i_glide_posenum>  (176) 
39

>  <r_i_glide_eff_state_penalty>  (176) 
0

>  <ligand_id>  (176) 
42

>  <original_smiles>  (176) 
COC(=O)C1=C(C)N(C)C2(O)CC(C)C(=O)C2C1C

>  <smiles>  (176) 
[H]OC12N(C([H])([H])[H])C(C([H])([H])[H])=C(C(=O)OC([H])([H])[H])C([H])(C([H])([H])[H])C1([H])C(=O)C([H])(C([H])([H])[H])C2([H])[H]

$$$$
42:0:1
     RDKit          3D

 40 41  0  0  1  0  0  0  0  0999 V2000
    1.7589   -8.1100    3.6914 C   0  0  0  0  0  0  0  0  0  0  0  0
    1.9952   -6.9090    2.9770 O   0  0  0  0  0  0  0  0  0  0  0  0
    3.2618   -6.5780    2.6668 C   0  0  0  0  0  0  0  0  0  0  0  0
    4.2348   -7.2851    2.9163 O   0  0  0  0  0  0  0  0  0  0  0  0
    3.3370   -5.2344    2.0104 C   0  0  0  0  0  0  0  0  0  0  0  0
    2.7101   -4.1484    2.5676 C   0  0  0  0  0  0  0  0  0  0  0  0
    2.0366   -4.1190    3.9493 C   0  0  0  0  0  0  0  0  0  0  0  0
    2.6097   -2.9145    1.8661 N   0  0  0  0  0  0  0  0  0  0  0  0
    1.7777   -1.7996    2.3337 C   0  0  0  0  0  0  0  0  0  0  0  0
    3.0324   -2.8519    0.4569 C   0  0  1  0  0  0  0  0  0  0  0  0
    2.0435   -3.2854   -0.4534 O   0  0  0  0  0  0  0  0  0  0  0  0
    3.4795   -1.4796   -0.0889 C   0  0  0  0  0  0  0  0  0  0  0  0
    4.2106   -1.8450   -1.3876 C   0  0  1  0  0  0  0  0  0  0  0  0
    5.2874   -0.8427   -1.7800 C   0  0  0  0  0  0  0  0  0  0  0  0
    4.7845   -3.2234   -1.0920 C   0  0  0  0  0  0  0  0  0  0  0  0
    5.5280   -3.8556   -1.8468 O   0  0  0  0  0  0  0  0  0  0  0  0
    4.2911   -3.6773    0.2883 C   0  0  2  0  0  0  0  0  0  0  0  0
    4.0811   -5.1720    0.6386 C   0  0  1  0  0  0  0  0  0  0  0  0
    5.4107   -5.9414    0.5902 C   0  0  0  0  0  0  0  0  0  0  0  0
    0.7267   -8.1419    4.0262 H   0  0  0  0  0  0  0  0  0  0  0  0
    2.4070   -8.1721    4.5720 H   0  0  0  0  0  0  0  0  0  0  0  0
    1.9660   -8.9713    3.0522 H   0  0  0  0  0  0  0  0  0  0  0  0
    2.0895   -5.0456    4.5169 H   0  0  0  0  0  0  0  0  0  0  0  0
    0.9890   -3.8555    3.8464 H   0  0  0  0  0  0  0  0  0  0  0  0
    2.5184   -3.3634    4.5828 H   0  0  0  0  0  0  0  0  0  0  0  0
    1.8445   -1.6479    3.4111 H   0  0  0  0  0  0  0  0  0  0  0  0
    0.7375   -2.0027    2.1014 H   0  0  0  0  0  0  0  0  0  0  0  0
    2.0311   -0.8426    1.8871 H   0  0  0  0  0  0  0  0  0  0  0  0
    1.5975   -2.4926   -0.7350 H   0  0  0  0  0  0  0  0  0  0  0  0
    2.6443   -0.7855   -0.2687 H   0  0  0  0  0  0  0  0  0  0  0  0
    4.1483   -0.9770    0.6090 H   0  0  0  0  0  0  0  0  0  0  0  0
    3.5089   -1.9428   -2.2199 H   0  0  0  0  0  0  0  0  0  0  0  0
    5.7792   -1.2051   -2.6869 H   0  0  0  0  0  0  0  0  0  0  0  0
    6.0355   -0.7430   -0.9865 H   0  0  0  0  0  0  0  0  0  0  0  0
    4.8480    0.1246   -1.9953 H   0  0  0  0  0  0  0  0  0  0  0  0
    5.0413   -3.2969    0.9780 H   0  0  0  0  0  0  0  0  0  0  0  0
    3.4022   -5.6151   -0.0960 H   0  0  0  0  0  0  0  0  0  0  0  0
    5.2719   -7.0149    0.6580 H   0  0  0  0  0  0  0  0  0  0  0  0
    6.0889   -5.6235    1.3868 H   0  0  0  0  0  0  0  0  0  0  0  0
    5.9454   -5.7739   -0.3521 H   0  0  0  0  0  0  0  0  0  0  0  0
  1  2  1  0
  1 20  1  0
  1 21  1  0
  1 22  1  0
  2  3  1  0
  3  4  2  0
  3  5  1  0
  5 18  1  0
  5  6  2  0
  6  7  1  0
  6  8  1  0
  7 23  1  0
  7 24  1  0
  7 25  1  0
  8  9  1  0
  8 10  1  0
  9 26  1  0
  9 27  1  0
  9 28  1  0
 10 17  1  0
 10 11  1  6
 10 12  1  0
 11 29  1  0
 12 13  1  0
 12 30  1  0
 12 31  1  0
 13 14  1  0
 13 15  1  0
 13 32  1  6
 14 33  1  0
 14 34  1  0
 14 35  1  0
 15 16  2  0
 15 17  1  0
 17 18  1  0
 17 36  1  1
 18 19  1  0
 18 37  1  6
 19 38  1  0
 19 39  1  0
 19 40  1  0
M  END
>  <i_m_ct_stereo_status>  (177) 
1

>  <s_m_source_file>  (177) 
/var/tmp/pbs.5076255.sched01/tmpguie9axe/40t6mruo9t.sdf

>  <i_m_source_file_index>  (177) 
29

>  <i_lp_mmshare_version>  (177) 
48012

>  <i_f3d_flags>  (177) 
0

>  <s_epik_input>  (177) 
W0NIM11PQyg9TylDKD1DKFtDSDNdKU4xW0NIM10pW0NASF0oW0NIM10pW0NASF0oW0NAQF0xMltPSF0pQyg9TylbQ0BASF0oW0NIMl0yKVtDSDNd

>  <s_epik_cmdline>  (177) 
J2VwaWtfcHl0aG9uJywgJy1waHQnLCAnMi4wJywgJy1waCcsICc3LjAnLCAnLXRuJywgJzgnLCAnLW1hJywgJzIwMCcsICctaW1hZScsICc8aW5maWxlLm1hZT4nLCAnLW9tYWUnLCAnPG91dGZpbGUubWFlPic=

>  <r_lp_tautomer_probability>  (177) 
1

>  <r_epik_Ionization_Penalty>  (177) 
6.39242e-06

>  <r_epik_Ionization_Penalty_Charging>  (177) 
0

>  <r_epik_Ionization_Penalty_Neutral>  (177) 
6.39242e-06

>  <r_epik_State_Penalty>  (177) 
-0

>  <r_epik_Charging_Adjusted_Penalty>  (177) 
0

>  <i_epik_Tot_Q>  (177) 
0

>  <i_epik_Tot_abs_Q>  (177) 
0

>  <s_epik_Chemistry_Notes>  (177) 
This compound has an ester and may undergo hydrolysis at high or low pH.

>  <s_lp_Force_Field>  (177) 
OPLS3e

>  <r_lp_Energy>  (177) 
17.7311

>  <b_lp_Chiralities_Consistent>  (177) 
1

>  <s_lp_Variant>  (177) 
42:0-1

>  <s_i_glide_gridfile>  (177) 
pfpi4k_grid

>  <i_i_glide_lignum>  (177) 
29

>  <i_i_glide_rotatable_bonds>  (177) 
3

>  <r_i_docking_score>  (177) 
-2.97676

>  <r_i_glide_ligand_efficiency>  (177) 
-0.156672

>  <r_i_glide_ligand_efficiency_sa>  (177) 
-0.418063

>  <r_i_glide_ligand_efficiency_ln>  (177) 
-0.754674

>  <r_i_glide_gscore>  (177) 
-2.97676

>  <r_i_glide_lipo>  (177) 
-0.16834

>  <r_i_glide_hbond>  (177) 
-0.199185

>  <r_i_glide_metal>  (177) 
-0

>  <r_i_glide_rewards>  (177) 
-1.62935

>  <r_i_glide_evdw>  (177) 
-9.10666

>  <r_i_glide_ecoul>  (177) 
-4.3609

>  <r_i_glide_erotb>  (177) 
0.174657

>  <r_i_glide_esite>  (177) 
-0.0450816

>  <r_i_glide_emodel>  (177) 
-16.9102

>  <r_i_glide_energy>  (177) 
-13.4676

>  <r_i_glide_einternal>  (177) 
1.60808

>  <r_i_glide_intrahb_reward>  (177) 
-0

>  <i_i_glide_confnum>  (177) 
1

>  <i_i_glide_posenum>  (177) 
1

>  <r_i_glide_eff_state_penalty>  (177) 
0

>  <ligand_id>  (177) 
42

>  <original_smiles>  (177) 
COC(=O)C1=C(C)N(C)C2(O)CC(C)C(=O)C2C1C

>  <smiles>  (177) 
[H]OC12N(C([H])([H])[H])C(C([H])([H])[H])=C(C(=O)OC([H])([H])[H])C([H])(C([H])([H])[H])C1([H])C(=O)C([H])(C([H])([H])[H])C2([H])[H]

$$$$
42:0:2
     RDKit          3D

 40 41  0  0  1  0  0  0  0  0999 V2000
    3.2617   -6.4642    5.6767 C   0  0  0  0  0  0  0  0  0  0  0  0
    3.2908   -5.5228    4.6182 O   0  0  0  0  0  0  0  0  0  0  0  0
    4.3693   -5.4612    3.8234 C   0  0  0  0  0  0  0  0  0  0  0  0
    5.3308   -6.2290    3.9119 O   0  0  0  0  0  0  0  0  0  0  0  0
    4.2781   -4.3492    2.8376 C   0  0  0  0  0  0  0  0  0  0  0  0
    3.8652   -3.0927    3.2248 C   0  0  0  0  0  0  0  0  0  0  0  0
    3.6052   -2.6517    4.6744 C   0  0  0  0  0  0  0  0  0  0  0  0
    3.6035   -2.0721    2.2755 N   0  0  0  0  0  0  0  0  0  0  0  0
    2.9128   -0.8237    2.6199 C   0  0  0  0  0  0  0  0  0  0  0  0
    3.5471   -2.4334    0.8575 C   0  0  1  0  0  0  0  0  0  0  0  0
    2.2936   -2.9744    0.4856 O   0  0  0  0  0  0  0  0  0  0  0  0
    3.8320   -1.3187   -0.1693 C   0  0  0  0  0  0  0  0  0  0  0  0
    4.1704   -2.0593   -1.4726 C   0  0  1  0  0  0  0  0  0  0  0  0
    5.1111   -1.2914   -2.4043 C   0  0  0  0  0  0  0  0  0  0  0  0
    4.7792   -3.3632   -0.9668 C   0  0  0  0  0  0  0  0  0  0  0  0
    5.2829   -4.2223   -1.6787 O   0  0  0  0  0  0  0  0  0  0  0  0
    4.6911   -3.3931    0.5617 C   0  0  2  0  0  0  0  0  0  0  0  0
    4.5892   -4.7149    1.3525 C   0  0  1  0  0  0  0  0  0  0  0  0
    5.8463   -5.5964    1.1447 C   0  0  0  0  0  0  0  0  0  0  0  0
    2.4133   -6.2577    6.3295 H   0  0  0  0  0  0  0  0  0  0  0  0
    4.1748   -6.4006    6.2760 H   0  0  0  0  0  0  0  0  0  0  0  0
    3.1774   -7.4816    5.2848 H   0  0  0  0  0  0  0  0  0  0  0  0
    3.7975   -3.4064    5.4339 H   0  0  0  0  0  0  0  0  0  0  0  0
    2.5709   -2.3341    4.7850 H   0  0  0  0  0  0  0  0  0  0  0  0
    4.2456   -1.8017    4.9194 H   0  0  0  0  0  0  0  0  0  0  0  0
    3.2678   -0.3989    3.5566 H   0  0  0  0  0  0  0  0  0  0  0  0
    1.8478   -1.0167    2.7240 H   0  0  0  0  0  0  0  0  0  0  0  0
    3.0376   -0.0415    1.8775 H   0  0  0  0  0  0  0  0  0  0  0  0
    1.8362   -2.2978   -0.0103 H   0  0  0  0  0  0  0  0  0  0  0  0
    2.9820   -0.6571   -0.3166 H   0  0  0  0  0  0  0  0  0  0  0  0
    4.6753   -0.7024    0.1470 H   0  0  0  0  0  0  0  0  0  0  0  0
    3.2608   -2.3115   -2.0190 H   0  0  0  0  0  0  0  0  0  0  0  0
    5.3284   -1.8783   -3.3009 H   0  0  0  0  0  0  0  0  0  0  0  0
    6.0590   -1.0766   -1.9110 H   0  0  0  0  0  0  0  0  0  0  0  0
    4.6721   -0.3445   -2.7226 H   0  0  0  0  0  0  0  0  0  0  0  0
    5.6139   -2.9143    0.8832 H   0  0  0  0  0  0  0  0  0  0  0  0
    3.7277   -5.2736    0.9792 H   0  0  0  0  0  0  0  0  0  0  0  0
    5.7168   -6.5912    1.5664 H   0  0  0  0  0  0  0  0  0  0  0  0
    6.7262   -5.1458    1.6059 H   0  0  0  0  0  0  0  0  0  0  0  0
    6.0843   -5.7517    0.0893 H   0  0  0  0  0  0  0  0  0  0  0  0
  1  2  1  0
  1 20  1  0
  1 21  1  0
  1 22  1  0
  2  3  1  0
  3  4  2  0
  3  5  1  0
  5 18  1  0
  5  6  2  0
  6  7  1  0
  6  8  1  0
  7 23  1  0
  7 24  1  0
  7 25  1  0
  8  9  1  0
  8 10  1  0
  9 26  1  0
  9 27  1  0
  9 28  1  0
 10 17  1  0
 10 11  1  6
 10 12  1  0
 11 29  1  0
 12 13  1  0
 12 30  1  0
 12 31  1  0
 13 14  1  0
 13 15  1  0
 13 32  1  6
 14 33  1  0
 14 34  1  0
 14 35  1  0
 15 16  2  0
 15 17  1  0
 17 18  1  0
 17 36  1  1
 18 19  1  0
 18 37  1  6
 19 38  1  0
 19 39  1  0
 19 40  1  0
M  END
>  <i_m_ct_stereo_status>  (178) 
1

>  <s_m_source_file>  (178) 
/var/tmp/pbs.5076255.sched01/tmpguie9axe/40t6mruo9t.sdf

>  <i_m_source_file_index>  (178) 
29

>  <i_lp_mmshare_version>  (178) 
48012

>  <i_f3d_flags>  (178) 
0

>  <s_epik_input>  (178) 
W0NIM11PQyg9TylDKD1DKFtDSDNdKU4xW0NIM10pW0NASF0oW0NIM10pW0NASF0oW0NAQF0xMltPSF0pQyg9TylbQ0BASF0oW0NIMl0yKVtDSDNd

>  <s_epik_cmdline>  (178) 
J2VwaWtfcHl0aG9uJywgJy1waHQnLCAnMi4wJywgJy1waCcsICc3LjAnLCAnLXRuJywgJzgnLCAnLW1hJywgJzIwMCcsICctaW1hZScsICc8aW5maWxlLm1hZT4nLCAnLW9tYWUnLCAnPG91dGZpbGUubWFlPic=

>  <r_lp_tautomer_probability>  (178) 
1

>  <r_epik_Ionization_Penalty>  (178) 
6.39242e-06

>  <r_epik_Ionization_Penalty_Charging>  (178) 
0

>  <r_epik_Ionization_Penalty_Neutral>  (178) 
6.39242e-06

>  <r_epik_State_Penalty>  (178) 
-0

>  <r_epik_Charging_Adjusted_Penalty>  (178) 
0

>  <i_epik_Tot_Q>  (178) 
0

>  <i_epik_Tot_abs_Q>  (178) 
0

>  <s_epik_Chemistry_Notes>  (178) 
This compound has an ester and may undergo hydrolysis at high or low pH.

>  <s_lp_Force_Field>  (178) 
OPLS3e

>  <r_lp_Energy>  (178) 
17.7311

>  <b_lp_Chiralities_Consistent>  (178) 
1

>  <s_lp_Variant>  (178) 
42:0-1

>  <s_i_glide_gridfile>  (178) 
pfpi4k_grid

>  <i_i_glide_lignum>  (178) 
29

>  <i_i_glide_rotatable_bonds>  (178) 
3

>  <r_i_docking_score>  (178) 
-2.61821

>  <r_i_glide_ligand_efficiency>  (178) 
-0.137801

>  <r_i_glide_ligand_efficiency_sa>  (178) 
-0.367707

>  <r_i_glide_ligand_efficiency_ln>  (178) 
-0.663773

>  <r_i_glide_gscore>  (178) 
-2.61821

>  <r_i_glide_lipo>  (178) 
-0.145454

>  <r_i_glide_hbond>  (178) 
-0.167182

>  <r_i_glide_metal>  (178) 
-0

>  <r_i_glide_rewards>  (178) 
-1.64906

>  <r_i_glide_evdw>  (178) 
-11.3768

>  <r_i_glide_ecoul>  (178) 
-1.60837

>  <r_i_glide_erotb>  (178) 
0.174657

>  <r_i_glide_esite>  (178) 
-0.0210841

>  <r_i_glide_emodel>  (178) 
-15.9126

>  <r_i_glide_energy>  (178) 
-12.9851

>  <r_i_glide_einternal>  (178) 
1.51955

>  <r_i_glide_intrahb_reward>  (178) 
-0

>  <i_i_glide_confnum>  (178) 
1

>  <i_i_glide_posenum>  (178) 
3

>  <r_i_glide_eff_state_penalty>  (178) 
0

>  <ligand_id>  (178) 
42

>  <original_smiles>  (178) 
COC(=O)C1=C(C)N(C)C2(O)CC(C)C(=O)C2C1C

>  <smiles>  (178) 
[H]OC12N(C([H])([H])[H])C(C([H])([H])[H])=C(C(=O)OC([H])([H])[H])C([H])(C([H])([H])[H])C1([H])C(=O)C([H])(C([H])([H])[H])C2([H])[H]

$$$$
43:0:0
     RDKit          3D

 55 60  0  0  1  0  0  0  0  0999 V2000
    5.0592   -3.7599   -2.1921 C   0  0  0  0  0  0  0  0  0  0  0  0
    4.8562   -2.2555   -2.3878 C   0  0  0  0  0  0  0  0  0  0  0  0
    4.6235   -1.8096   -3.5083 O   0  0  0  0  0  0  0  0  0  0  0  0
    4.9312   -1.4710   -1.2849 O   0  0  0  0  0  0  0  0  0  0  0  0
    4.8059   -1.9514    0.0527 C   0  0  2  0  0  0  0  0  0  0  0  0
    3.2380   -2.3242    0.1524 C   0  0  0  0  0  0  0  0  0  0  0  0
    2.6139   -2.9168    1.4903 C   0  0  2  0  0  0  0  0  0  0  0  0
    2.9786   -2.1346    2.7604 C   0  0  1  0  0  0  0  0  0  0  0  0
    3.6600   -0.7395    2.7577 C   0  0  1  0  0  0  0  0  0  0  0  0
    3.0141    0.3702    1.8963 C   0  0  0  0  0  0  0  0  0  0  0  0
    3.7941   -0.1839    4.1679 C   0  0  0  0  0  0  0  0  0  0  0  0
    5.0844   -0.8922    4.5242 C   0  0  2  0  0  0  0  0  0  0  0  0
    5.8259   -0.2828    3.4323 O   0  0  0  0  0  0  0  0  0  0  0  0
    5.2174   -1.0508    2.4836 C   0  0  1  0  0  0  0  0  0  0  0  0
    5.6118   -2.3439    2.9547 O   0  0  0  0  0  0  0  0  0  0  0  0
    4.9716   -2.4519    4.1913 C   0  0  1  0  0  0  0  0  0  0  0  0
    5.6481   -3.2530    5.1286 O   0  0  0  0  0  0  0  0  0  0  0  0
    3.4769   -3.0195    3.9243 C   0  0  1  0  0  0  0  0  0  0  0  0
    2.6332   -2.9258    5.2248 C   0  0  0  0  0  0  0  0  0  0  0  0
    3.2872   -4.4348    3.3236 C   0  0  0  0  0  0  0  0  0  0  0  0
    3.0551   -5.5840    4.0008 C   0  0  0  0  0  0  0  0  0  0  0  0
    2.5592   -6.8356    3.3004 C   0  0  0  0  0  0  0  0  0  0  0  0
    1.6531   -6.4932    2.1058 C   0  0  0  0  0  0  0  0  0  0  0  0
    0.7822   -7.2704    1.7298 O   0  0  0  0  0  0  0  0  0  0  0  0
    1.8728   -5.2914    1.4918 O   0  0  0  0  0  0  0  0  0  0  0  0
    2.9734   -4.4337    1.8274 C   0  0  1  0  0  0  0  0  0  0  0  0
    4.1953   -5.0204    1.0853 C   0  0  0  0  0  0  0  0  0  0  0  0
    5.5545   -0.8671    0.9675 C   0  0  1  0  0  0  0  0  0  0  0  0
    6.9378   -1.0598    0.7651 O   0  0  0  0  0  0  0  0  0  0  0  0
    5.3855   -4.0272   -1.1964 H   0  0  0  0  0  0  0  0  0  0  0  0
    5.7923   -4.1532   -2.8951 H   0  0  0  0  0  0  0  0  0  0  0  0
    4.1213   -4.2530   -2.4290 H   0  0  0  0  0  0  0  0  0  0  0  0
    5.4019   -2.8433    0.1911 H   0  0  0  0  0  0  0  0  0  0  0  0
    2.6302   -1.4833   -0.1751 H   0  0  0  0  0  0  0  0  0  0  0  0
    3.0053   -3.0718   -0.6009 H   0  0  0  0  0  0  0  0  0  0  0  0
    1.5394   -2.8024    1.4199 H   0  0  0  0  0  0  0  0  0  0  0  0
    3.7531   -2.4864    2.1889 H   0  0  0  0  0  0  0  0  0  0  0  0
    3.5028    1.3340    2.0444 H   0  0  0  0  0  0  0  0  0  0  0  0
    1.9701    0.4981    2.1751 H   0  0  0  0  0  0  0  0  0  0  0  0
    3.0447    0.2005    0.8305 H   0  0  0  0  0  0  0  0  0  0  0  0
    3.9846    0.8898    4.1705 H   0  0  0  0  0  0  0  0  0  0  0  0
    2.9298   -0.3141    4.8042 H   0  0  0  0  0  0  0  0  0  0  0  0
    5.4818   -0.6562    5.5090 H   0  0  0  0  0  0  0  0  0  0  0  0
    5.6475   -4.1429    4.8022 H   0  0  0  0  0  0  0  0  0  0  0  0
    2.8026   -2.0364    5.8177 H   0  0  0  0  0  0  0  0  0  0  0  0
    2.8624   -3.7278    5.9249 H   0  0  0  0  0  0  0  0  0  0  0  0
    1.5657   -2.9764    5.0003 H   0  0  0  0  0  0  0  0  0  0  0  0
    3.1715   -5.6544    5.0670 H   0  0  0  0  0  0  0  0  0  0  0  0
    3.3820   -7.4719    2.9906 H   0  0  0  0  0  0  0  0  0  0  0  0
    1.9485   -7.4045    3.9975 H   0  0  0  0  0  0  0  0  0  0  0  0
    5.1164   -4.4950    1.3309 H   0  0  0  0  0  0  0  0  0  0  0  0
    4.0141   -5.0273    0.0143 H   0  0  0  0  0  0  0  0  0  0  0  0
    4.3709   -6.0589    1.3644 H   0  0  0  0  0  0  0  0  0  0  0  0
    5.3136    0.1670    0.6901 H   0  0  0  0  0  0  0  0  0  0  0  0
    7.4000   -0.4152    1.2743 H   0  0  0  0  0  0  0  0  0  0  0  0
  1  2  1  0
  1 30  1  0
  1 31  1  0
  1 32  1  0
  2  3  2  0
  2  4  1  0
  4  5  1  0
  5 28  1  0
  5  6  1  0
  5 33  1  6
  6  7  1  0
  6 34  1  0
  6 35  1  0
  7 26  1  0
  7  8  1  0
  7 36  1  6
  8 18  1  0
  8  9  1  0
  8 37  1  1
  9 14  1  0
  9 10  1  6
  9 11  1  0
 10 38  1  0
 10 39  1  0
 10 40  1  0
 11 12  1  0
 11 41  1  0
 11 42  1  0
 12 16  1  0
 12 13  1  0
 12 43  1  1
 14 13  1  1
 14 15  1  0
 14 28  1  0
 15 16  1  0
 16 17  1  1
 16 18  1  0
 17 44  1  0
 18 19  1  1
 18 20  1  0
 19 45  1  0
 19 46  1  0
 19 47  1  0
 20 26  1  0
 20 21  2  0
 21 22  1  0
 21 48  1  0
 22 23  1  0
 22 49  1  0
 22 50  1  0
 23 24  2  0
 23 25  1  0
 25 26  1  0
 26 27  1  6
 27 51  1  0
 27 52  1  0
 27 53  1  0
 28 29  1  0
 28 54  1  6
 29 55  1  0
M  END
>  <i_m_ct_stereo_status>  (179) 
1

>  <s_m_source_file>  (179) 
/var/tmp/pbs.5076255.sched01/tmpguie9axe/40t6mruo9t.sdf

>  <i_m_source_file_index>  (179) 
30

>  <i_lp_mmshare_version>  (179) 
48012

>  <i_f3d_flags>  (179) 
0

>  <s_epik_input>  (179) 
W0NIM11DKD1PKU9bQ0BASF0oW0NAQEhdMVtPSF0pW0NIMl1bQ0BIXShbQ0BIXTJbQ0BAXTMoW0NAQF0xNDUpW0NIM10pW0NAQF02KFtDSDNdKUMoPVtDSF1bQ0gyXUMoPU8pTzYpW0NAQF0yKFtDSDNdKVtDQF0oTzUpKFtPSF0pW0NAQEhdKE80KVtDSDJdMw==

>  <s_epik_cmdline>  (179) 
J2VwaWtfcHl0aG9uJywgJy1waHQnLCAnMi4wJywgJy1waCcsICc3LjAnLCAnLXRuJywgJzgnLCAnLW1hJywgJzIwMCcsICctaW1hZScsICc8aW5maWxlLm1hZT4nLCAnLW9tYWUnLCAnPG91dGZpbGUubWFlPic=

>  <r_lp_tautomer_probability>  (179) 
1

>  <r_epik_Ionization_Penalty>  (179) 
5.65321e-05

>  <r_epik_Ionization_Penalty_Charging>  (179) 
0

>  <r_epik_Ionization_Penalty_Neutral>  (179) 
5.65321e-05

>  <r_epik_State_Penalty>  (179) 
-0

>  <r_epik_Charging_Adjusted_Penalty>  (179) 
0

>  <i_epik_Tot_Q>  (179) 
0

>  <i_epik_Tot_abs_Q>  (179) 
0

>  <s_epik_Chemistry_Notes>  (179) 
This compound has an ester and may undergo hydrolysis at high or low pH.

>  <s_lp_Force_Field>  (179) 
OPLS3e

>  <r_lp_Energy>  (179) 
163.715

>  <b_lp_Chiralities_Consistent>  (179) 
1

>  <s_lp_Variant>  (179) 
43:0-1

>  <s_i_glide_gridfile>  (179) 
pfpi4k_grid

>  <i_i_glide_lignum>  (179) 
30

>  <i_i_glide_rotatable_bonds>  (179) 
4

>  <r_i_docking_score>  (179) 
-3.65719

>  <r_i_glide_ligand_efficiency>  (179) 
-0.12611

>  <r_i_glide_ligand_efficiency_sa>  (179) 
-0.38745

>  <r_i_glide_ligand_efficiency_ln>  (179) 
-0.837403

>  <r_i_glide_gscore>  (179) 
-3.65719

>  <r_i_glide_lipo>  (179) 
-0.319656

>  <r_i_glide_hbond>  (179) 
-0.0514514

>  <r_i_glide_metal>  (179) 
-0

>  <r_i_glide_rewards>  (179) 
-0.963244

>  <r_i_glide_evdw>  (179) 
-25.2113

>  <r_i_glide_ecoul>  (179) 
-7.65536

>  <r_i_glide_erotb>  (179) 
0.119033

>  <r_i_glide_esite>  (179) 
-0.0329989

>  <r_i_glide_emodel>  (179) 
-35.041

>  <r_i_glide_energy>  (179) 
-32.8667

>  <r_i_glide_einternal>  (179) 
8.1807

>  <r_i_glide_intrahb_reward>  (179) 
-0

>  <i_i_glide_confnum>  (179) 
2

>  <i_i_glide_posenum>  (179) 
29

>  <r_i_glide_eff_state_penalty>  (179) 
0

>  <ligand_id>  (179) 
43

>  <original_smiles>  (179) 
CC(=O)OC1CC2C3C4(C)CC5OC4(OC5(O)C3(C)C3=CCC(=O)OC32C)C1O

>  <smiles>  (179) 
[H]OC1([H])C([H])(OC(=O)C([H])([H])[H])C([H])([H])C2([H])C3(C([H])([H])[H])OC(=O)C([H])([H])C([H])=C3C3(C([H])([H])[H])C4(O[H])OC15OC4([H])C([H])([H])C5(C([H])([H])[H])C23[H]

$$$$
43:0:1
     RDKit          3D

 55 60  0  0  1  0  0  0  0  0999 V2000
    1.8919    2.3820    4.6542 C   0  0  0  0  0  0  0  0  0  0  0  0
    2.1230    0.9548    4.2158 C   0  0  0  0  0  0  0  0  0  0  0  0
    1.2891    0.0947    4.4886 O   0  0  0  0  0  0  0  0  0  0  0  0
    3.2927    0.7762    3.5444 O   0  0  0  0  0  0  0  0  0  0  0  0
    3.7205   -0.4994    3.0286 C   0  0  2  0  0  0  0  0  0  0  0  0
    2.7526   -0.8196    1.7759 C   0  0  0  0  0  0  0  0  0  0  0  0
    2.9231   -2.1496    0.8957 C   0  0  2  0  0  0  0  0  0  0  0  0
    3.1077   -3.4482    1.7113 C   0  0  1  0  0  0  0  0  0  0  0  0
    2.8964   -3.5794    3.2397 C   0  0  1  0  0  0  0  0  0  0  0  0
    1.5470   -3.0829    3.7997 C   0  0  0  0  0  0  0  0  0  0  0  0
    3.0426   -5.0063    3.7301 C   0  0  0  0  0  0  0  0  0  0  0  0
    4.5524   -4.9917    3.8851 C   0  0  2  0  0  0  0  0  0  0  0  0
    4.5572   -3.8946    4.8352 O   0  0  0  0  0  0  0  0  0  0  0  0
    4.2460   -2.9683    3.8819 C   0  0  1  0  0  0  0  0  0  0  0  0
    5.3778   -3.1239    3.0265 O   0  0  0  0  0  0  0  0  0  0  0  0
    5.2241   -4.4209    2.5502 C   0  0  1  0  0  0  0  0  0  0  0  0
    6.4539   -5.0617    2.2799 O   0  0  0  0  0  0  0  0  0  0  0  0
    4.2728   -4.3395    1.2344 C   0  0  1  0  0  0  0  0  0  0  0  0
    3.8603   -5.7742    0.7871 C   0  0  0  0  0  0  0  0  0  0  0  0
    4.7462   -3.5424   -0.0117 C   0  0  0  0  0  0  0  0  0  0  0  0
    5.3392   -4.0603   -1.1056 C   0  0  0  0  0  0  0  0  0  0  0  0
    5.4607   -3.2781   -2.3967 C   0  0  0  0  0  0  0  0  0  0  0  0
    4.2678   -2.3395   -2.6111 C   0  0  0  0  0  0  0  0  0  0  0  0
    3.9580   -2.0003   -3.7507 O   0  0  0  0  0  0  0  0  0  0  0  0
    3.6366   -1.8961   -1.4771 O   0  0  0  0  0  0  0  0  0  0  0  0
    4.1216   -2.1535   -0.1485 C   0  0  1  0  0  0  0  0  0  0  0  0
    5.2337   -1.1136    0.1210 C   0  0  0  0  0  0  0  0  0  0  0  0
    4.0400   -1.4729    4.2741 C   0  0  1  0  0  0  0  0  0  0  0  0
    5.2073   -0.9772    4.9032 O   0  0  0  0  0  0  0  0  0  0  0  0
    2.7353    3.0342    4.4161 H   0  0  0  0  0  0  0  0  0  0  0  0
    1.7190    2.3752    5.7265 H   0  0  0  0  0  0  0  0  0  0  0  0
    0.9911    2.7435    4.1659 H   0  0  0  0  0  0  0  0  0  0  0  0
    4.6979   -0.3032    2.5882 H   0  0  0  0  0  0  0  0  0  0  0  0
    1.7080   -0.7762    2.0661 H   0  0  0  0  0  0  0  0  0  0  0  0
    2.8346    0.0259    1.0919 H   0  0  0  0  0  0  0  0  0  0  0  0
    2.0025   -2.2939    0.3486 H   0  0  0  0  0  0  0  0  0  0  0  0
    3.7647   -2.6793    1.8916 H   0  0  0  0  0  0  0  0  0  0  0  0
    1.4639   -3.2357    4.8796 H   0  0  0  0  0  0  0  0  0  0  0  0
    0.7154   -3.6209    3.3363 H   0  0  0  0  0  0  0  0  0  0  0  0
    1.3784   -2.0465    3.6130 H   0  0  0  0  0  0  0  0  0  0  0  0
    2.6101   -5.1504    4.7222 H   0  0  0  0  0  0  0  0  0  0  0  0
    2.5729   -5.7593    3.1163 H   0  0  0  0  0  0  0  0  0  0  0  0
    4.9775   -5.9206    4.2622 H   0  0  0  0  0  0  0  0  0  0  0  0
    6.8905   -5.1998    3.1047 H   0  0  0  0  0  0  0  0  0  0  0  0
    3.6492   -6.4679    1.5919 H   0  0  0  0  0  0  0  0  0  0  0  0
    4.6496   -6.2832    0.2377 H   0  0  0  0  0  0  0  0  0  0  0  0
    2.9819   -5.7442    0.1432 H   0  0  0  0  0  0  0  0  0  0  0  0
    5.7258   -5.0630   -1.1133 H   0  0  0  0  0  0  0  0  0  0  0  0
    6.4004   -2.7260   -2.4441 H   0  0  0  0  0  0  0  0  0  0  0  0
    5.4551   -3.9855   -3.2295 H   0  0  0  0  0  0  0  0  0  0  0  0
    5.7518   -1.3071    1.0603 H   0  0  0  0  0  0  0  0  0  0  0  0
    4.8560   -0.0918    0.1181 H   0  0  0  0  0  0  0  0  0  0  0  0
    5.9986   -1.1613   -0.6526 H   0  0  0  0  0  0  0  0  0  0  0  0
    3.2529   -1.4665    5.0249 H   0  0  0  0  0  0  0  0  0  0  0  0
    5.9312   -1.0552    4.3003 H   0  0  0  0  0  0  0  0  0  0  0  0
  1  2  1  0
  1 30  1  0
  1 31  1  0
  1 32  1  0
  2  3  2  0
  2  4  1  0
  4  5  1  0
  5 28  1  0
  5  6  1  0
  5 33  1  6
  6  7  1  0
  6 34  1  0
  6 35  1  0
  7 26  1  0
  7  8  1  0
  7 36  1  6
  8 18  1  0
  8  9  1  0
  8 37  1  6
  9 14  1  0
  9 10  1  1
  9 11  1  0
 10 38  1  0
 10 39  1  0
 10 40  1  0
 11 12  1  0
 11 41  1  0
 11 42  1  0
 12 16  1  0
 12 13  1  0
 12 43  1  1
 14 13  1  1
 14 15  1  0
 14 28  1  0
 15 16  1  0
 16 17  1  6
 16 18  1  0
 17 44  1  0
 18 19  1  6
 18 20  1  0
 19 45  1  0
 19 46  1  0
 19 47  1  0
 20 26  1  0
 20 21  2  0
 21 22  1  0
 21 48  1  0
 22 23  1  0
 22 49  1  0
 22 50  1  0
 23 24  2  0
 23 25  1  0
 25 26  1  0
 26 27  1  1
 27 51  1  0
 27 52  1  0
 27 53  1  0
 28 29  1  0
 28 54  1  1
 29 55  1  0
M  END
>  <i_m_ct_stereo_status>  (180) 
1

>  <s_m_source_file>  (180) 
/var/tmp/pbs.5076255.sched01/tmpguie9axe/40t6mruo9t.sdf

>  <i_m_source_file_index>  (180) 
30

>  <i_lp_mmshare_version>  (180) 
48012

>  <i_f3d_flags>  (180) 
0

>  <s_epik_input>  (180) 
W0NIM11DKD1PKU9bQ0BASF0oW0NAQEhdMVtPSF0pW0NIMl1bQ0BIXShbQ0BIXTJbQ0BAXTMoW0NAQF0xNDUpW0NIM10pW0NAQF02KFtDSDNdKUMoPVtDSF1bQ0gyXUMoPU8pTzYpW0NAQF0yKFtDSDNdKVtDQF0oTzUpKFtPSF0pW0NAQEhdKE80KVtDSDJdMw==

>  <s_epik_cmdline>  (180) 
J2VwaWtfcHl0aG9uJywgJy1waHQnLCAnMi4wJywgJy1waCcsICc3LjAnLCAnLXRuJywgJzgnLCAnLW1hJywgJzIwMCcsICctaW1hZScsICc8aW5maWxlLm1hZT4nLCAnLW9tYWUnLCAnPG91dGZpbGUubWFlPic=

>  <r_lp_tautomer_probability>  (180) 
1

>  <r_epik_Ionization_Penalty>  (180) 
5.65321e-05

>  <r_epik_Ionization_Penalty_Charging>  (180) 
0

>  <r_epik_Ionization_Penalty_Neutral>  (180) 
5.65321e-05

>  <r_epik_State_Penalty>  (180) 
-0

>  <r_epik_Charging_Adjusted_Penalty>  (180) 
0

>  <i_epik_Tot_Q>  (180) 
0

>  <i_epik_Tot_abs_Q>  (180) 
0

>  <s_epik_Chemistry_Notes>  (180) 
This compound has an ester and may undergo hydrolysis at high or low pH.

>  <s_lp_Force_Field>  (180) 
OPLS3e

>  <r_lp_Energy>  (180) 
163.715

>  <b_lp_Chiralities_Consistent>  (180) 
1

>  <s_lp_Variant>  (180) 
43:0-1

>  <s_i_glide_gridfile>  (180) 
pfpi4k_grid

>  <i_i_glide_lignum>  (180) 
30

>  <i_i_glide_rotatable_bonds>  (180) 
4

>  <r_i_docking_score>  (180) 
-2.72176

>  <r_i_glide_ligand_efficiency>  (180) 
-0.0938539

>  <r_i_glide_ligand_efficiency_sa>  (180) 
-0.288349

>  <r_i_glide_ligand_efficiency_ln>  (180) 
-0.623215

>  <r_i_glide_gscore>  (180) 
-2.72176

>  <r_i_glide_lipo>  (180) 
-0.410168

>  <r_i_glide_hbond>  (180) 
0

>  <r_i_glide_metal>  (180) 
-0

>  <r_i_glide_rewards>  (180) 
-0.841191

>  <r_i_glide_evdw>  (180) 
-27.3853

>  <r_i_glide_ecoul>  (180) 
-1.45919

>  <r_i_glide_erotb>  (180) 
0.119033

>  <r_i_glide_esite>  (180) 
-0.00129519

>  <r_i_glide_emodel>  (180) 
-32.7085

>  <r_i_glide_energy>  (180) 
-28.8445

>  <r_i_glide_einternal>  (180) 
2.35364

>  <r_i_glide_intrahb_reward>  (180) 
-0

>  <i_i_glide_confnum>  (180) 
2

>  <i_i_glide_posenum>  (180) 
9

>  <r_i_glide_eff_state_penalty>  (180) 
0

>  <ligand_id>  (180) 
43

>  <original_smiles>  (180) 
CC(=O)OC1CC2C3C4(C)CC5OC4(OC5(O)C3(C)C3=CCC(=O)OC32C)C1O

>  <smiles>  (180) 
[H]OC1([H])C([H])(OC(=O)C([H])([H])[H])C([H])([H])C2([H])C3(C([H])([H])[H])OC(=O)C([H])([H])C([H])=C3C3(C([H])([H])[H])C4(O[H])OC15OC4([H])C([H])([H])C5(C([H])([H])[H])C23[H]

$$$$
43:0:2
     RDKit          3D

 55 60  0  0  1  0  0  0  0  0999 V2000
    1.5810    1.9541    5.1471 C   0  0  0  0  0  0  0  0  0  0  0  0
    1.8743    0.5794    4.5922 C   0  0  0  0  0  0  0  0  0  0  0  0
    1.0716   -0.3290    4.7814 O   0  0  0  0  0  0  0  0  0  0  0  0
    3.0638    0.5026    3.9249 O   0  0  0  0  0  0  0  0  0  0  0  0
    3.5370   -0.7028    3.2893 C   0  0  2  0  0  0  0  0  0  0  0  0
    2.5819   -0.9411    2.0099 C   0  0  0  0  0  0  0  0  0  0  0  0
    2.7969   -2.1769    1.0140 C   0  0  2  0  0  0  0  0  0  0  0  0
    3.0316   -3.5372    1.7049 C   0  0  1  0  0  0  0  0  0  0  0  0
    2.8297   -3.8184    3.2124 C   0  0  1  0  0  0  0  0  0  0  0  0
    1.4609   -3.4299    3.8092 C   0  0  0  0  0  0  0  0  0  0  0  0
    3.0291   -5.2765    3.5705 C   0  0  0  0  0  0  0  0  0  0  0  0
    4.5394   -5.2181    3.7319 C   0  0  2  0  0  0  0  0  0  0  0  0
    4.4930   -4.2144    4.7806 O   0  0  0  0  0  0  0  0  0  0  0  0
    4.1538   -3.2176    3.9124 C   0  0  1  0  0  0  0  0  0  0  0  0
    5.2892   -3.2539    3.0446 O   0  0  0  0  0  0  0  0  0  0  0  0
    5.1880   -4.5022    2.4502 C   0  0  1  0  0  0  0  0  0  0  0  0
    6.4459   -5.0615    2.1092 O   0  0  0  0  0  0  0  0  0  0  0  0
    4.2306   -4.3381    1.1514 C   0  0  1  0  0  0  0  0  0  0  0  0
    3.8781   -5.7407    0.5734 C   0  0  0  0  0  0  0  0  0  0  0  0
    4.6765   -3.4138   -0.0138 C   0  0  0  0  0  0  0  0  0  0  0  0
    5.2967   -3.8066   -1.1446 C   0  0  0  0  0  0  0  0  0  0  0  0
    5.3921   -2.9064   -2.3588 C   0  0  0  0  0  0  0  0  0  0  0  0
    4.1641   -1.9990   -2.4927 C   0  0  0  0  0  0  0  0  0  0  0  0
    3.8461   -1.5708   -3.5987 O   0  0  0  0  0  0  0  0  0  0  0  0
    3.5105   -1.6856   -1.3272 O   0  0  0  0  0  0  0  0  0  0  0  0
    3.9984   -2.0426   -0.0241 C   0  0  1  0  0  0  0  0  0  0  0  0
    5.0715   -0.9909    0.3442 C   0  0  0  0  0  0  0  0  0  0  0  0
    3.8914   -1.7741    4.4384 C   0  0  1  0  0  0  0  0  0  0  0  0
    5.0364   -1.2883    5.1139 O   0  0  0  0  0  0  0  0  0  0  0  0
    2.3982    2.6551    4.9739 H   0  0  0  0  0  0  0  0  0  0  0  0
    1.3996    1.8446    6.2118 H   0  0  0  0  0  0  0  0  0  0  0  0
    0.6693    2.3159    4.6808 H   0  0  0  0  0  0  0  0  0  0  0  0
    4.5064   -0.4300    2.8728 H   0  0  0  0  0  0  0  0  0  0  0  0
    1.5361   -0.9642    2.2954 H   0  0  0  0  0  0  0  0  0  0  0  0
    2.6318   -0.0358    1.4041 H   0  0  0  0  0  0  0  0  0  0  0  0
    1.8696   -2.2957    0.4710 H   0  0  0  0  0  0  0  0  0  0  0  0
    3.6605   -2.7633    1.9537 H   0  0  0  0  0  0  0  0  0  0  0  0
    1.3794   -3.6812    4.8715 H   0  0  0  0  0  0  0  0  0  0  0  0
    0.6493   -3.9506    3.2927 H   0  0  0  0  0  0  0  0  0  0  0  0
    1.2506   -2.3864    3.7137 H   0  0  0  0  0  0  0  0  0  0  0  0
    2.6009   -5.5274    4.5437 H   0  0  0  0  0  0  0  0  0  0  0  0
    2.5893   -5.9875    2.8875 H   0  0  0  0  0  0  0  0  0  0  0  0
    5.0006   -6.1572    4.0282 H   0  0  0  0  0  0  0  0  0  0  0  0
    6.3550   -6.0001    2.1246 H   0  0  0  0  0  0  0  0  0  0  0  0
    3.6933   -6.5131    1.3110 H   0  0  0  0  0  0  0  0  0  0  0  0
    4.6869   -6.1646   -0.0192 H   0  0  0  0  0  0  0  0  0  0  0  0
    2.9989   -5.6848   -0.0676 H   0  0  0  0  0  0  0  0  0  0  0  0
    5.7333   -4.7850   -1.2389 H   0  0  0  0  0  0  0  0  0  0  0  0
    6.3086   -2.3163   -2.3437 H   0  0  0  0  0  0  0  0  0  0  0  0
    5.4190   -3.5318   -3.2546 H   0  0  0  0  0  0  0  0  0  0  0  0
    5.5965   -1.2488    1.2639 H   0  0  0  0  0  0  0  0  0  0  0  0
    4.6567    0.0122    0.4329 H   0  0  0  0  0  0  0  0  0  0  0  0
    5.8392   -0.9334   -0.4261 H   0  0  0  0  0  0  0  0  0  0  0  0
    3.1025   -1.8657    5.1798 H   0  0  0  0  0  0  0  0  0  0  0  0
    4.8452   -0.4209    5.4382 H   0  0  0  0  0  0  0  0  0  0  0  0
  1  2  1  0
  1 30  1  0
  1 31  1  0
  1 32  1  0
  2  3  2  0
  2  4  1  0
  4  5  1  0
  5 28  1  0
  5  6  1  0
  5 33  1  6
  6  7  1  0
  6 34  1  0
  6 35  1  0
  7 26  1  0
  7  8  1  0
  7 36  1  6
  8 18  1  0
  8  9  1  0
  8 37  1  6
  9 14  1  0
  9 10  1  1
  9 11  1  0
 10 38  1  0
 10 39  1  0
 10 40  1  0
 11 12  1  0
 11 41  1  0
 11 42  1  0
 12 16  1  0
 12 13  1  0
 12 43  1  1
 14 13  1  1
 14 15  1  0
 14 28  1  0
 15 16  1  0
 16 17  1  6
 16 18  1  0
 17 44  1  0
 18 19  1  6
 18 20  1  0
 19 45  1  0
 19 46  1  0
 19 47  1  0
 20 26  1  0
 20 21  2  0
 21 22  1  0
 21 48  1  0
 22 23  1  0
 22 49  1  0
 22 50  1  0
 23 24  2  0
 23 25  1  0
 25 26  1  0
 26 27  1  1
 27 51  1  0
 27 52  1  0
 27 53  1  0
 28 29  1  0
 28 54  1  1
 29 55  1  0
M  END
>  <i_m_ct_stereo_status>  (181) 
1

>  <s_m_source_file>  (181) 
/var/tmp/pbs.5076255.sched01/tmpguie9axe/40t6mruo9t.sdf

>  <i_m_source_file_index>  (181) 
30

>  <i_lp_mmshare_version>  (181) 
48012

>  <i_f3d_flags>  (181) 
0

>  <s_epik_input>  (181) 
W0NIM11DKD1PKU9bQ0BASF0oW0NAQEhdMVtPSF0pW0NIMl1bQ0BIXShbQ0BIXTJbQ0BAXTMoW0NAQF0xNDUpW0NIM10pW0NAQF02KFtDSDNdKUMoPVtDSF1bQ0gyXUMoPU8pTzYpW0NAQF0yKFtDSDNdKVtDQF0oTzUpKFtPSF0pW0NAQEhdKE80KVtDSDJdMw==

>  <s_epik_cmdline>  (181) 
J2VwaWtfcHl0aG9uJywgJy1waHQnLCAnMi4wJywgJy1waCcsICc3LjAnLCAnLXRuJywgJzgnLCAnLW1hJywgJzIwMCcsICctaW1hZScsICc8aW5maWxlLm1hZT4nLCAnLW9tYWUnLCAnPG91dGZpbGUubWFlPic=

>  <r_lp_tautomer_probability>  (181) 
1

>  <r_epik_Ionization_Penalty>  (181) 
5.65321e-05

>  <r_epik_Ionization_Penalty_Charging>  (181) 
0

>  <r_epik_Ionization_Penalty_Neutral>  (181) 
5.65321e-05

>  <r_epik_State_Penalty>  (181) 
-0

>  <r_epik_Charging_Adjusted_Penalty>  (181) 
0

>  <i_epik_Tot_Q>  (181) 
0

>  <i_epik_Tot_abs_Q>  (181) 
0

>  <s_epik_Chemistry_Notes>  (181) 
This compound has an ester and may undergo hydrolysis at high or low pH.

>  <s_lp_Force_Field>  (181) 
OPLS3e

>  <r_lp_Energy>  (181) 
163.715

>  <b_lp_Chiralities_Consistent>  (181) 
1

>  <s_lp_Variant>  (181) 
43:0-1

>  <s_i_glide_gridfile>  (181) 
pfpi4k_grid

>  <i_i_glide_lignum>  (181) 
30

>  <i_i_glide_rotatable_bonds>  (181) 
4

>  <r_i_docking_score>  (181) 
-2.5499

>  <r_i_glide_ligand_efficiency>  (181) 
-0.0879277

>  <r_i_glide_ligand_efficiency_sa>  (181) 
-0.270142

>  <r_i_glide_ligand_efficiency_ln>  (181) 
-0.583863

>  <r_i_glide_gscore>  (181) 
-2.5499

>  <r_i_glide_lipo>  (181) 
-0.410677

>  <r_i_glide_hbond>  (181) 
0

>  <r_i_glide_metal>  (181) 
-0

>  <r_i_glide_rewards>  (181) 
-0.684424

>  <r_i_glide_evdw>  (181) 
-27.4637

>  <r_i_glide_ecoul>  (181) 
-1.33378

>  <r_i_glide_erotb>  (181) 
0.119033

>  <r_i_glide_esite>  (181) 
-0.000581736

>  <r_i_glide_emodel>  (181) 
-31.5245

>  <r_i_glide_energy>  (181) 
-28.7975

>  <r_i_glide_einternal>  (181) 
4.0703

>  <r_i_glide_intrahb_reward>  (181) 
-0

>  <i_i_glide_confnum>  (181) 
2

>  <i_i_glide_posenum>  (181) 
28

>  <r_i_glide_eff_state_penalty>  (181) 
0

>  <ligand_id>  (181) 
43

>  <original_smiles>  (181) 
CC(=O)OC1CC2C3C4(C)CC5OC4(OC5(O)C3(C)C3=CCC(=O)OC32C)C1O

>  <smiles>  (181) 
[H]OC1([H])C([H])(OC(=O)C([H])([H])[H])C([H])([H])C2([H])C3(C([H])([H])[H])OC(=O)C([H])([H])C([H])=C3C3(C([H])([H])[H])C4(O[H])OC15OC4([H])C([H])([H])C5(C([H])([H])[H])C23[H]

$$$$
44:1:0
     RDKit          3D

 75 83  0  0  1  0  0  0  0  0999 V2000
   -2.4006    4.0965    8.5694 C   0  0  0  0  0  0  0  0  0  0  0  0
   -1.3976    4.4121    7.6162 O   0  0  0  0  0  0  0  0  0  0  0  0
   -0.1263    4.6964    8.1845 C   0  0  0  0  0  0  0  0  0  0  0  0
    0.9977    5.1311    7.1821 C   0  0  2  0  0  0  0  0  0  0  0  0
    1.6092    4.2268    6.2722 O   0  0  0  0  0  0  0  0  0  0  0  0
    0.7642    3.3934    5.5606 C   0  0  1  0  0  0  0  0  0  0  0  0
   -0.3348    4.1836    4.8027 C   0  0  1  0  0  0  0  0  0  0  0  0
   -1.6202    3.2764    4.6323 C   0  0  0  0  0  0  0  0  0  0  0  0
   -1.2315    1.8862    4.0830 C   0  0  2  0  0  0  0  0  0  0  0  0
   -1.1013    1.8818    2.5531 C   0  0  0  0  0  0  0  0  0  0  0  0
   -1.6980    0.5893    4.4812 O   0  0  0  0  0  0  0  0  0  0  0  0
   -0.5368    1.0230    5.1840 C   0  0  1  0  0  0  0  0  0  0  0  0
    0.9864    0.8426    4.9189 C   0  0  2  0  0  0  0  0  0  0  0  0
    1.1501   -0.0526    3.6312 C   0  0  0  0  0  0  0  0  0  0  0  0
    1.9078    0.2159    6.0248 C   0  0  0  0  0  0  0  0  0  0  0  0
    3.2761    0.2010    5.6790 C   0  0  0  0  0  0  0  0  0  0  0  0
    4.0530    0.9424    6.6050 C   0  0  0  0  0  0  0  0  0  0  0  0
    3.7228    0.7422    7.9581 C   0  0  0  0  0  0  0  0  0  0  0  0
    2.7620   -0.2455    8.2323 C   0  0  0  0  0  0  0  0  0  0  0  0
    1.6225    0.0262    7.4107 C   0  0  0  0  0  0  0  0  0  0  0  0
    0.4530    0.5744    8.2029 C   0  0  0  0  0  0  0  0  0  0  0  0
    0.5985    1.4517    9.2585 C   0  0  0  0  0  0  0  0  0  0  0  0
    1.7719    2.3672    9.7611 C   0  0  1  0  0  0  0  0  0  0  0  0
    3.0235    1.6842   10.2505 O   0  0  0  0  0  0  0  0  0  0  0  0
    3.6915    1.9549    8.9756 C   0  0  2  0  0  0  0  0  0  0  0  0
    2.6349    3.0447    8.6387 C   0  0  2  0  0  0  0  0  0  0  0  0
    2.9214    4.4386    8.8019 O   0  0  0  0  0  0  0  0  0  0  0  0
    2.2788    5.4897    8.0021 C   0  0  1  0  0  0  0  0  0  0  0  0
    3.3545    6.1504    7.1038 C   0  0  0  0  0  0  0  0  0  0  0  0
    2.7751    7.2442    6.1665 C   0  0  0  0  0  0  0  0  0  0  0  0
    1.5773    6.7698    5.3058 C   0  0  0  0  0  0  0  0  0  0  0  0
    0.4315    6.1827    6.1778 C   0  0  2  0  0  0  0  0  0  0  0  0
   -0.3136    7.3552    6.8717 C   0  0  0  0  0  0  0  0  0  0  0  0
   -0.5856    5.5005    5.3708 O   0  0  0  0  0  0  0  0  0  0  0  0
    4.7816    2.1194    6.0926 C   0  0  0  0  0  0  0  0  0  0  0  0
    5.8970    2.4502    6.4955 O   0  0  0  0  0  0  0  0  0  0  0  0
    4.0102    3.0012    5.3751 O   0  0  0  0  0  0  0  0  0  0  0  0
    3.0350    2.6969    4.3561 C   0  0  0  0  0  0  0  0  0  0  0  0
    1.5304    2.3415    4.6799 C   0  0  2  0  0  0  0  0  0  0  0  0
   -3.3388    3.8989    8.0505 H   0  0  0  0  0  0  0  0  0  0  0  0
   -2.5716    4.9215    9.2623 H   0  0  0  0  0  0  0  0  0  0  0  0
   -2.1420    3.2040    9.1400 H   0  0  0  0  0  0  0  0  0  0  0  0
   -0.2562    5.4882    8.9215 H   0  0  0  0  0  0  0  0  0  0  0  0
    0.1577    3.8462    8.7615 H   0  0  0  0  0  0  0  0  0  0  0  0
    0.3246    2.8945    6.4109 H   0  0  0  0  0  0  0  0  0  0  0  0
    0.0389    4.4369    3.8140 H   0  0  0  0  0  0  0  0  0  0  0  0
   -2.1452    3.1568    5.5825 H   0  0  0  0  0  0  0  0  0  0  0  0
   -2.3322    3.7532    3.9534 H   0  0  0  0  0  0  0  0  0  0  0  0
   -0.3326    2.5616    2.1896 H   0  0  0  0  0  0  0  0  0  0  0  0
   -2.0471    2.2008    2.1093 H   0  0  0  0  0  0  0  0  0  0  0  0
   -0.8979    0.8869    2.1561 H   0  0  0  0  0  0  0  0  0  0  0  0
   -0.8078    1.2178    6.2105 H   0  0  0  0  0  0  0  0  0  0  0  0
    0.2912   -0.7152    3.5008 H   0  0  0  0  0  0  0  0  0  0  0  0
    2.0107   -0.7272    3.6326 H   0  0  0  0  0  0  0  0  0  0  0  0
    1.2456    0.5409    2.7192 H   0  0  0  0  0  0  0  0  0  0  0  0
    3.5739    0.2368    4.6653 H   0  0  0  0  0  0  0  0  0  0  0  0
    2.5384   -0.3714    9.2662 H   0  0  0  0  0  0  0  0  0  0  0  0
   -0.5440    0.1767    8.0644 H   0  0  0  0  0  0  0  0  0  0  0  0
    1.5363    1.3317    9.1557 H   0  0  0  0  0  0  0  0  0  0  0  0
    1.4355    3.0580   10.5057 H   0  0  0  0  0  0  0  0  0  0  0  0
    4.6776    2.3657    9.1522 H   0  0  0  0  0  0  0  0  0  0  0  0
    2.2730    2.8006    7.6741 H   0  0  0  0  0  0  0  0  0  0  0  0
    1.9961    6.2530    8.7254 H   0  0  0  0  0  0  0  0  0  0  0  0
    4.1335    6.6065    7.7270 H   0  0  0  0  0  0  0  0  0  0  0  0
    3.8510    5.3982    6.4860 H   0  0  0  0  0  0  0  0  0  0  0  0
    2.4836    8.1103    6.7628 H   0  0  0  0  0  0  0  0  0  0  0  0
    3.5667    7.6059    5.5057 H   0  0  0  0  0  0  0  0  0  0  0  0
    1.2087    7.5905    4.6837 H   0  0  0  0  0  0  0  0  0  0  0  0
    1.9461    6.0168    4.6101 H   0  0  0  0  0  0  0  0  0  0  0  0
    0.3026    7.8355    7.6311 H   0  0  0  0  0  0  0  0  0  0  0  0
   -1.2349    7.0309    7.3588 H   0  0  0  0  0  0  0  0  0  0  0  0
   -0.6012    8.1229    6.1517 H   0  0  0  0  0  0  0  0  0  0  0  0
    2.9922    3.6255    3.7814 H   0  0  0  0  0  0  0  0  0  0  0  0
    3.4515    1.9926    3.6377 H   0  0  0  0  0  0  0  0  0  0  0  0
    1.1747    2.5515    3.6803 H   0  0  0  0  0  0  0  0  0  0  0  0
  1  2  1  0
  1 40  1  0
  1 41  1  0
  1 42  1  0
  2  3  1  0
  4  3  1  1
  3 43  1  0
  3 44  1  0
  4 28  1  0
  4 32  1  0
  4  5  1  0
  5  6  1  0
  6 39  1  0
  6  7  1  0
  6 45  1  1
  7 34  1  0
  7  8  1  0
  7 46  1  6
  8  9  1  0
  8 47  1  0
  8 48  1  0
  9 12  1  0
  9 10  1  6
  9 11  1  0
 10 49  1  0
 10 50  1  0
 10 51  1  0
 11 12  1  0
 12 13  1  0
 12 52  1  1
 13 39  1  0
 13 14  1  6
 13 15  1  0
 14 53  1  0
 14 54  1  0
 14 55  1  0
 15 20  2  0
 15 16  1  0
 16 17  2  0
 16 56  1  0
 17 18  1  0
 17 35  1  0
 18 25  1  0
 18 19  2  0
 19 20  1  0
 19 57  1  0
 20 21  1  0
 21 22  2  3
 21 58  1  0
 22 23  1  0
 22 59  1  0
 23 26  1  0
 23 24  1  0
 23 60  1  1
 24 25  1  0
 25 26  1  0
 25 61  1  1
 26 27  1  0
 26 62  1  6
 27 28  1  0
 28 29  1  0
 28 63  1  1
 29 30  1  0
 29 64  1  0
 29 65  1  0
 30 31  1  0
 30 66  1  0
 30 67  1  0
 31 32  1  0
 31 68  1  0
 31 69  1  0
 32 33  1  1
 32 34  1  0
 33 70  1  0
 33 71  1  0
 33 72  1  0
 35 36  2  0
 35 37  1  0
 37 38  1  0
 38 39  1  0
 38 73  1  0
 38 74  1  0
 39 75  1  6
M  END
>  <i_m_ct_stereo_status>  (182) 
1

>  <s_m_source_file>  (182) 
/var/tmp/pbs.5076255.sched01/tmpguie9axe/40t6mruo9t.sdf

>  <i_m_source_file_index>  (182) 
32

>  <i_lp_mmshare_version>  (182) 
48012

>  <i_f3d_flags>  (182) 
3

>  <s_epik_input>  (182) 
W0NIM11PW0NIMl1bQ0BdMTJbQ0BASF0zT1tDQEBIXTRbQ0BASF01L1tDSF09W0NIXVxjNmM3W0NAQF04KFtDSDNdKVtDQEhdOVtDQEBdKE85KShbQ0gzXSlbQ0gyXVtDQEBIXShPW0NAQF0yKFtDSDNdKVtDSDJdW0NIMl1bQ0gyXTMpW0NAQEhdKE8xKVtDQEhdOFtDSDJdT0MoPU8pYyhbY0hdNyljKFtjSF02KVtDQEhdNE81

>  <s_epik_cmdline>  (182) 
J2VwaWtfcHl0aG9uJywgJy1waHQnLCAnMi4wJywgJy1waCcsICc3LjAnLCAnLXRuJywgJzgnLCAnLW1hJywgJzIwMCcsICctaW1hZScsICc8aW5maWxlLm1hZT4nLCAnLW9tYWUnLCAnPG91dGZpbGUubWFlPic=

>  <r_lp_tautomer_probability>  (182) 
1

>  <r_epik_Ionization_Penalty>  (182) 
6.57712e-12

>  <r_epik_Ionization_Penalty_Charging>  (182) 
0

>  <r_epik_Ionization_Penalty_Neutral>  (182) 
6.57712e-12

>  <r_epik_State_Penalty>  (182) 
-0

>  <r_epik_Charging_Adjusted_Penalty>  (182) 
0

>  <i_epik_Tot_Q>  (182) 
0

>  <i_epik_Tot_abs_Q>  (182) 
0

>  <s_epik_Chemistry_Notes>  (182) 
This compound has an ester and may undergo hydrolysis at high or low pH.

>  <s_lp_Force_Field>  (182) 
OPLS3e

>  <r_lp_Energy>  (182) 
251.63

>  <b_lp_Chiralities_Consistent>  (182) 
0

>  <s_lp_Variant>  (182) 
44:0-2

>  <s_i_glide_gridfile>  (182) 
pfpi4k_grid

>  <i_i_glide_lignum>  (182) 
32

>  <i_i_glide_rotatable_bonds>  (182) 
2

>  <r_i_docking_score>  (182) 
2.48754

>  <r_i_glide_ligand_efficiency>  (182) 
0.0637831

>  <r_i_glide_ligand_efficiency_sa>  (182) 
0.216302

>  <r_i_glide_ligand_efficiency_ln>  (182) 
0.5334

>  <r_i_glide_gscore>  (182) 
2.48754

>  <r_i_glide_lipo>  (182) 
-0.0324166

>  <r_i_glide_hbond>  (182) 
0

>  <r_i_glide_metal>  (182) 
-0

>  <r_i_glide_rewards>  (182) 
-0.00562255

>  <r_i_glide_evdw>  (182) 
-18.7313

>  <r_i_glide_ecoul>  (182) 
-2.17569

>  <r_i_glide_erotb>  (182) 
0.0717183

>  <r_i_glide_esite>  (182) 
0

>  <r_i_glide_emodel>  (182) 
-3.90277

>  <r_i_glide_energy>  (182) 
-20.907

>  <r_i_glide_einternal>  (182) 
0.00732189

>  <r_i_glide_intrahb_reward>  (182) 
-0

>  <i_i_glide_confnum>  (182) 
1

>  <i_i_glide_posenum>  (182) 
17

>  <r_i_glide_eff_state_penalty>  (182) 
0

>  <ligand_id>  (182) 
44

>  <original_smiles>  (182) 
COCC12OC3C4CC5(C)OC5C5(C)c6cc(c7cc6C=CC6OC7C6OC1CCCC2(C)O4)C(=O)OCC35

>  <smiles>  (182) 
[H]C1=C([H])C2([H])OC3([H])c4c([H])c1c1c([H])c4C(=O)OC([H])([H])C4([H])C5([H])OC6(C([H])([H])OC([H])([H])[H])C([H])(OC23[H])C([H])([H])C([H])([H])C([H])([H])C6(C([H])([H])[H])OC5([H])C([H])([H])C2(C([H])([H])[H])OC2([H])C14C([H])([H])[H]

$$$$
44:1:1
     RDKit          3D

 75 83  0  0  1  0  0  0  0  0999 V2000
   -0.0850    1.5779    9.4055 C   0  0  0  0  0  0  0  0  0  0  0  0
    0.7821    1.9883    8.3577 O   0  0  0  0  0  0  0  0  0  0  0  0
    1.9874    1.2408    8.2725 C   0  0  0  0  0  0  0  0  0  0  0  0
    3.0354    1.7330    7.2141 C   0  0  2  0  0  0  0  0  0  0  0  0
    2.8358    1.6136    5.8068 O   0  0  0  0  0  0  0  0  0  0  0  0
    1.5897    1.9804    5.3347 C   0  0  1  0  0  0  0  0  0  0  0  0
    1.2186    3.4333    5.7531 C   0  0  1  0  0  0  0  0  0  0  0  0
   -0.3542    3.5592    5.8240 C   0  0  0  0  0  0  0  0  0  0  0  0
   -1.0032    2.9839    4.5469 C   0  0  2  0  0  0  0  0  0  0  0  0
   -1.0399    4.0135    3.4085 C   0  0  0  0  0  0  0  0  0  0  0  0
   -2.1705    2.1662    4.4190 O   0  0  0  0  0  0  0  0  0  0  0  0
   -0.9622    1.4186    4.5392 C   0  0  1  0  0  0  0  0  0  0  0  0
    0.0607    0.8693    3.4928 C   0  0  2  0  0  0  0  0  0  0  0  0
   -0.5089    1.1967    2.0676 C   0  0  0  0  0  0  0  0  0  0  0  0
    0.4608   -0.6555    3.4761 C   0  0  0  0  0  0  0  0  0  0  0  0
    1.4335   -0.9883    2.5204 C   0  0  0  0  0  0  0  0  0  0  0  0
    2.5916   -1.5323    3.1500 C   0  0  0  0  0  0  0  0  0  0  0  0
    2.3173   -2.4635    4.1765 C   0  0  0  0  0  0  0  0  0  0  0  0
    0.9690   -2.8199    4.3852 C   0  0  0  0  0  0  0  0  0  0  0  0
    0.2122   -1.6132    4.5205 C   0  0  0  0  0  0  0  0  0  0  0  0
   -0.2511   -1.3802    5.9692 C   0  0  0  0  0  0  0  0  0  0  0  0
    0.5149   -1.6734    7.0883 C   0  0  0  0  0  0  0  0  0  0  0  0
    2.0714   -1.9930    7.2936 C   0  0  1  0  0  0  0  0  0  0  0  0
    2.5689   -3.2458    6.6417 O   0  0  0  0  0  0  0  0  0  0  0  0
    3.1618   -2.4702    5.5300 C   0  0  2  0  0  0  0  0  0  0  0  0
    3.0441   -1.1789    6.3860 C   0  0  2  0  0  0  0  0  0  0  0  0
    4.1907   -0.6057    7.0405 O   0  0  0  0  0  0  0  0  0  0  0  0
    4.3108    0.8297    7.3260 C   0  0  1  0  0  0  0  0  0  0  0  0
    5.4721    1.4020    6.4790 C   0  0  0  0  0  0  0  0  0  0  0  0
    5.6676    2.9274    6.6657 C   0  0  0  0  0  0  0  0  0  0  0  0
    4.3762    3.7507    6.4206 C   0  0  0  0  0  0  0  0  0  0  0  0
    3.2005    3.2806    7.3236 C   0  0  2  0  0  0  0  0  0  0  0  0
    3.4604    3.7740    8.7727 C   0  0  0  0  0  0  0  0  0  0  0  0
    1.9166    3.8777    6.9482 O   0  0  0  0  0  0  0  0  0  0  0  0
    3.8649   -0.7860    3.0455 C   0  0  0  0  0  0  0  0  0  0  0  0
    4.9487   -1.3560    2.9163 O   0  0  0  0  0  0  0  0  0  0  0  0
    3.7879    0.5452    3.3609 O   0  0  0  0  0  0  0  0  0  0  0  0
    2.7543    1.4815    2.9844 C   0  0  0  0  0  0  0  0  0  0  0  0
    1.4155    1.6792    3.7984 C   0  0  2  0  0  0  0  0  0  0  0  0
   -0.9747    2.2091    9.3998 H   0  0  0  0  0  0  0  0  0  0  0  0
    0.3879    1.6816   10.3827 H   0  0  0  0  0  0  0  0  0  0  0  0
   -0.4054    0.5464    9.2740 H   0  0  0  0  0  0  0  0  0  0  0  0
    2.4573    1.2490    9.2559 H   0  0  0  0  0  0  0  0  0  0  0  0
    1.7146    0.2227    8.1246 H   0  0  0  0  0  0  0  0  0  0  0  0
    1.0089    1.2680    5.9053 H   0  0  0  0  0  0  0  0  0  0  0  0
    1.5791    4.1146    4.9826 H   0  0  0  0  0  0  0  0  0  0  0  0
   -0.7563    3.0338    6.6893 H   0  0  0  0  0  0  0  0  0  0  0  0
   -0.6447    4.6046    5.9551 H   0  0  0  0  0  0  0  0  0  0  0  0
   -0.0445    4.3390    3.1091 H   0  0  0  0  0  0  0  0  0  0  0  0
   -1.5873    4.9072    3.7151 H   0  0  0  0  0  0  0  0  0  0  0  0
   -1.5560    3.6281    2.5317 H   0  0  0  0  0  0  0  0  0  0  0  0
   -0.9579    0.9280    5.4968 H   0  0  0  0  0  0  0  0  0  0  0  0
   -1.5966    1.2668    2.0665 H   0  0  0  0  0  0  0  0  0  0  0  0
   -0.2908    0.4644    1.2966 H   0  0  0  0  0  0  0  0  0  0  0  0
   -0.1315    2.1384    1.6653 H   0  0  0  0  0  0  0  0  0  0  0  0
    1.6002   -0.3472    1.6713 H   0  0  0  0  0  0  0  0  0  0  0  0
    0.8021   -3.5475    5.1642 H   0  0  0  0  0  0  0  0  0  0  0  0
   -1.3038   -1.1090    6.1164 H   0  0  0  0  0  0  0  0  0  0  0  0
    1.0424   -2.0516    6.4107 H   0  0  0  0  0  0  0  0  0  0  0  0
    2.3520   -1.9938    8.3590 H   0  0  0  0  0  0  0  0  0  0  0  0
    4.1923   -2.7739    5.3363 H   0  0  0  0  0  0  0  0  0  0  0  0
    2.5272   -0.5079    5.7444 H   0  0  0  0  0  0  0  0  0  0  0  0
    4.6489    0.8797    8.3634 H   0  0  0  0  0  0  0  0  0  0  0  0
    6.4011    0.8941    6.7427 H   0  0  0  0  0  0  0  0  0  0  0  0
    5.3116    1.1915    5.4210 H   0  0  0  0  0  0  0  0  0  0  0  0
    6.0551    3.1221    7.6665 H   0  0  0  0  0  0  0  0  0  0  0  0
    6.4464    3.2741    5.9838 H   0  0  0  0  0  0  0  0  0  0  0  0
    4.5801    4.8098    6.5821 H   0  0  0  0  0  0  0  0  0  0  0  0
    4.1078    3.6688    5.3662 H   0  0  0  0  0  0  0  0  0  0  0  0
    4.3027    3.2611    9.2366 H   0  0  0  0  0  0  0  0  0  0  0  0
    2.5949    3.6297    9.4179 H   0  0  0  0  0  0  0  0  0  0  0  0
    3.6808    4.8429    8.7946 H   0  0  0  0  0  0  0  0  0  0  0  0
    3.2803    2.4327    3.0619 H   0  0  0  0  0  0  0  0  0  0  0  0
    2.5564    1.4139    1.9157 H   0  0  0  0  0  0  0  0  0  0  0  0
    1.2042    2.6533    3.3777 H   0  0  0  0  0  0  0  0  0  0  0  0
  1  2  1  0
  1 40  1  0
  1 41  1  0
  1 42  1  0
  2  3  1  0
  4  3  1  1
  3 43  1  0
  3 44  1  0
  4 28  1  0
  4 32  1  0
  4  5  1  0
  5  6  1  0
  6 39  1  0
  6  7  1  0
  6 45  1  1
  7 34  1  0
  7  8  1  0
  7 46  1  6
  8  9  1  0
  8 47  1  0
  8 48  1  0
  9 12  1  0
  9 10  1  6
  9 11  1  0
 10 49  1  0
 10 50  1  0
 10 51  1  0
 11 12  1  0
 12 13  1  0
 12 52  1  1
 13 39  1  0
 13 14  1  6
 13 15  1  0
 14 53  1  0
 14 54  1  0
 14 55  1  0
 15 20  2  0
 15 16  1  0
 16 17  2  0
 16 56  1  0
 17 18  1  0
 17 35  1  0
 18 25  1  0
 18 19  2  0
 19 20  1  0
 19 57  1  0
 20 21  1  0
 21 22  2  3
 21 58  1  0
 22 23  1  0
 22 59  1  0
 23 26  1  0
 23 24  1  0
 23 60  1  1
 24 25  1  0
 25 26  1  0
 25 61  1  6
 26 27  1  0
 26 62  1  6
 27 28  1  0
 28 29  1  0
 28 63  1  1
 29 30  1  0
 29 64  1  0
 29 65  1  0
 30 31  1  0
 30 66  1  0
 30 67  1  0
 31 32  1  0
 31 68  1  0
 31 69  1  0
 32 33  1  1
 32 34  1  0
 33 70  1  0
 33 71  1  0
 33 72  1  0
 35 36  2  0
 35 37  1  0
 37 38  1  0
 38 39  1  0
 38 73  1  0
 38 74  1  0
 39 75  1  6
M  END
>  <i_m_ct_stereo_status>  (183) 
1

>  <s_m_source_file>  (183) 
/var/tmp/pbs.5076255.sched01/tmpguie9axe/40t6mruo9t.sdf

>  <i_m_source_file_index>  (183) 
32

>  <i_lp_mmshare_version>  (183) 
48012

>  <i_f3d_flags>  (183) 
3

>  <s_epik_input>  (183) 
W0NIM11PW0NIMl1bQ0BdMTJbQ0BASF0zT1tDQEBIXTRbQ0BASF01L1tDSF09W0NIXVxjNmM3W0NAQF04KFtDSDNdKVtDQEhdOVtDQEBdKE85KShbQ0gzXSlbQ0gyXVtDQEBIXShPW0NAQF0yKFtDSDNdKVtDSDJdW0NIMl1bQ0gyXTMpW0NAQEhdKE8xKVtDQEhdOFtDSDJdT0MoPU8pYyhbY0hdNyljKFtjSF02KVtDQEhdNE81

>  <s_epik_cmdline>  (183) 
J2VwaWtfcHl0aG9uJywgJy1waHQnLCAnMi4wJywgJy1waCcsICc3LjAnLCAnLXRuJywgJzgnLCAnLW1hJywgJzIwMCcsICctaW1hZScsICc8aW5maWxlLm1hZT4nLCAnLW9tYWUnLCAnPG91dGZpbGUubWFlPic=

>  <r_lp_tautomer_probability>  (183) 
1

>  <r_epik_Ionization_Penalty>  (183) 
6.57712e-12

>  <r_epik_Ionization_Penalty_Charging>  (183) 
0

>  <r_epik_Ionization_Penalty_Neutral>  (183) 
6.57712e-12

>  <r_epik_State_Penalty>  (183) 
-0

>  <r_epik_Charging_Adjusted_Penalty>  (183) 
0

>  <i_epik_Tot_Q>  (183) 
0

>  <i_epik_Tot_abs_Q>  (183) 
0

>  <s_epik_Chemistry_Notes>  (183) 
This compound has an ester and may undergo hydrolysis at high or low pH.

>  <s_lp_Force_Field>  (183) 
OPLS3e

>  <r_lp_Energy>  (183) 
251.63

>  <b_lp_Chiralities_Consistent>  (183) 
0

>  <s_lp_Variant>  (183) 
44:0-2

>  <s_i_glide_gridfile>  (183) 
pfpi4k_grid

>  <i_i_glide_lignum>  (183) 
32

>  <i_i_glide_rotatable_bonds>  (183) 
2

>  <r_i_docking_score>  (183) 
2.77587

>  <r_i_glide_ligand_efficiency>  (183) 
0.0711762

>  <r_i_glide_ligand_efficiency_sa>  (183) 
0.241373

>  <r_i_glide_ligand_efficiency_ln>  (183) 
0.595226

>  <r_i_glide_gscore>  (183) 
2.77587

>  <r_i_glide_lipo>  (183) 
-0.0613159

>  <r_i_glide_hbond>  (183) 
0

>  <r_i_glide_metal>  (183) 
-0

>  <r_i_glide_rewards>  (183) 
-0.021485

>  <r_i_glide_evdw>  (183) 
-21.7713

>  <r_i_glide_ecoul>  (183) 
0.518284

>  <r_i_glide_erotb>  (183) 
0.0717183

>  <r_i_glide_esite>  (183) 
0

>  <r_i_glide_emodel>  (183) 
-3.60415

>  <r_i_glide_energy>  (183) 
-21.253

>  <r_i_glide_einternal>  (183) 
0.0189913

>  <r_i_glide_intrahb_reward>  (183) 
-0

>  <i_i_glide_confnum>  (183) 
3

>  <i_i_glide_posenum>  (183) 
3

>  <r_i_glide_eff_state_penalty>  (183) 
0

>  <ligand_id>  (183) 
44

>  <original_smiles>  (183) 
COCC12OC3C4CC5(C)OC5C5(C)c6cc(c7cc6C=CC6OC7C6OC1CCCC2(C)O4)C(=O)OCC35

>  <smiles>  (183) 
[H]C1=C([H])C2([H])OC3([H])c4c([H])c1c1c([H])c4C(=O)OC([H])([H])C4([H])C5([H])OC6(C([H])([H])OC([H])([H])[H])C([H])(OC23[H])C([H])([H])C([H])([H])C([H])([H])C6(C([H])([H])[H])OC5([H])C([H])([H])C2(C([H])([H])[H])OC2([H])C14C([H])([H])[H]

$$$$
44:1:2
     RDKit          3D

 75 83  0  0  1  0  0  0  0  0999 V2000
    0.4790    4.1146    9.6594 C   0  0  0  0  0  0  0  0  0  0  0  0
    1.3543    4.0085    8.5455 O   0  0  0  0  0  0  0  0  0  0  0  0
    2.2751    2.9308    8.6331 C   0  0  0  0  0  0  0  0  0  0  0  0
    3.2819    2.7845    7.4420 C   0  0  2  0  0  0  0  0  0  0  0  0
    2.8811    2.3812    6.1358 O   0  0  0  0  0  0  0  0  0  0  0  0
    1.7557    2.9998    5.6185 C   0  0  1  0  0  0  0  0  0  0  0  0
    1.8812    4.5501    5.6400 C   0  0  1  0  0  0  0  0  0  0  0  0
    0.4388    5.1880    5.7367 C   0  0  0  0  0  0  0  0  0  0  0  0
   -0.5009    4.5540    4.6903 C   0  0  2  0  0  0  0  0  0  0  0  0
   -0.3742    5.2248    3.3129 C   0  0  0  0  0  0  0  0  0  0  0  0
   -1.8673    4.1386    4.8372 O   0  0  0  0  0  0  0  0  0  0  0  0
   -0.9251    3.1072    5.1112 C   0  0  1  0  0  0  0  0  0  0  0  0
   -0.2595    2.0187    4.2224 C   0  0  2  0  0  0  0  0  0  0  0  0
   -0.8766    2.1322    2.7778 C   0  0  0  0  0  0  0  0  0  0  0  0
   -0.3383    0.4985    4.6021 C   0  0  0  0  0  0  0  0  0  0  0  0
    0.3807   -0.3500    3.7548 C   0  0  0  0  0  0  0  0  0  0  0  0
    1.3935   -1.0667    4.4625 C   0  0  0  0  0  0  0  0  0  0  0  0
    0.9830   -1.5741    5.7054 C   0  0  0  0  0  0  0  0  0  0  0  0
   -0.3829   -1.4425    6.0334 C   0  0  0  0  0  0  0  0  0  0  0  0
   -0.7194   -0.0579    5.8701 C   0  0  0  0  0  0  0  0  0  0  0  0
   -0.8907    0.6709    7.1907 C   0  0  0  0  0  0  0  0  0  0  0  0
   -0.1412    0.4426    8.3208 C   0  0  0  0  0  0  0  0  0  0  0  0
    1.2741   -0.3074    8.5568 C   0  0  1  0  0  0  0  0  0  0  0  0
    1.2956   -1.7752    8.2635 O   0  0  0  0  0  0  0  0  0  0  0  0
    1.9476   -1.5201    6.9743 C   0  0  2  0  0  0  0  0  0  0  0  0
    2.3281   -0.0870    7.4258 C   0  0  2  0  0  0  0  0  0  0  0  0
    3.6565    0.2384    7.8664 O   0  0  0  0  0  0  0  0  0  0  0  0
    4.2300    1.5790    7.7469 C   0  0  1  0  0  0  0  0  0  0  0  0
    5.3986    1.5187    6.7322 C   0  0  0  0  0  0  0  0  0  0  0  0
    6.0605    2.9001    6.4811 C   0  0  0  0  0  0  0  0  0  0  0  0
    5.0539    4.0083    6.0721 C   0  0  0  0  0  0  0  0  0  0  0  0
    3.9104    4.1752    7.1133 C   0  0  2  0  0  0  0  0  0  0  0  0
    4.4816    4.9031    8.3608 C   0  0  0  0  0  0  0  0  0  0  0  0
    2.8242    5.0348    6.6322 O   0  0  0  0  0  0  0  0  0  0  0  0
    2.8006   -0.8211    4.0865 C   0  0  0  0  0  0  0  0  0  0  0  0
    3.6499   -1.7171    4.0873 O   0  0  0  0  0  0  0  0  0  0  0  0
    3.1660    0.4970    4.0284 O   0  0  0  0  0  0  0  0  0  0  0  0
    2.4241    1.5942    3.4532 C   0  0  0  0  0  0  0  0  0  0  0  0
    1.3090    2.3969    4.2349 C   0  0  2  0  0  0  0  0  0  0  0  0
   -0.1835    4.9686    9.5129 H   0  0  0  0  0  0  0  0  0  0  0  0
    1.0279    4.2755   10.5879 H   0  0  0  0  0  0  0  0  0  0  0  0
   -0.1418    3.2270    9.7649 H   0  0  0  0  0  0  0  0  0  0  0  0
    2.8408    3.0461    9.5562 H   0  0  0  0  0  0  0  0  0  0  0  0
    1.7087    2.0435    8.7877 H   0  0  0  0  0  0  0  0  0  0  0  0
    1.0644    2.6813    6.3844 H   0  0  0  0  0  0  0  0  0  0  0  0
    2.3342    4.8708    4.7043 H   0  0  0  0  0  0  0  0  0  0  0  0
    0.0111    5.0472    6.7314 H   0  0  0  0  0  0  0  0  0  0  0  0
    0.4914    6.2697    5.5816 H   0  0  0  0  0  0  0  0  0  0  0  0
    0.6281    5.1290    2.8932 H   0  0  0  0  0  0  0  0  0  0  0  0
   -0.5841    6.2948    3.3877 H   0  0  0  0  0  0  0  0  0  0  0  0
   -1.0955    4.8215    2.6053 H   0  0  0  0  0  0  0  0  0  0  0  0
   -0.9505    2.8928    6.1635 H   0  0  0  0  0  0  0  0  0  0  0  0
   -1.8843    2.5515    2.8085 H   0  0  0  0  0  0  0  0  0  0  0  0
   -0.9910    1.1922    2.2314 H   0  0  0  0  0  0  0  0  0  0  0  0
   -0.2790    2.7647    2.1259 H   0  0  0  0  0  0  0  0  0  0  0  0
    0.6202   -0.0478    2.7625 H   0  0  0  0  0  0  0  0  0  0  0  0
   -0.6324   -1.8444    6.9932 H   0  0  0  0  0  0  0  0  0  0  0  0
   -1.7663    1.3232    7.3560 H   0  0  0  0  0  0  0  0  0  0  0  0
    0.2121   -0.2482    7.8085 H   0  0  0  0  0  0  0  0  0  0  0  0
    1.6546   -0.1168    9.5706 H   0  0  0  0  0  0  0  0  0  0  0  0
    2.8086   -2.1645    6.8426 H   0  0  0  0  0  0  0  0  0  0  0  0
    1.9618    0.5475    6.6661 H   0  0  0  0  0  0  0  0  0  0  0  0
    4.6979    1.7742    8.7123 H   0  0  0  0  0  0  0  0  0  0  0  0
    6.1704    0.8280    7.0874 H   0  0  0  0  0  0  0  0  0  0  0  0
    5.0555    1.1234    5.7728 H   0  0  0  0  0  0  0  0  0  0  0  0
    6.6076    3.2079    7.3736 H   0  0  0  0  0  0  0  0  0  0  0  0
    6.8207    2.7986    5.7026 H   0  0  0  0  0  0  0  0  0  0  0  0
    5.5775    4.9559    5.9256 H   0  0  0  0  0  0  0  0  0  0  0  0
    4.6363    3.7522    5.0980 H   0  0  0  0  0  0  0  0  0  0  0  0
    5.1853    4.2783    8.9137 H   0  0  0  0  0  0  0  0  0  0  0  0
    3.6958    5.2064    9.0530 H   0  0  0  0  0  0  0  0  0  0  0  0
    5.0074    5.8169    8.0769 H   0  0  0  0  0  0  0  0  0  0  0  0
    3.2131    2.3219    3.2466 H   0  0  0  0  0  0  0  0  0  0  0  0
    2.0810    1.3294    2.4557 H   0  0  0  0  0  0  0  0  0  0  0  0
    1.3440    3.2518    3.5741 H   0  0  0  0  0  0  0  0  0  0  0  0
  1  2  1  0
  1 40  1  0
  1 41  1  0
  1 42  1  0
  2  3  1  0
  4  3  1  1
  3 43  1  0
  3 44  1  0
  4 28  1  0
  4 32  1  0
  4  5  1  0
  5  6  1  0
  6 39  1  0
  6  7  1  0
  6 45  1  1
  7 34  1  0
  7  8  1  0
  7 46  1  6
  8  9  1  0
  8 47  1  0
  8 48  1  0
  9 12  1  0
  9 10  1  6
  9 11  1  0
 10 49  1  0
 10 50  1  0
 10 51  1  0
 11 12  1  0
 12 13  1  0
 12 52  1  1
 13 39  1  0
 13 14  1  6
 13 15  1  0
 14 53  1  0
 14 54  1  0
 14 55  1  0
 15 20  2  0
 15 16  1  0
 16 17  2  0
 16 56  1  0
 17 18  1  0
 17 35  1  0
 18 25  1  0
 18 19  2  0
 19 20  1  0
 19 57  1  0
 20 21  1  0
 21 22  2  3
 21 58  1  0
 22 23  1  0
 22 59  1  0
 23 26  1  0
 23 24  1  0
 23 60  1  1
 24 25  1  0
 25 26  1  0
 25 61  1  6
 26 27  1  0
 26 62  1  6
 27 28  1  0
 28 29  1  0
 28 63  1  1
 29 30  1  0
 29 64  1  0
 29 65  1  0
 30 31  1  0
 30 66  1  0
 30 67  1  0
 31 32  1  0
 31 68  1  0
 31 69  1  0
 32 33  1  1
 32 34  1  0
 33 70  1  0
 33 71  1  0
 33 72  1  0
 35 36  2  0
 35 37  1  0
 37 38  1  0
 38 39  1  0
 38 73  1  0
 38 74  1  0
 39 75  1  6
M  END
>  <i_m_ct_stereo_status>  (184) 
1

>  <s_m_source_file>  (184) 
/var/tmp/pbs.5076255.sched01/tmpguie9axe/40t6mruo9t.sdf

>  <i_m_source_file_index>  (184) 
32

>  <i_lp_mmshare_version>  (184) 
48012

>  <i_f3d_flags>  (184) 
3

>  <s_epik_input>  (184) 
W0NIM11PW0NIMl1bQ0BdMTJbQ0BASF0zT1tDQEBIXTRbQ0BASF01L1tDSF09W0NIXVxjNmM3W0NAQF04KFtDSDNdKVtDQEhdOVtDQEBdKE85KShbQ0gzXSlbQ0gyXVtDQEBIXShPW0NAQF0yKFtDSDNdKVtDSDJdW0NIMl1bQ0gyXTMpW0NAQEhdKE8xKVtDQEhdOFtDSDJdT0MoPU8pYyhbY0hdNyljKFtjSF02KVtDQEhdNE81

>  <s_epik_cmdline>  (184) 
J2VwaWtfcHl0aG9uJywgJy1waHQnLCAnMi4wJywgJy1waCcsICc3LjAnLCAnLXRuJywgJzgnLCAnLW1hJywgJzIwMCcsICctaW1hZScsICc8aW5maWxlLm1hZT4nLCAnLW9tYWUnLCAnPG91dGZpbGUubWFlPic=

>  <r_lp_tautomer_probability>  (184) 
1

>  <r_epik_Ionization_Penalty>  (184) 
6.57712e-12

>  <r_epik_Ionization_Penalty_Charging>  (184) 
0

>  <r_epik_Ionization_Penalty_Neutral>  (184) 
6.57712e-12

>  <r_epik_State_Penalty>  (184) 
-0

>  <r_epik_Charging_Adjusted_Penalty>  (184) 
0

>  <i_epik_Tot_Q>  (184) 
0

>  <i_epik_Tot_abs_Q>  (184) 
0

>  <s_epik_Chemistry_Notes>  (184) 
This compound has an ester and may undergo hydrolysis at high or low pH.

>  <s_lp_Force_Field>  (184) 
OPLS3e

>  <r_lp_Energy>  (184) 
251.63

>  <b_lp_Chiralities_Consistent>  (184) 
0

>  <s_lp_Variant>  (184) 
44:0-2

>  <s_i_glide_gridfile>  (184) 
pfpi4k_grid

>  <i_i_glide_lignum>  (184) 
32

>  <i_i_glide_rotatable_bonds>  (184) 
2

>  <r_i_docking_score>  (184) 
2.85286

>  <r_i_glide_ligand_efficiency>  (184) 
0.0731503

>  <r_i_glide_ligand_efficiency_sa>  (184) 
0.248068

>  <r_i_glide_ligand_efficiency_ln>  (184) 
0.611735

>  <r_i_glide_gscore>  (184) 
2.85286

>  <r_i_glide_lipo>  (184) 
-0.0504951

>  <r_i_glide_hbond>  (184) 
0

>  <r_i_glide_metal>  (184) 
-0

>  <r_i_glide_rewards>  (184) 
0

>  <r_i_glide_evdw>  (184) 
-17.4737

>  <r_i_glide_ecoul>  (184) 
-2.30854

>  <r_i_glide_erotb>  (184) 
0.0717183

>  <r_i_glide_esite>  (184) 
-6.27279e-05

>  <r_i_glide_emodel>  (184) 
-1.39396

>  <r_i_glide_energy>  (184) 
-19.7822

>  <r_i_glide_einternal>  (184) 
0.00394994

>  <r_i_glide_intrahb_reward>  (184) 
-0

>  <i_i_glide_confnum>  (184) 
3

>  <i_i_glide_posenum>  (184) 
38

>  <r_i_glide_eff_state_penalty>  (184) 
0

>  <ligand_id>  (184) 
44

>  <original_smiles>  (184) 
COCC12OC3C4CC5(C)OC5C5(C)c6cc(c7cc6C=CC6OC7C6OC1CCCC2(C)O4)C(=O)OCC35

>  <smiles>  (184) 
[H]C1=C([H])C2([H])OC3([H])c4c([H])c1c1c([H])c4C(=O)OC([H])([H])C4([H])C5([H])OC6(C([H])([H])OC([H])([H])[H])C([H])(OC23[H])C([H])([H])C([H])([H])C([H])([H])C6(C([H])([H])[H])OC5([H])C([H])([H])C2(C([H])([H])[H])OC2([H])C14C([H])([H])[H]

$$$$
45:0:0
     RDKit          3D

 34 37  0  0  1  0  0  0  0  0999 V2000
    3.7379   -0.4119   -4.7161 C   0  0  0  0  0  0  0  0  0  0  0  0
    3.3600   -0.9939   -3.3505 C   0  0  0  0  0  0  0  0  0  0  0  0
    4.4951   -0.7966   -2.3374 C   0  0  0  0  0  0  0  0  0  0  0  0
    4.1581   -1.4108   -0.9720 C   0  0  0  0  0  0  0  0  0  0  0  0
    3.8378   -2.8170   -1.1631 N   0  0  0  0  0  0  0  0  0  0  0  0
    4.5103   -3.8314   -0.4469 C   0  0  0  0  0  0  0  0  0  0  0  0
    3.7157   -4.8027    0.0783 N   0  0  0  0  0  0  0  0  0  0  0  0
    4.3514   -5.7786    0.7816 C   0  0  0  0  0  0  0  0  0  0  0  0
    3.7720   -6.8300    1.3577 N   0  0  0  0  0  0  0  0  0  0  0  0
    4.8410   -7.4797    1.9372 C   0  0  0  0  0  0  0  0  0  0  0  0
    6.0373   -6.9103    1.7593 N   0  0  0  0  0  0  0  0  0  0  0  0
    5.6587   -5.8579    1.0307 N   0  0  0  0  0  0  0  0  0  0  0  0
    6.4530   -4.8527    0.5011 C   0  0  0  0  0  0  0  0  0  0  0  0
    7.8865   -4.7037    0.6226 C   0  0  0  0  0  0  0  0  0  0  0  0
    8.3296   -3.5808   -0.0644 C   0  0  0  0  0  0  0  0  0  0  0  0
    7.1048   -2.6825   -0.9345 S   0  0  0  0  0  0  0  0  0  0  0  0
    5.9312   -3.7946   -0.2889 C   0  0  0  0  0  0  0  0  0  0  0  0
    2.7137   -3.0935   -2.0605 C   0  0  0  0  0  0  0  0  0  0  0  0
    2.9913   -2.4873   -3.4499 C   0  0  0  0  0  0  0  0  0  0  0  0
    4.5980   -0.9416   -5.1220 H   0  0  0  0  0  0  0  0  0  0  0  0
    3.9924    0.6467   -4.6438 H   0  0  0  0  0  0  0  0  0  0  0  0
    2.9165   -0.5056   -5.4254 H   0  0  0  0  0  0  0  0  0  0  0  0
    2.4996   -0.4428   -2.9717 H   0  0  0  0  0  0  0  0  0  0  0  0
    5.4132   -1.2404   -2.7175 H   0  0  0  0  0  0  0  0  0  0  0  0
    4.6747    0.2638   -2.2328 H   0  0  0  0  0  0  0  0  0  0  0  0
    4.9740   -1.2725   -0.2653 H   0  0  0  0  0  0  0  0  0  0  0  0
    3.3032   -0.9054   -0.5173 H   0  0  0  0  0  0  0  0  0  0  0  0
    4.7293   -8.3908    2.5134 H   0  0  0  0  0  0  0  0  0  0  0  0
    8.4604   -5.4255    1.1924 H   0  0  0  0  0  0  0  0  0  0  0  0
    9.3385   -3.2118   -0.1432 H   0  0  0  0  0  0  0  0  0  0  0  0
    2.5088   -4.1577   -2.1492 H   0  0  0  0  0  0  0  0  0  0  0  0
    1.8081   -2.6626   -1.6439 H   0  0  0  0  0  0  0  0  0  0  0  0
    2.1205   -2.6148   -4.0951 H   0  0  0  0  0  0  0  0  0  0  0  0
    3.8112   -3.0334   -3.9164 H   0  0  0  0  0  0  0  0  0  0  0  0
  1  2  1  0
  1 20  1  0
  1 21  1  0
  1 22  1  0
  2 19  1  0
  2  3  1  0
  2 23  1  0
  3  4  1  0
  3 24  1  0
  3 25  1  0
  4  5  1  0
  4 26  1  0
  4 27  1  0
  5  6  1  0
  5 18  1  0
  6 17  1  0
  6  7  2  0
  7  8  1  0
  8 12  1  0
  8  9  2  0
  9 10  1  0
 10 11  2  0
 10 28  1  0
 11 12  1  0
 12 13  1  0
 13 17  2  0
 13 14  1  0
 14 15  2  0
 14 29  1  0
 15 16  1  0
 15 30  1  0
 16 17  1  0
 18 19  1  0
 18 31  1  0
 18 32  1  0
 19 33  1  0
 19 34  1  0
M  END
>  <i_m_ct_stereo_status>  (185) 
1

>  <s_m_source_file>  (185) 
/var/tmp/pbs.5076255.sched01/tmpguie9axe/40t6mruo9t.sdf

>  <i_m_source_file_index>  (185) 
33

>  <i_lp_mmshare_version>  (185) 
48012

>  <i_f3d_flags>  (185) 
0

>  <s_epik_input>  (185) 
W0NIM11bQ0hdMVtDSDJdW0NIMl1OKFtDSDJdW0NIMl0xKWMobjIpYyhzW2NIXVtjSF0zKWMzbihjMjQpbltjSF1uNA==

>  <s_epik_cmdline>  (185) 
J2VwaWtfcHl0aG9uJywgJy1waHQnLCAnMi4wJywgJy1waCcsICc3LjAnLCAnLXRuJywgJzgnLCAnLW1hJywgJzIwMCcsICctaW1hZScsICc8aW5maWxlLm1hZT4nLCAnLW9tYWUnLCAnPG91dGZpbGUubWFlPic=

>  <r_lp_tautomer_probability>  (185) 
1

>  <r_epik_Ionization_Penalty>  (185) 
2.44805e-05

>  <r_epik_Ionization_Penalty_Charging>  (185) 
0

>  <r_epik_Ionization_Penalty_Neutral>  (185) 
2.44805e-05

>  <r_epik_State_Penalty>  (185) 
-0

>  <r_epik_Charging_Adjusted_Penalty>  (185) 
0

>  <i_epik_Tot_Q>  (185) 
0

>  <i_epik_Tot_abs_Q>  (185) 
0

>  <s_lp_Force_Field>  (185) 
OPLS3e

>  <r_lp_Energy>  (185) 
29.2353

>  <b_lp_Chiralities_Consistent>  (185) 
1

>  <s_lp_Variant>  (185) 
45:0-1

>  <s_i_glide_gridfile>  (185) 
pfpi4k_grid

>  <i_i_glide_lignum>  (185) 
33

>  <i_i_glide_rotatable_bonds>  (185) 
1

>  <r_i_docking_score>  (185) 
-4.32319

>  <r_i_glide_ligand_efficiency>  (185) 
-0.227536

>  <r_i_glide_ligand_efficiency_sa>  (185) 
-0.607158

>  <r_i_glide_ligand_efficiency_ln>  (185) 
-1.09602

>  <r_i_glide_gscore>  (185) 
-4.32319

>  <r_i_glide_lipo>  (185) 
-1.11575

>  <r_i_glide_hbond>  (185) 
0

>  <r_i_glide_metal>  (185) 
-0

>  <r_i_glide_rewards>  (185) 
-1.81888

>  <r_i_glide_evdw>  (185) 
-30.168

>  <r_i_glide_ecoul>  (185) 
-0.685261

>  <r_i_glide_erotb>  (185) 
0.240054

>  <r_i_glide_esite>  (185) 
-0.0174176

>  <r_i_glide_emodel>  (185) 
-38.9865

>  <r_i_glide_energy>  (185) 
-30.8533

>  <r_i_glide_einternal>  (185) 
0.607113

>  <r_i_glide_intrahb_reward>  (185) 
-0

>  <i_i_glide_confnum>  (185) 
4

>  <i_i_glide_posenum>  (185) 
21

>  <r_i_glide_eff_state_penalty>  (185) 
0

>  <ligand_id>  (185) 
45

>  <original_smiles>  (185) 
CC1CCN(c2nc3ncnn3c3ccsc23)CC1

>  <smiles>  (185) 
[H]c1nc2nc(N3C([H])([H])C([H])([H])C([H])(C([H])([H])[H])C([H])([H])C3([H])[H])c3sc([H])c([H])c3n2n1

$$$$
45:0:1
     RDKit          3D

 34 37  0  0  1  0  0  0  0  0999 V2000
    3.2494   -0.2519   -3.6033 C   0  0  0  0  0  0  0  0  0  0  0  0
    4.1997   -1.4418   -3.5315 C   0  0  0  0  0  0  0  0  0  0  0  0
    3.4411   -2.7736   -3.6866 C   0  0  0  0  0  0  0  0  0  0  0  0
    2.5792   -3.0559   -2.4454 C   0  0  0  0  0  0  0  0  0  0  0  0
    3.4149   -3.0003   -1.2455 N   0  0  0  0  0  0  0  0  0  0  0  0
    3.4569   -4.0599   -0.3189 C   0  0  0  0  0  0  0  0  0  0  0  0
    2.2551   -4.6524   -0.0559 N   0  0  0  0  0  0  0  0  0  0  0  0
    2.2741   -5.6641    0.8438 C   0  0  0  0  0  0  0  0  0  0  0  0
    1.2093   -6.3559    1.2516 N   0  0  0  0  0  0  0  0  0  0  0  0
    1.7699   -7.2503    2.1427 C   0  0  0  0  0  0  0  0  0  0  0  0
    3.0884   -7.1385    2.3314 N   0  0  0  0  0  0  0  0  0  0  0  0
    3.3412   -6.1366    1.4876 N   0  0  0  0  0  0  0  0  0  0  0  0
    4.5546   -5.5296    1.2048 C   0  0  0  0  0  0  0  0  0  0  0  0
    5.8456   -5.8478    1.7621 C   0  0  0  0  0  0  0  0  0  0  0  0
    6.8335   -5.0362    1.2290 C   0  0  0  0  0  0  0  0  0  0  0  0
    6.3065   -3.8704    0.0335 S   0  0  0  0  0  0  0  0  0  0  0  0
    4.6871   -4.4616    0.2788 C   0  0  0  0  0  0  0  0  0  0  0  0
    4.1317   -1.7525   -1.0027 C   0  0  0  0  0  0  0  0  0  0  0  0
    5.0111   -1.4358   -2.2216 C   0  0  0  0  0  0  0  0  0  0  0  0
    2.5403   -0.2494   -2.7774 H   0  0  0  0  0  0  0  0  0  0  0  0
    2.6690   -0.2380   -4.5251 H   0  0  0  0  0  0  0  0  0  0  0  0
    3.7952    0.6932   -3.5322 H   0  0  0  0  0  0  0  0  0  0  0  0
    4.8959   -1.3410   -4.3630 H   0  0  0  0  0  0  0  0  0  0  0  0
    2.8225   -2.7546   -4.5838 H   0  0  0  0  0  0  0  0  0  0  0  0
    4.1551   -3.5860   -3.8271 H   0  0  0  0  0  0  0  0  0  0  0  0
    1.7744   -2.3299   -2.3726 H   0  0  0  0  0  0  0  0  0  0  0  0
    2.0855   -4.0239   -2.5593 H   0  0  0  0  0  0  0  0  0  0  0  0
    1.1820   -7.9874    2.6755 H   0  0  0  0  0  0  0  0  0  0  0  0
    5.9404   -6.6344    2.4981 H   0  0  0  0  0  0  0  0  0  0  0  0
    7.8821   -5.0600    1.4751 H   0  0  0  0  0  0  0  0  0  0  0  0
    3.4049   -0.9562   -0.8316 H   0  0  0  0  0  0  0  0  0  0  0  0
    4.7172   -1.7798   -0.0852 H   0  0  0  0  0  0  0  0  0  0  0  0
    5.8121   -2.1765   -2.3014 H   0  0  0  0  0  0  0  0  0  0  0  0
    5.4908   -0.4693   -2.0768 H   0  0  0  0  0  0  0  0  0  0  0  0
  1  2  1  0
  1 20  1  0
  1 21  1  0
  1 22  1  0
  2 19  1  0
  2  3  1  0
  2 23  1  0
  3  4  1  0
  3 24  1  0
  3 25  1  0
  4  5  1  0
  4 26  1  0
  4 27  1  0
  5  6  1  0
  5 18  1  0
  6 17  1  0
  6  7  2  0
  7  8  1  0
  8 12  1  0
  8  9  2  0
  9 10  1  0
 10 11  2  0
 10 28  1  0
 11 12  1  0
 12 13  1  0
 13 17  2  0
 13 14  1  0
 14 15  2  0
 14 29  1  0
 15 16  1  0
 15 30  1  0
 16 17  1  0
 18 19  1  0
 18 31  1  0
 18 32  1  0
 19 33  1  0
 19 34  1  0
M  END
>  <i_m_ct_stereo_status>  (186) 
1

>  <s_m_source_file>  (186) 
/var/tmp/pbs.5076255.sched01/tmpguie9axe/40t6mruo9t.sdf

>  <i_m_source_file_index>  (186) 
33

>  <i_lp_mmshare_version>  (186) 
48012

>  <i_f3d_flags>  (186) 
0

>  <s_epik_input>  (186) 
W0NIM11bQ0hdMVtDSDJdW0NIMl1OKFtDSDJdW0NIMl0xKWMobjIpYyhzW2NIXVtjSF0zKWMzbihjMjQpbltjSF1uNA==

>  <s_epik_cmdline>  (186) 
J2VwaWtfcHl0aG9uJywgJy1waHQnLCAnMi4wJywgJy1waCcsICc3LjAnLCAnLXRuJywgJzgnLCAnLW1hJywgJzIwMCcsICctaW1hZScsICc8aW5maWxlLm1hZT4nLCAnLW9tYWUnLCAnPG91dGZpbGUubWFlPic=

>  <r_lp_tautomer_probability>  (186) 
1

>  <r_epik_Ionization_Penalty>  (186) 
2.44805e-05

>  <r_epik_Ionization_Penalty_Charging>  (186) 
0

>  <r_epik_Ionization_Penalty_Neutral>  (186) 
2.44805e-05

>  <r_epik_State_Penalty>  (186) 
-0

>  <r_epik_Charging_Adjusted_Penalty>  (186) 
0

>  <i_epik_Tot_Q>  (186) 
0

>  <i_epik_Tot_abs_Q>  (186) 
0

>  <s_lp_Force_Field>  (186) 
OPLS3e

>  <r_lp_Energy>  (186) 
29.2353

>  <b_lp_Chiralities_Consistent>  (186) 
1

>  <s_lp_Variant>  (186) 
45:0-1

>  <s_i_glide_gridfile>  (186) 
pfpi4k_grid

>  <i_i_glide_lignum>  (186) 
33

>  <i_i_glide_rotatable_bonds>  (186) 
1

>  <r_i_docking_score>  (186) 
-4.28706

>  <r_i_glide_ligand_efficiency>  (186) 
-0.225635

>  <r_i_glide_ligand_efficiency_sa>  (186) 
-0.602084

>  <r_i_glide_ligand_efficiency_ln>  (186) 
-1.08686

>  <r_i_glide_gscore>  (186) 
-4.28706

>  <r_i_glide_lipo>  (186) 
-0.922224

>  <r_i_glide_hbond>  (186) 
-0.0936356

>  <r_i_glide_metal>  (186) 
-0

>  <r_i_glide_rewards>  (186) 
-1.60105

>  <r_i_glide_evdw>  (186) 
-28.292

>  <r_i_glide_ecoul>  (186) 
-2.83821

>  <r_i_glide_erotb>  (186) 
0.240054

>  <r_i_glide_esite>  (186) 
-0.0698722

>  <r_i_glide_emodel>  (186) 
-39.3257

>  <r_i_glide_energy>  (186) 
-31.1303

>  <r_i_glide_einternal>  (186) 
0.260588

>  <r_i_glide_intrahb_reward>  (186) 
-0

>  <i_i_glide_confnum>  (186) 
6

>  <i_i_glide_posenum>  (186) 
19

>  <r_i_glide_eff_state_penalty>  (186) 
0

>  <ligand_id>  (186) 
45

>  <original_smiles>  (186) 
CC1CCN(c2nc3ncnn3c3ccsc23)CC1

>  <smiles>  (186) 
[H]c1nc2nc(N3C([H])([H])C([H])([H])C([H])(C([H])([H])[H])C([H])([H])C3([H])[H])c3sc([H])c([H])c3n2n1

$$$$
45:0:2
     RDKit          3D

 34 37  0  0  1  0  0  0  0  0999 V2000
    4.6341   -1.0352   -1.9730 C   0  0  0  0  0  0  0  0  0  0  0  0
    5.1825   -1.6216   -0.6628 C   0  0  0  0  0  0  0  0  0  0  0  0
    5.7993   -3.0147   -0.8973 C   0  0  0  0  0  0  0  0  0  0  0  0
    4.7077   -4.0510   -1.2246 C   0  0  0  0  0  0  0  0  0  0  0  0
    3.6884   -4.0406   -0.1817 N   0  0  0  0  0  0  0  0  0  0  0  0
    3.3272   -5.2233    0.4936 C   0  0  0  0  0  0  0  0  0  0  0  0
    1.9906   -5.4478    0.6046 N   0  0  0  0  0  0  0  0  0  0  0  0
    1.6250   -6.5580    1.2959 C   0  0  0  0  0  0  0  0  0  0  0  0
    0.3716   -6.9367    1.5389 N   0  0  0  0  0  0  0  0  0  0  0  0
    0.5583   -8.1053    2.2515 C   0  0  0  0  0  0  0  0  0  0  0  0
    1.8286   -8.4495    2.4875 N   0  0  0  0  0  0  0  0  0  0  0  0
    2.4403   -7.4486    1.8541 N   0  0  0  0  0  0  0  0  0  0  0  0
    3.7989   -7.2137    1.7192 C   0  0  0  0  0  0  0  0  0  0  0  0
    4.8846   -8.0066    2.2388 C   0  0  0  0  0  0  0  0  0  0  0  0
    6.1116   -7.4509    1.9093 C   0  0  0  0  0  0  0  0  0  0  0  0
    6.0590   -5.9390    1.0231 S   0  0  0  0  0  0  0  0  0  0  0  0
    4.3257   -6.0858    1.0349 C   0  0  0  0  0  0  0  0  0  0  0  0
    3.0313   -2.7653    0.1088 C   0  0  0  0  0  0  0  0  0  0  0  0
    4.0922   -1.6932    0.4286 C   0  0  0  0  0  0  0  0  0  0  0  0
    3.8175   -1.6331   -2.3817 H   0  0  0  0  0  0  0  0  0  0  0  0
    5.4143   -0.9912   -2.7231 H   0  0  0  0  0  0  0  0  0  0  0  0
    4.2506   -0.0268   -1.8271 H   0  0  0  0  0  0  0  0  0  0  0  0
    5.9731   -0.9583   -0.3067 H   0  0  0  0  0  0  0  0  0  0  0  0
    6.5366   -2.9876   -1.6986 H   0  0  0  0  0  0  0  0  0  0  0  0
    6.3399   -3.3135    0.0003 H   0  0  0  0  0  0  0  0  0  0  0  0
    4.2385   -3.8222   -2.1840 H   0  0  0  0  0  0  0  0  0  0  0  0
    5.1266   -5.0471   -1.3572 H   0  0  0  0  0  0  0  0  0  0  0  0
   -0.2677   -8.7085    2.6116 H   0  0  0  0  0  0  0  0  0  0  0  0
    4.6774   -8.9042    2.8064 H   0  0  0  0  0  0  0  0  0  0  0  0
    7.0821   -7.8452    2.1604 H   0  0  0  0  0  0  0  0  0  0  0  0
    2.4583   -2.4632   -0.7678 H   0  0  0  0  0  0  0  0  0  0  0  0
    2.3187   -2.8396    0.9308 H   0  0  0  0  0  0  0  0  0  0  0  0
    4.5528   -1.9268    1.3886 H   0  0  0  0  0  0  0  0  0  0  0  0
    3.6206   -0.7171    0.5468 H   0  0  0  0  0  0  0  0  0  0  0  0
  1  2  1  0
  1 20  1  0
  1 21  1  0
  1 22  1  0
  2 19  1  0
  2  3  1  0
  2 23  1  0
  3  4  1  0
  3 24  1  0
  3 25  1  0
  4  5  1  0
  4 26  1  0
  4 27  1  0
  5  6  1  0
  5 18  1  0
  6 17  1  0
  6  7  2  0
  7  8  1  0
  8 12  1  0
  8  9  2  0
  9 10  1  0
 10 11  2  0
 10 28  1  0
 11 12  1  0
 12 13  1  0
 13 17  2  0
 13 14  1  0
 14 15  2  0
 14 29  1  0
 15 16  1  0
 15 30  1  0
 16 17  1  0
 18 19  1  0
 18 31  1  0
 18 32  1  0
 19 33  1  0
 19 34  1  0
M  END
>  <i_m_ct_stereo_status>  (187) 
1

>  <s_m_source_file>  (187) 
/var/tmp/pbs.5076255.sched01/tmpguie9axe/40t6mruo9t.sdf

>  <i_m_source_file_index>  (187) 
33

>  <i_lp_mmshare_version>  (187) 
48012

>  <i_f3d_flags>  (187) 
0

>  <s_epik_input>  (187) 
W0NIM11bQ0hdMVtDSDJdW0NIMl1OKFtDSDJdW0NIMl0xKWMobjIpYyhzW2NIXVtjSF0zKWMzbihjMjQpbltjSF1uNA==

>  <s_epik_cmdline>  (187) 
J2VwaWtfcHl0aG9uJywgJy1waHQnLCAnMi4wJywgJy1waCcsICc3LjAnLCAnLXRuJywgJzgnLCAnLW1hJywgJzIwMCcsICctaW1hZScsICc8aW5maWxlLm1hZT4nLCAnLW9tYWUnLCAnPG91dGZpbGUubWFlPic=

>  <r_lp_tautomer_probability>  (187) 
1

>  <r_epik_Ionization_Penalty>  (187) 
2.44805e-05

>  <r_epik_Ionization_Penalty_Charging>  (187) 
0

>  <r_epik_Ionization_Penalty_Neutral>  (187) 
2.44805e-05

>  <r_epik_State_Penalty>  (187) 
-0

>  <r_epik_Charging_Adjusted_Penalty>  (187) 
0

>  <i_epik_Tot_Q>  (187) 
0

>  <i_epik_Tot_abs_Q>  (187) 
0

>  <s_lp_Force_Field>  (187) 
OPLS3e

>  <r_lp_Energy>  (187) 
29.2353

>  <b_lp_Chiralities_Consistent>  (187) 
1

>  <s_lp_Variant>  (187) 
45:0-1

>  <s_i_glide_gridfile>  (187) 
pfpi4k_grid

>  <i_i_glide_lignum>  (187) 
33

>  <i_i_glide_rotatable_bonds>  (187) 
1

>  <r_i_docking_score>  (187) 
-3.48395

>  <r_i_glide_ligand_efficiency>  (187) 
-0.183366

>  <r_i_glide_ligand_efficiency_sa>  (187) 
-0.489294

>  <r_i_glide_ligand_efficiency_ln>  (187) 
-0.883256

>  <r_i_glide_gscore>  (187) 
-3.48395

>  <r_i_glide_lipo>  (187) 
-0.323989

>  <r_i_glide_hbond>  (187) 
-0.0572018

>  <r_i_glide_metal>  (187) 
-0

>  <r_i_glide_rewards>  (187) 
-1.54529

>  <r_i_glide_evdw>  (187) 
-25.056

>  <r_i_glide_ecoul>  (187) 
-2.88387

>  <r_i_glide_erotb>  (187) 
0.240054

>  <r_i_glide_esite>  (187) 
-0.112145

>  <r_i_glide_emodel>  (187) 
-34.4507

>  <r_i_glide_energy>  (187) 
-27.9399

>  <r_i_glide_einternal>  (187) 
0.457707

>  <r_i_glide_intrahb_reward>  (187) 
-0

>  <i_i_glide_confnum>  (187) 
6

>  <i_i_glide_posenum>  (187) 
32

>  <r_i_glide_eff_state_penalty>  (187) 
0

>  <ligand_id>  (187) 
45

>  <original_smiles>  (187) 
CC1CCN(c2nc3ncnn3c3ccsc23)CC1

>  <smiles>  (187) 
[H]c1nc2nc(N3C([H])([H])C([H])([H])C([H])(C([H])([H])[H])C([H])([H])C3([H])[H])c3sc([H])c([H])c3n2n1

$$$$
46:0:0
     RDKit          3D

 16 18  0  0  1  0  0  0  0  0999 V2000
    2.3506  -10.8229    4.6455 C   0  0  0  0  0  0  0  0  0  0  0  0
    0.9520  -10.7460    4.7409 C   0  0  0  0  0  0  0  0  0  0  0  0
    0.1648   -9.7878    4.0685 C   0  0  0  0  0  0  0  0  0  0  0  0
    0.8846   -8.8901    3.2933 N   0  0  0  0  0  0  0  0  0  0  0  0
    2.3177   -8.9263    3.1559 C   0  0  0  0  0  0  0  0  0  0  0  0
    3.0579   -9.9126    3.8485 C   0  0  0  0  0  0  0  0  0  0  0  0
    2.7307   -7.9291    2.3246 N   0  0  0  0  0  0  0  0  0  0  0  0
    1.5319   -7.3221    1.9697 C   0  0  0  0  0  0  0  0  0  0  0  0
    1.1648   -6.2627    1.1610 N   0  0  0  0  0  0  0  0  0  0  0  0
   -0.1638   -6.2744    1.3076 N   0  0  0  0  0  0  0  0  0  0  0  0
   -0.6032   -7.2214    2.1397 N   0  0  0  0  0  0  0  0  0  0  0  0
    0.4452   -7.8831    2.5469 C   0  0  0  0  0  0  0  0  0  0  0  0
    2.8742  -11.5918    5.1942 H   0  0  0  0  0  0  0  0  0  0  0  0
    0.4357  -11.4610    5.3656 H   0  0  0  0  0  0  0  0  0  0  0  0
   -0.9102   -9.6959    4.1029 H   0  0  0  0  0  0  0  0  0  0  0  0
    4.1347   -9.9531    3.7599 H   0  0  0  0  0  0  0  0  0  0  0  0
  1  6  2  0
  1  2  1  0
  1 13  1  0
  2  3  2  0
  2 14  1  0
  3  4  1  0
  3 15  1  0
  4 12  1  0
  4  5  1  0
  5  6  1  0
  5  7  2  0
  6 16  1  0
  7  8  1  0
  8 12  1  0
  8  9  2  0
  9 10  1  0
 10 11  1  0
 11 12  2  0
M  CHG  1  10  -1
M  END
>  <i_m_ct_stereo_status>  (188) 
1

>  <s_m_source_file>  (188) 
/var/tmp/pbs.5076255.sched01/tmpguie9axe/40t6mruo9t.sdf

>  <i_m_source_file_index>  (188) 
34

>  <i_lp_mmshare_version>  (188) 
48012

>  <i_f3d_flags>  (188) 
0

>  <s_epik_input>  (188) 
W2NIXTFbY0hdW2NIXVtjSF1jKG4xMiluYzNjMm5bbkhdbjM=

>  <s_epik_cmdline>  (188) 
J2VwaWtfcHl0aG9uJywgJy1waHQnLCAnMi4wJywgJy1waCcsICc3LjAnLCAnLXRuJywgJzgnLCAnLW1hJywgJzIwMCcsICctaW1hZScsICc8aW5maWxlLm1hZT4nLCAnLW9tYWUnLCAnPG91dGZpbGUubWFlPic=

>  <r_epik_Ionization_Penalty>  (188) 
0.696017

>  <r_epik_Ionization_Penalty_Charging>  (188) 
0.696017

>  <r_epik_Ionization_Penalty_Neutral>  (188) 
0

>  <r_epik_State_Penalty>  (188) 
0.417633

>  <r_epik_Charging_Adjusted_Penalty>  (188) 
1.11365

>  <i_epik_Tot_Q>  (188) 
-1

>  <i_epik_Tot_abs_Q>  (188) 
1

>  <s_lp_Force_Field>  (188) 
OPLS3e

>  <r_lp_Energy>  (188) 
15.8902

>  <b_lp_Chiralities_Consistent>  (188) 
1

>  <s_lp_Variant>  (188) 
46:0-1

>  <s_i_glide_gridfile>  (188) 
pfpi4k_grid

>  <i_i_glide_lignum>  (188) 
34

>  <i_i_glide_rotatable_bonds>  (188) 
0

>  <r_i_docking_score>  (188) 
-4.49966

>  <r_i_glide_ligand_efficiency>  (188) 
-0.374972

>  <r_i_glide_ligand_efficiency_sa>  (188) 
-0.858471

>  <r_i_glide_ligand_efficiency_ln>  (188) 
-1.29119

>  <r_i_glide_gscore>  (188) 
-4.49966

>  <r_i_glide_lipo>  (188) 
0

>  <r_i_glide_hbond>  (188) 
0

>  <r_i_glide_metal>  (188) 
-0

>  <r_i_glide_rewards>  (188) 
-2.25

>  <r_i_glide_evdw>  (188) 
-12.0818

>  <r_i_glide_ecoul>  (188) 
-8.43017

>  <r_i_glide_erotb>  (188) 
0

>  <r_i_glide_esite>  (188) 
-0.381047

>  <r_i_glide_emodel>  (188) 
-32.6618

>  <r_i_glide_energy>  (188) 
-20.5119

>  <r_i_glide_einternal>  (188) 
0

>  <r_i_glide_intrahb_reward>  (188) 
-0

>  <i_i_glide_confnum>  (188) 
1

>  <i_i_glide_posenum>  (188) 
2

>  <r_i_glide_eff_state_penalty>  (188) 
0

>  <ligand_id>  (188) 
46

>  <original_smiles>  (188) 
c1ccn2c(c1)nc1n[nH]nc12

>  <smiles>  (188) 
[H]c1c([H])c([H])n2c(nc3n[n-]nc32)c1[H]

$$$$
46:0:1
     RDKit          3D

 16 18  0  0  1  0  0  0  0  0999 V2000
    3.1268   -1.2484   -3.6066 C   0  0  0  0  0  0  0  0  0  0  0  0
    2.6051   -2.4859   -3.1981 C   0  0  0  0  0  0  0  0  0  0  0  0
    3.0879   -3.2322   -2.1007 C   0  0  0  0  0  0  0  0  0  0  0  0
    4.1768   -2.6627   -1.4594 N   0  0  0  0  0  0  0  0  0  0  0  0
    4.7550   -1.3974   -1.8371 C   0  0  0  0  0  0  0  0  0  0  0  0
    4.2104   -0.6779   -2.9240 C   0  0  0  0  0  0  0  0  0  0  0  0
    5.8019   -1.1023   -1.0214 N   0  0  0  0  0  0  0  0  0  0  0  0
    5.8237   -2.1889   -0.1563 C   0  0  0  0  0  0  0  0  0  0  0  0
    6.6158   -2.5717    0.9021 N   0  0  0  0  0  0  0  0  0  0  0  0
    6.0565   -3.7414    1.2301 N   0  0  0  0  0  0  0  0  0  0  0  0
    5.0168   -4.0768    0.4495 N   0  0  0  0  0  0  0  0  0  0  0  0
    4.8711   -3.1141   -0.4194 C   0  0  0  0  0  0  0  0  0  0  0  0
    2.6739   -0.7229   -4.4358 H   0  0  0  0  0  0  0  0  0  0  0  0
    1.7533   -2.8829   -3.7331 H   0  0  0  0  0  0  0  0  0  0  0  0
    2.6980   -4.1776   -1.7555 H   0  0  0  0  0  0  0  0  0  0  0  0
    4.6133    0.2841   -3.2098 H   0  0  0  0  0  0  0  0  0  0  0  0
  1  6  2  0
  1  2  1  0
  1 13  1  0
  2  3  2  0
  2 14  1  0
  3  4  1  0
  3 15  1  0
  4 12  1  0
  4  5  1  0
  5  6  1  0
  5  7  2  0
  6 16  1  0
  7  8  1  0
  8 12  1  0
  8  9  2  0
  9 10  1  0
 10 11  1  0
 11 12  2  0
M  CHG  1  10  -1
M  END
>  <i_m_ct_stereo_status>  (189) 
1

>  <s_m_source_file>  (189) 
/var/tmp/pbs.5076255.sched01/tmpguie9axe/40t6mruo9t.sdf

>  <i_m_source_file_index>  (189) 
34

>  <i_lp_mmshare_version>  (189) 
48012

>  <i_f3d_flags>  (189) 
0

>  <s_epik_input>  (189) 
W2NIXTFbY0hdW2NIXVtjSF1jKG4xMiluYzNjMm5bbkhdbjM=

>  <s_epik_cmdline>  (189) 
J2VwaWtfcHl0aG9uJywgJy1waHQnLCAnMi4wJywgJy1waCcsICc3LjAnLCAnLXRuJywgJzgnLCAnLW1hJywgJzIwMCcsICctaW1hZScsICc8aW5maWxlLm1hZT4nLCAnLW9tYWUnLCAnPG91dGZpbGUubWFlPic=

>  <r_epik_Ionization_Penalty>  (189) 
0.696017

>  <r_epik_Ionization_Penalty_Charging>  (189) 
0.696017

>  <r_epik_Ionization_Penalty_Neutral>  (189) 
0

>  <r_epik_State_Penalty>  (189) 
0.417633

>  <r_epik_Charging_Adjusted_Penalty>  (189) 
1.11365

>  <i_epik_Tot_Q>  (189) 
-1

>  <i_epik_Tot_abs_Q>  (189) 
1

>  <s_lp_Force_Field>  (189) 
OPLS3e

>  <r_lp_Energy>  (189) 
15.8902

>  <b_lp_Chiralities_Consistent>  (189) 
1

>  <s_lp_Variant>  (189) 
46:0-1

>  <s_i_glide_gridfile>  (189) 
pfpi4k_grid

>  <i_i_glide_lignum>  (189) 
34

>  <i_i_glide_rotatable_bonds>  (189) 
0

>  <r_i_docking_score>  (189) 
-4.33607

>  <r_i_glide_ligand_efficiency>  (189) 
-0.361339

>  <r_i_glide_ligand_efficiency_sa>  (189) 
-0.82726

>  <r_i_glide_ligand_efficiency_ln>  (189) 
-1.24424

>  <r_i_glide_gscore>  (189) 
-4.33607

>  <r_i_glide_lipo>  (189) 
-0.461841

>  <r_i_glide_hbond>  (189) 
-0.0594015

>  <r_i_glide_metal>  (189) 
-0

>  <r_i_glide_rewards>  (189) 
-2.28663

>  <r_i_glide_evdw>  (189) 
-15.8301

>  <r_i_glide_ecoul>  (189) 
-4.43003

>  <r_i_glide_erotb>  (189) 
0

>  <r_i_glide_esite>  (189) 
-0.0721932

>  <r_i_glide_emodel>  (189) 
-31.9644

>  <r_i_glide_energy>  (189) 
-20.2601

>  <r_i_glide_einternal>  (189) 
0

>  <r_i_glide_intrahb_reward>  (189) 
-0

>  <i_i_glide_confnum>  (189) 
1

>  <i_i_glide_posenum>  (189) 
23

>  <r_i_glide_eff_state_penalty>  (189) 
0

>  <ligand_id>  (189) 
46

>  <original_smiles>  (189) 
c1ccn2c(c1)nc1n[nH]nc12

>  <smiles>  (189) 
[H]c1c([H])c([H])n2c(nc3n[n-]nc32)c1[H]

$$$$
46:0:2
     RDKit          3D

 16 18  0  0  1  0  0  0  0  0999 V2000
    3.7548   -1.3358   -3.4430 C   0  0  0  0  0  0  0  0  0  0  0  0
    2.6829   -2.2473   -3.4434 C   0  0  0  0  0  0  0  0  0  0  0  0
    2.3812   -3.1156   -2.3716 C   0  0  0  0  0  0  0  0  0  0  0  0
    3.2614   -3.0324   -1.3022 N   0  0  0  0  0  0  0  0  0  0  0  0
    4.3757   -2.1186   -1.2482 C   0  0  0  0  0  0  0  0  0  0  0  0
    4.6142   -1.2544   -2.3397 C   0  0  0  0  0  0  0  0  0  0  0  0
    5.0460   -2.2632   -0.0739 N   0  0  0  0  0  0  0  0  0  0  0  0
    4.3140   -3.2583    0.5649 C   0  0  0  0  0  0  0  0  0  0  0  0
    4.3930   -3.9078    1.7791 N   0  0  0  0  0  0  0  0  0  0  0  0
    3.3420   -4.7347    1.7008 N   0  0  0  0  0  0  0  0  0  0  0  0
    2.6630   -4.6304    0.5479 N   0  0  0  0  0  0  0  0  0  0  0  0
    3.2632   -3.7115   -0.1603 C   0  0  0  0  0  0  0  0  0  0  0  0
    3.9077   -0.6873   -4.2942 H   0  0  0  0  0  0  0  0  0  0  0  0
    2.0310   -2.2734   -4.3051 H   0  0  0  0  0  0  0  0  0  0  0  0
    1.5652   -3.8226   -2.3391 H   0  0  0  0  0  0  0  0  0  0  0  0
    5.4380   -0.5574   -2.3143 H   0  0  0  0  0  0  0  0  0  0  0  0
  1  6  2  0
  1  2  1  0
  1 13  1  0
  2  3  2  0
  2 14  1  0
  3  4  1  0
  3 15  1  0
  4 12  1  0
  4  5  1  0
  5  6  1  0
  5  7  2  0
  6 16  1  0
  7  8  1  0
  8 12  1  0
  8  9  2  0
  9 10  1  0
 10 11  1  0
 11 12  2  0
M  CHG  1  10  -1
M  END
>  <i_m_ct_stereo_status>  (190) 
1

>  <s_m_source_file>  (190) 
/var/tmp/pbs.5076255.sched01/tmpguie9axe/40t6mruo9t.sdf

>  <i_m_source_file_index>  (190) 
34

>  <i_lp_mmshare_version>  (190) 
48012

>  <i_f3d_flags>  (190) 
0

>  <s_epik_input>  (190) 
W2NIXTFbY0hdW2NIXVtjSF1jKG4xMiluYzNjMm5bbkhdbjM=

>  <s_epik_cmdline>  (190) 
J2VwaWtfcHl0aG9uJywgJy1waHQnLCAnMi4wJywgJy1waCcsICc3LjAnLCAnLXRuJywgJzgnLCAnLW1hJywgJzIwMCcsICctaW1hZScsICc8aW5maWxlLm1hZT4nLCAnLW9tYWUnLCAnPG91dGZpbGUubWFlPic=

>  <r_epik_Ionization_Penalty>  (190) 
0.696017

>  <r_epik_Ionization_Penalty_Charging>  (190) 
0.696017

>  <r_epik_Ionization_Penalty_Neutral>  (190) 
0

>  <r_epik_State_Penalty>  (190) 
0.417633

>  <r_epik_Charging_Adjusted_Penalty>  (190) 
1.11365

>  <i_epik_Tot_Q>  (190) 
-1

>  <i_epik_Tot_abs_Q>  (190) 
1

>  <s_lp_Force_Field>  (190) 
OPLS3e

>  <r_lp_Energy>  (190) 
15.8902

>  <b_lp_Chiralities_Consistent>  (190) 
1

>  <s_lp_Variant>  (190) 
46:0-1

>  <s_i_glide_gridfile>  (190) 
pfpi4k_grid

>  <i_i_glide_lignum>  (190) 
34

>  <i_i_glide_rotatable_bonds>  (190) 
0

>  <r_i_docking_score>  (190) 
-3.85386

>  <r_i_glide_ligand_efficiency>  (190) 
-0.321155

>  <r_i_glide_ligand_efficiency_sa>  (190) 
-0.735262

>  <r_i_glide_ligand_efficiency_ln>  (190) 
-1.10587

>  <r_i_glide_gscore>  (190) 
-3.85386

>  <r_i_glide_lipo>  (190) 
-0.434518

>  <r_i_glide_hbond>  (190) 
0

>  <r_i_glide_metal>  (190) 
-0

>  <r_i_glide_rewards>  (190) 
-2.27465

>  <r_i_glide_evdw>  (190) 
-17.1957

>  <r_i_glide_ecoul>  (190) 
-1.44757

>  <r_i_glide_erotb>  (190) 
0

>  <r_i_glide_esite>  (190) 
-0.0677702

>  <r_i_glide_emodel>  (190) 
-29.049

>  <r_i_glide_energy>  (190) 
-18.6433

>  <r_i_glide_einternal>  (190) 
0

>  <r_i_glide_intrahb_reward>  (190) 
-0

>  <i_i_glide_confnum>  (190) 
2

>  <i_i_glide_posenum>  (190) 
5

>  <r_i_glide_eff_state_penalty>  (190) 
0

>  <ligand_id>  (190) 
46

>  <original_smiles>  (190) 
c1ccn2c(c1)nc1n[nH]nc12

>  <smiles>  (190) 
[H]c1c([H])c([H])n2c(nc3n[n-]nc32)c1[H]

$$$$
46:1:0
     RDKit          3D

 17 19  0  0  1  0  0  0  0  0999 V2000
    3.5494   -3.0948   -3.8608 C   0  0  0  0  0  0  0  0  0  0  0  0
    2.8201   -2.1929   -3.0770 C   0  0  0  0  0  0  0  0  0  0  0  0
    3.4259   -1.6404   -1.9438 C   0  0  0  0  0  0  0  0  0  0  0  0
    4.7257   -1.9925   -1.6152 N   0  0  0  0  0  0  0  0  0  0  0  0
    5.4860   -2.8899   -2.3677 C   0  0  0  0  0  0  0  0  0  0  0  0
    4.8732   -3.4550   -3.5209 C   0  0  0  0  0  0  0  0  0  0  0  0
    6.7183   -3.0581   -1.8279 N   0  0  0  0  0  0  0  0  0  0  0  0
    6.6851   -2.2522   -0.6799 C   0  0  0  0  0  0  0  0  0  0  0  0
    7.5503   -1.9371    0.2330 N   0  0  0  0  0  0  0  0  0  0  0  0
    6.7442   -1.0563    0.9400 N   0  0  0  0  0  0  0  0  0  0  0  0
    5.4650   -0.8205    0.4441 N   0  0  0  0  0  0  0  0  0  0  0  0
    5.4933   -1.6280   -0.6035 C   0  0  0  0  0  0  0  0  0  0  0  0
    7.0975   -0.5669    1.7516 H   0  0  0  0  0  0  0  0  0  0  0  0
    3.0800   -3.5317   -4.7223 H   0  0  0  0  0  0  0  0  0  0  0  0
    1.8121   -1.9332   -3.3411 H   0  0  0  0  0  0  0  0  0  0  0  0
    2.9237   -0.9387   -1.2975 H   0  0  0  0  0  0  0  0  0  0  0  0
    5.4249   -4.1666   -4.1142 H   0  0  0  0  0  0  0  0  0  0  0  0
  1  6  2  0
  1  2  1  0
  1 14  1  0
  2  3  2  0
  2 15  1  0
  3  4  1  0
  3 16  1  0
  4 12  1  0
  4  5  1  0
  5  6  1  0
  5  7  2  0
  6 17  1  0
  7  8  1  0
  8 12  1  0
  8  9  2  0
  9 10  1  0
 10 13  1  0
 10 11  1  0
 11 12  2  0
M  END
>  <i_m_ct_stereo_status>  (191) 
1

>  <s_m_source_file>  (191) 
/var/tmp/pbs.5076255.sched01/tmpguie9axe/40t6mruo9t.sdf

>  <i_m_source_file_index>  (191) 
35

>  <i_lp_mmshare_version>  (191) 
48012

>  <i_f3d_flags>  (191) 
0

>  <s_epik_input>  (191) 
W2NIXTFbY0hdW2NIXVtjSF1jKG4xMiluYzNjMm5bbkhdbjM=

>  <s_epik_cmdline>  (191) 
J2VwaWtfcHl0aG9uJywgJy1waHQnLCAnMi4wJywgJy1waCcsICc3LjAnLCAnLXRuJywgJzgnLCAnLW1hJywgJzIwMCcsICctaW1hZScsICc8aW5maWxlLm1hZT4nLCAnLW9tYWUnLCAnPG91dGZpbGUubWFlPic=

>  <r_lp_tautomer_probability>  (191) 
0.5

>  <r_epik_Ionization_Penalty>  (191) 
0.946615

>  <r_epik_Ionization_Penalty_Charging>  (191) 
5.45518e-08

>  <r_epik_Ionization_Penalty_Neutral>  (191) 
0.946615

>  <r_epik_State_Penalty>  (191) 
0.910191

>  <r_epik_Charging_Adjusted_Penalty>  (191) 
0.910191

>  <i_epik_Tot_Q>  (191) 
0

>  <i_epik_Tot_abs_Q>  (191) 
0

>  <s_lp_Force_Field>  (191) 
OPLS3e

>  <r_lp_Energy>  (191) 
14.9171

>  <b_lp_Chiralities_Consistent>  (191) 
1

>  <s_lp_Variant>  (191) 
46:0-2

>  <s_i_glide_gridfile>  (191) 
pfpi4k_grid

>  <i_i_glide_lignum>  (191) 
35

>  <i_i_glide_rotatable_bonds>  (191) 
0

>  <r_i_docking_score>  (191) 
-4.71436

>  <r_i_glide_ligand_efficiency>  (191) 
-0.392863

>  <r_i_glide_ligand_efficiency_sa>  (191) 
-0.899433

>  <r_i_glide_ligand_efficiency_ln>  (191) 
-1.35279

>  <r_i_glide_gscore>  (191) 
-4.71436

>  <r_i_glide_lipo>  (191) 
-0.359154

>  <r_i_glide_hbond>  (191) 
-0.199891

>  <r_i_glide_metal>  (191) 
-0

>  <r_i_glide_rewards>  (191) 
-2.43879

>  <r_i_glide_evdw>  (191) 
-20.0749

>  <r_i_glide_ecoul>  (191) 
-3.92649

>  <r_i_glide_erotb>  (191) 
0

>  <r_i_glide_esite>  (191) 
-0.123802

>  <r_i_glide_emodel>  (191) 
-31.9347

>  <r_i_glide_energy>  (191) 
-24.0014

>  <r_i_glide_einternal>  (191) 
0

>  <r_i_glide_intrahb_reward>  (191) 
-0

>  <i_i_glide_confnum>  (191) 
1

>  <i_i_glide_posenum>  (191) 
2

>  <r_i_glide_eff_state_penalty>  (191) 
0

>  <ligand_id>  (191) 
46

>  <original_smiles>  (191) 
c1ccn2c(c1)nc1n[nH]nc12

>  <smiles>  (191) 
[H]c1c([H])c([H])n2c(nc3nn([H])nc32)c1[H]

$$$$
46:1:1
     RDKit          3D

 17 19  0  0  1  0  0  0  0  0999 V2000
    2.9804   -1.5750   -3.8923 C   0  0  0  0  0  0  0  0  0  0  0  0
    2.2379   -2.6583   -3.3825 C   0  0  0  0  0  0  0  0  0  0  0  0
    2.7600   -3.3586   -2.2864 C   0  0  0  0  0  0  0  0  0  0  0  0
    3.9898   -3.0043   -1.7454 N   0  0  0  0  0  0  0  0  0  0  0  0
    4.7448   -1.9326   -2.2235 C   0  0  0  0  0  0  0  0  0  0  0  0
    4.2119   -1.1974   -3.3186 C   0  0  0  0  0  0  0  0  0  0  0  0
    5.8978   -1.7943   -1.5195 N   0  0  0  0  0  0  0  0  0  0  0  0
    5.8331   -2.8318   -0.5753 C   0  0  0  0  0  0  0  0  0  0  0  0
    6.6076   -3.2382    0.3783 N   0  0  0  0  0  0  0  0  0  0  0  0
    5.8127   -4.2933    0.8096 N   0  0  0  0  0  0  0  0  0  0  0  0
    4.6085   -4.5074    0.1379 N   0  0  0  0  0  0  0  0  0  0  0  0
    4.6879   -3.5229   -0.7473 C   0  0  0  0  0  0  0  0  0  0  0  0
    6.0969   -4.8796    1.5805 H   0  0  0  0  0  0  0  0  0  0  0  0
    2.5787   -1.0035   -4.7159 H   0  0  0  0  0  0  0  0  0  0  0  0
    1.2844   -2.9378   -3.8107 H   0  0  0  0  0  0  0  0  0  0  0  0
    2.2436   -4.2009   -1.8525 H   0  0  0  0  0  0  0  0  0  0  0  0
    4.7429   -0.3461   -3.7037 H   0  0  0  0  0  0  0  0  0  0  0  0
  1  6  2  0
  1  2  1  0
  1 14  1  0
  2  3  2  0
  2 15  1  0
  3  4  1  0
  3 16  1  0
  4 12  1  0
  4  5  1  0
  5  6  1  0
  5  7  2  0
  6 17  1  0
  7  8  1  0
  8 12  1  0
  8  9  2  0
  9 10  1  0
 10 13  1  0
 10 11  1  0
 11 12  2  0
M  END
>  <i_m_ct_stereo_status>  (192) 
1

>  <s_m_source_file>  (192) 
/var/tmp/pbs.5076255.sched01/tmpguie9axe/40t6mruo9t.sdf

>  <i_m_source_file_index>  (192) 
35

>  <i_lp_mmshare_version>  (192) 
48012

>  <i_f3d_flags>  (192) 
0

>  <s_epik_input>  (192) 
W2NIXTFbY0hdW2NIXVtjSF1jKG4xMiluYzNjMm5bbkhdbjM=

>  <s_epik_cmdline>  (192) 
J2VwaWtfcHl0aG9uJywgJy1waHQnLCAnMi4wJywgJy1waCcsICc3LjAnLCAnLXRuJywgJzgnLCAnLW1hJywgJzIwMCcsICctaW1hZScsICc8aW5maWxlLm1hZT4nLCAnLW9tYWUnLCAnPG91dGZpbGUubWFlPic=

>  <r_lp_tautomer_probability>  (192) 
0.5

>  <r_epik_Ionization_Penalty>  (192) 
0.946615

>  <r_epik_Ionization_Penalty_Charging>  (192) 
5.45518e-08

>  <r_epik_Ionization_Penalty_Neutral>  (192) 
0.946615

>  <r_epik_State_Penalty>  (192) 
0.910191

>  <r_epik_Charging_Adjusted_Penalty>  (192) 
0.910191

>  <i_epik_Tot_Q>  (192) 
0

>  <i_epik_Tot_abs_Q>  (192) 
0

>  <s_lp_Force_Field>  (192) 
OPLS3e

>  <r_lp_Energy>  (192) 
14.9171

>  <b_lp_Chiralities_Consistent>  (192) 
1

>  <s_lp_Variant>  (192) 
46:0-2

>  <s_i_glide_gridfile>  (192) 
pfpi4k_grid

>  <i_i_glide_lignum>  (192) 
35

>  <i_i_glide_rotatable_bonds>  (192) 
0

>  <r_i_docking_score>  (192) 
-4.55051

>  <r_i_glide_ligand_efficiency>  (192) 
-0.379209

>  <r_i_glide_ligand_efficiency_sa>  (192) 
-0.868172

>  <r_i_glide_ligand_efficiency_ln>  (192) 
-1.30578

>  <r_i_glide_gscore>  (192) 
-4.55051

>  <r_i_glide_lipo>  (192) 
-0.496911

>  <r_i_glide_hbond>  (192) 
-0.0705183

>  <r_i_glide_metal>  (192) 
-0

>  <r_i_glide_rewards>  (192) 
-2.30322

>  <r_i_glide_evdw>  (192) 
-16.6702

>  <r_i_glide_ecoul>  (192) 
-5.46585

>  <r_i_glide_erotb>  (192) 
0

>  <r_i_glide_esite>  (192) 
-0.0264672

>  <r_i_glide_emodel>  (192) 
-29.7944

>  <r_i_glide_energy>  (192) 
-22.1361

>  <r_i_glide_einternal>  (192) 
0

>  <r_i_glide_intrahb_reward>  (192) 
-0

>  <i_i_glide_confnum>  (192) 
2

>  <i_i_glide_posenum>  (192) 
21

>  <r_i_glide_eff_state_penalty>  (192) 
0

>  <ligand_id>  (192) 
46

>  <original_smiles>  (192) 
c1ccn2c(c1)nc1n[nH]nc12

>  <smiles>  (192) 
[H]c1c([H])c([H])n2c(nc3nn([H])nc32)c1[H]

$$$$
46:1:2
     RDKit          3D

 17 19  0  0  1  0  0  0  0  0999 V2000
   -1.1689    2.3566    3.0891 C   0  0  0  0  0  0  0  0  0  0  0  0
   -0.1561    1.6879    2.3720 C   0  0  0  0  0  0  0  0  0  0  0  0
    0.2365    0.4151    2.8057 C   0  0  0  0  0  0  0  0  0  0  0  0
   -0.3684   -0.1607    3.9189 N   0  0  0  0  0  0  0  0  0  0  0  0
   -1.3767    0.4747    4.6512 C   0  0  0  0  0  0  0  0  0  0  0  0
   -1.7831    1.7697    4.2217 C   0  0  0  0  0  0  0  0  0  0  0  0
   -1.7962   -0.3048    5.6822 N   0  0  0  0  0  0  0  0  0  0  0  0
   -1.0022   -1.4577    5.5618 C   0  0  0  0  0  0  0  0  0  0  0  0
   -0.9158   -2.5666    6.2245 N   0  0  0  0  0  0  0  0  0  0  0  0
    0.0941   -3.1428    5.4639 N   0  0  0  0  0  0  0  0  0  0  0  0
    0.5799   -2.4114    4.3809 N   0  0  0  0  0  0  0  0  0  0  0  0
   -0.1738   -1.3288    4.5080 C   0  0  0  0  0  0  0  0  0  0  0  0
    0.4588   -4.0582    5.6852 H   0  0  0  0  0  0  0  0  0  0  0  0
   -1.4799    3.3362    2.7594 H   0  0  0  0  0  0  0  0  0  0  0  0
    0.3033    2.1424    1.5035 H   0  0  0  0  0  0  0  0  0  0  0  0
    1.0034   -0.1517    2.2968 H   0  0  0  0  0  0  0  0  0  0  0  0
   -2.5643    2.2865    4.7592 H   0  0  0  0  0  0  0  0  0  0  0  0
  1  6  2  0
  1  2  1  0
  1 14  1  0
  2  3  2  0
  2 15  1  0
  3  4  1  0
  3 16  1  0
  4 12  1  0
  4  5  1  0
  5  6  1  0
  5  7  2  0
  6 17  1  0
  7  8  1  0
  8 12  1  0
  8  9  2  0
  9 10  1  0
 10 13  1  0
 10 11  1  0
 11 12  2  0
M  END
>  <i_m_ct_stereo_status>  (193) 
1

>  <s_m_source_file>  (193) 
/var/tmp/pbs.5076255.sched01/tmpguie9axe/40t6mruo9t.sdf

>  <i_m_source_file_index>  (193) 
35

>  <i_lp_mmshare_version>  (193) 
48012

>  <i_f3d_flags>  (193) 
0

>  <s_epik_input>  (193) 
W2NIXTFbY0hdW2NIXVtjSF1jKG4xMiluYzNjMm5bbkhdbjM=

>  <s_epik_cmdline>  (193) 
J2VwaWtfcHl0aG9uJywgJy1waHQnLCAnMi4wJywgJy1waCcsICc3LjAnLCAnLXRuJywgJzgnLCAnLW1hJywgJzIwMCcsICctaW1hZScsICc8aW5maWxlLm1hZT4nLCAnLW9tYWUnLCAnPG91dGZpbGUubWFlPic=

>  <r_lp_tautomer_probability>  (193) 
0.5

>  <r_epik_Ionization_Penalty>  (193) 
0.946615

>  <r_epik_Ionization_Penalty_Charging>  (193) 
5.45518e-08

>  <r_epik_Ionization_Penalty_Neutral>  (193) 
0.946615

>  <r_epik_State_Penalty>  (193) 
0.910191

>  <r_epik_Charging_Adjusted_Penalty>  (193) 
0.910191

>  <i_epik_Tot_Q>  (193) 
0

>  <i_epik_Tot_abs_Q>  (193) 
0

>  <s_lp_Force_Field>  (193) 
OPLS3e

>  <r_lp_Energy>  (193) 
14.9171

>  <b_lp_Chiralities_Consistent>  (193) 
1

>  <s_lp_Variant>  (193) 
46:0-2

>  <s_i_glide_gridfile>  (193) 
pfpi4k_grid

>  <i_i_glide_lignum>  (193) 
35

>  <i_i_glide_rotatable_bonds>  (193) 
0

>  <r_i_docking_score>  (193) 
-3.71951

>  <r_i_glide_ligand_efficiency>  (193) 
-0.30996

>  <r_i_glide_ligand_efficiency_sa>  (193) 
-0.70963

>  <r_i_glide_ligand_efficiency_ln>  (193) 
-1.06732

>  <r_i_glide_gscore>  (193) 
-3.71951

>  <r_i_glide_lipo>  (193) 
0

>  <r_i_glide_hbond>  (193) 
-0.0479745

>  <r_i_glide_metal>  (193) 
-0

>  <r_i_glide_rewards>  (193) 
-2.25

>  <r_i_glide_evdw>  (193) 
-15.023

>  <r_i_glide_ecoul>  (193) 
-3.65372

>  <r_i_glide_erotb>  (193) 
0

>  <r_i_glide_esite>  (193) 
-0.122333

>  <r_i_glide_emodel>  (193) 
-24.9402

>  <r_i_glide_energy>  (193) 
-18.6767

>  <r_i_glide_einternal>  (193) 
0

>  <r_i_glide_intrahb_reward>  (193) 
-0

>  <i_i_glide_confnum>  (193) 
2

>  <i_i_glide_posenum>  (193) 
1

>  <r_i_glide_eff_state_penalty>  (193) 
0

>  <ligand_id>  (193) 
46

>  <original_smiles>  (193) 
c1ccn2c(c1)nc1n[nH]nc12

>  <smiles>  (193) 
[H]c1c([H])c([H])n2c(nc3nn([H])nc32)c1[H]

$$$$
46:2:0
     RDKit          3D

 17 19  0  0  1  0  0  0  0  0999 V2000
    3.0209   -1.0255   -3.7815 C   0  0  0  0  0  0  0  0  0  0  0  0
    2.4091   -2.2796   -3.5847 C   0  0  0  0  0  0  0  0  0  0  0  0
    2.9504   -3.1476   -2.6314 C   0  0  0  0  0  0  0  0  0  0  0  0
    4.0993   -2.8020   -1.9285 N   0  0  0  0  0  0  0  0  0  0  0  0
    4.7297   -1.5557   -2.1003 C   0  0  0  0  0  0  0  0  0  0  0  0
    4.1657   -0.6529   -3.0430 C   0  0  0  0  0  0  0  0  0  0  0  0
    5.8184   -1.4228   -1.2951 N   0  0  0  0  0  0  0  0  0  0  0  0
    5.8306   -2.6483   -0.6375 C   0  0  0  0  0  0  0  0  0  0  0  0
    6.6065   -3.2891    0.3131 N   0  0  0  0  0  0  0  0  0  0  0  0
    6.0133   -4.4793    0.4843 N   0  0  0  0  0  0  0  0  0  0  0  0
    4.8983   -4.5742   -0.3452 N   0  0  0  0  0  0  0  0  0  0  0  0
    4.8301   -3.4268   -1.0127 C   0  0  0  0  0  0  0  0  0  0  0  0
    4.3142   -5.3929   -0.3821 H   0  0  0  0  0  0  0  0  0  0  0  0
    2.5874   -0.3209   -4.4789 H   0  0  0  0  0  0  0  0  0  0  0  0
    1.5108   -2.5523   -4.1287 H   0  0  0  0  0  0  0  0  0  0  0  0
    2.4827   -4.0966   -2.4349 H   0  0  0  0  0  0  0  0  0  0  0  0
    4.6140    0.3179   -3.1704 H   0  0  0  0  0  0  0  0  0  0  0  0
  1  6  2  0
  1  2  1  0
  1 14  1  0
  2  3  2  0
  2 15  1  0
  3  4  1  0
  3 16  1  0
  4 12  1  0
  4  5  1  0
  5  6  1  0
  5  7  2  0
  6 17  1  0
  7  8  1  0
  8 12  2  0
  8  9  1  0
  9 10  2  0
 10 11  1  0
 11 12  1  0
 11 13  1  0
M  END
>  <i_m_ct_stereo_status>  (194) 
1

>  <s_m_source_file>  (194) 
/var/tmp/pbs.5076255.sched01/tmpguie9axe/40t6mruo9t.sdf

>  <i_m_source_file_index>  (194) 
36

>  <i_lp_mmshare_version>  (194) 
48012

>  <i_f3d_flags>  (194) 
0

>  <s_epik_input>  (194) 
W2NIXTFbY0hdW2NIXVtjSF1jKG4xMiluYzNjMm5bbkhdbjM=

>  <s_epik_cmdline>  (194) 
J2VwaWtfcHl0aG9uJywgJy1waHQnLCAnMi4wJywgJy1waCcsICc3LjAnLCAnLXRuJywgJzgnLCAnLW1hJywgJzIwMCcsICctaW1hZScsICc8aW5maWxlLm1hZT4nLCAnLW9tYWUnLCAnPG91dGZpbGUubWFlPic=

>  <r_lp_tautomer_probability>  (194) 
0.25

>  <r_epik_Ionization_Penalty>  (194) 
0.423835

>  <r_epik_Ionization_Penalty_Charging>  (194) 
2.591e-09

>  <r_epik_Ionization_Penalty_Neutral>  (194) 
0.423835

>  <r_epik_State_Penalty>  (194) 
1.01301

>  <r_epik_Charging_Adjusted_Penalty>  (194) 
1.01301

>  <i_epik_Tot_Q>  (194) 
0

>  <i_epik_Tot_abs_Q>  (194) 
0

>  <s_lp_Force_Field>  (194) 
OPLS3e

>  <r_lp_Energy>  (194) 
19.1333

>  <b_lp_Chiralities_Consistent>  (194) 
1

>  <s_lp_Variant>  (194) 
46:0-3

>  <s_i_glide_gridfile>  (194) 
pfpi4k_grid

>  <i_i_glide_lignum>  (194) 
36

>  <i_i_glide_rotatable_bonds>  (194) 
0

>  <r_i_docking_score>  (194) 
-4.86855

>  <r_i_glide_ligand_efficiency>  (194) 
-0.405712

>  <r_i_glide_ligand_efficiency_sa>  (194) 
-0.928849

>  <r_i_glide_ligand_efficiency_ln>  (194) 
-1.39704

>  <r_i_glide_gscore>  (194) 
-4.86855

>  <r_i_glide_lipo>  (194) 
-0.615652

>  <r_i_glide_hbond>  (194) 
-0.0739035

>  <r_i_glide_metal>  (194) 
-0

>  <r_i_glide_rewards>  (194) 
-2.30808

>  <r_i_glide_evdw>  (194) 
-16.9791

>  <r_i_glide_ecoul>  (194) 
-6.42938

>  <r_i_glide_erotb>  (194) 
0

>  <r_i_glide_esite>  (194) 
-0.0575435

>  <r_i_glide_emodel>  (194) 
-32.2146

>  <r_i_glide_energy>  (194) 
-23.4085

>  <r_i_glide_einternal>  (194) 
0

>  <r_i_glide_intrahb_reward>  (194) 
-0

>  <i_i_glide_confnum>  (194) 
1

>  <i_i_glide_posenum>  (194) 
10

>  <r_i_glide_eff_state_penalty>  (194) 
0

>  <ligand_id>  (194) 
46

>  <original_smiles>  (194) 
c1ccn2c(c1)nc1n[nH]nc12

>  <smiles>  (194) 
[H]c1c([H])c([H])n2c(nc3nnn([H])c32)c1[H]

$$$$
46:2:1
     RDKit          3D

 17 19  0  0  1  0  0  0  0  0999 V2000
    4.9781   -8.2269    1.2745 C   0  0  0  0  0  0  0  0  0  0  0  0
    4.4985   -9.4684    1.7294 C   0  0  0  0  0  0  0  0  0  0  0  0
    3.1442   -9.5847    2.0862 C   0  0  0  0  0  0  0  0  0  0  0  0
    2.3054   -8.4762    2.0000 N   0  0  0  0  0  0  0  0  0  0  0  0
    2.7549   -7.2155    1.5419 C   0  0  0  0  0  0  0  0  0  0  0  0
    4.1239   -7.1028    1.1738 C   0  0  0  0  0  0  0  0  0  0  0  0
    1.7520   -6.2872    1.5189 N   0  0  0  0  0  0  0  0  0  0  0  0
    0.6888   -7.0445    1.9980 C   0  0  0  0  0  0  0  0  0  0  0  0
   -0.6500   -6.8406    2.2680 N   0  0  0  0  0  0  0  0  0  0  0  0
   -1.0945   -8.0251    2.7083 N   0  0  0  0  0  0  0  0  0  0  0  0
   -0.0528   -8.9475    2.7171 N   0  0  0  0  0  0  0  0  0  0  0  0
    1.0179   -8.2953    2.2723 C   0  0  0  0  0  0  0  0  0  0  0  0
   -0.1861   -9.9040    3.0099 H   0  0  0  0  0  0  0  0  0  0  0  0
    6.0161   -8.1328    0.9845 H   0  0  0  0  0  0  0  0  0  0  0  0
    5.1512  -10.3300    1.7899 H   0  0  0  0  0  0  0  0  0  0  0  0
    2.7315  -10.5203    2.4329 H   0  0  0  0  0  0  0  0  0  0  0  0
    4.4941   -6.1572    0.8116 H   0  0  0  0  0  0  0  0  0  0  0  0
  1  6  2  0
  1  2  1  0
  1 14  1  0
  2  3  2  0
  2 15  1  0
  3  4  1  0
  3 16  1  0
  4 12  1  0
  4  5  1  0
  5  6  1  0
  5  7  2  0
  6 17  1  0
  7  8  1  0
  8 12  2  0
  8  9  1  0
  9 10  2  0
 10 11  1  0
 11 12  1  0
 11 13  1  0
M  END
>  <i_m_ct_stereo_status>  (195) 
1

>  <s_m_source_file>  (195) 
/var/tmp/pbs.5076255.sched01/tmpguie9axe/40t6mruo9t.sdf

>  <i_m_source_file_index>  (195) 
36

>  <i_lp_mmshare_version>  (195) 
48012

>  <i_f3d_flags>  (195) 
0

>  <s_epik_input>  (195) 
W2NIXTFbY0hdW2NIXVtjSF1jKG4xMiluYzNjMm5bbkhdbjM=

>  <s_epik_cmdline>  (195) 
J2VwaWtfcHl0aG9uJywgJy1waHQnLCAnMi4wJywgJy1waCcsICc3LjAnLCAnLXRuJywgJzgnLCAnLW1hJywgJzIwMCcsICctaW1hZScsICc8aW5maWxlLm1hZT4nLCAnLW9tYWUnLCAnPG91dGZpbGUubWFlPic=

>  <r_lp_tautomer_probability>  (195) 
0.25

>  <r_epik_Ionization_Penalty>  (195) 
0.423835

>  <r_epik_Ionization_Penalty_Charging>  (195) 
2.591e-09

>  <r_epik_Ionization_Penalty_Neutral>  (195) 
0.423835

>  <r_epik_State_Penalty>  (195) 
1.01301

>  <r_epik_Charging_Adjusted_Penalty>  (195) 
1.01301

>  <i_epik_Tot_Q>  (195) 
0

>  <i_epik_Tot_abs_Q>  (195) 
0

>  <s_lp_Force_Field>  (195) 
OPLS3e

>  <r_lp_Energy>  (195) 
19.1333

>  <b_lp_Chiralities_Consistent>  (195) 
1

>  <s_lp_Variant>  (195) 
46:0-3

>  <s_i_glide_gridfile>  (195) 
pfpi4k_grid

>  <i_i_glide_lignum>  (195) 
36

>  <i_i_glide_rotatable_bonds>  (195) 
0

>  <r_i_docking_score>  (195) 
-4.2353

>  <r_i_glide_ligand_efficiency>  (195) 
-0.352941

>  <r_i_glide_ligand_efficiency_sa>  (195) 
-0.808034

>  <r_i_glide_ligand_efficiency_ln>  (195) 
-1.21533

>  <r_i_glide_gscore>  (195) 
-4.2353

>  <r_i_glide_lipo>  (195) 
-0.151251

>  <r_i_glide_hbond>  (195) 
0

>  <r_i_glide_metal>  (195) 
-0

>  <r_i_glide_rewards>  (195) 
-2.27211

>  <r_i_glide_evdw>  (195) 
-15.8064

>  <r_i_glide_ecoul>  (195) 
-4.8408

>  <r_i_glide_erotb>  (195) 
0

>  <r_i_glide_esite>  (195) 
-0.295503

>  <r_i_glide_emodel>  (195) 
-28.3203

>  <r_i_glide_energy>  (195) 
-20.6472

>  <r_i_glide_einternal>  (195) 
0

>  <r_i_glide_intrahb_reward>  (195) 
-0

>  <i_i_glide_confnum>  (195) 
1

>  <i_i_glide_posenum>  (195) 
6

>  <r_i_glide_eff_state_penalty>  (195) 
0

>  <ligand_id>  (195) 
46

>  <original_smiles>  (195) 
c1ccn2c(c1)nc1n[nH]nc12

>  <smiles>  (195) 
[H]c1c([H])c([H])n2c(nc3nnn([H])c32)c1[H]

$$$$
46:2:2
     RDKit          3D

 17 19  0  0  1  0  0  0  0  0999 V2000
   -1.1495    2.3731    3.1519 C   0  0  0  0  0  0  0  0  0  0  0  0
   -0.1628    1.6839    2.4194 C   0  0  0  0  0  0  0  0  0  0  0  0
    0.2141    0.4004    2.8418 C   0  0  0  0  0  0  0  0  0  0  0  0
   -0.3843   -0.1749    3.9649 N   0  0  0  0  0  0  0  0  0  0  0  0
   -1.3782    0.4931    4.7173 C   0  0  0  0  0  0  0  0  0  0  0  0
   -1.7586    1.7972    4.2919 C   0  0  0  0  0  0  0  0  0  0  0  0
   -1.8230   -0.2586    5.7685 N   0  0  0  0  0  0  0  0  0  0  0  0
   -1.0485   -1.4066    5.6145 C   0  0  0  0  0  0  0  0  0  0  0  0
   -0.9084   -2.6253    6.2567 N   0  0  0  0  0  0  0  0  0  0  0  0
    0.0370   -3.2667    5.5583 N   0  0  0  0  0  0  0  0  0  0  0  0
    0.4644   -2.4744    4.4950 N   0  0  0  0  0  0  0  0  0  0  0  0
   -0.2308   -1.3449    4.5760 C   0  0  0  0  0  0  0  0  0  0  0  0
    1.1747   -2.7820    3.8471 H   0  0  0  0  0  0  0  0  0  0  0  0
   -1.4470    3.3612    2.8288 H   0  0  0  0  0  0  0  0  0  0  0  0
    0.2873    2.1353    1.5453 H   0  0  0  0  0  0  0  0  0  0  0  0
    0.9613   -0.1692    2.3081 H   0  0  0  0  0  0  0  0  0  0  0  0
   -2.5172    2.3302    4.8421 H   0  0  0  0  0  0  0  0  0  0  0  0
  1  6  2  0
  1  2  1  0
  1 14  1  0
  2  3  2  0
  2 15  1  0
  3  4  1  0
  3 16  1  0
  4 12  1  0
  4  5  1  0
  5  6  1  0
  5  7  2  0
  6 17  1  0
  7  8  1  0
  8 12  2  0
  8  9  1  0
  9 10  2  0
 10 11  1  0
 11 12  1  0
 11 13  1  0
M  END
>  <i_m_ct_stereo_status>  (196) 
1

>  <s_m_source_file>  (196) 
/var/tmp/pbs.5076255.sched01/tmpguie9axe/40t6mruo9t.sdf

>  <i_m_source_file_index>  (196) 
36

>  <i_lp_mmshare_version>  (196) 
48012

>  <i_f3d_flags>  (196) 
0

>  <s_epik_input>  (196) 
W2NIXTFbY0hdW2NIXVtjSF1jKG4xMiluYzNjMm5bbkhdbjM=

>  <s_epik_cmdline>  (196) 
J2VwaWtfcHl0aG9uJywgJy1waHQnLCAnMi4wJywgJy1waCcsICc3LjAnLCAnLXRuJywgJzgnLCAnLW1hJywgJzIwMCcsICctaW1hZScsICc8aW5maWxlLm1hZT4nLCAnLW9tYWUnLCAnPG91dGZpbGUubWFlPic=

>  <r_lp_tautomer_probability>  (196) 
0.25

>  <r_epik_Ionization_Penalty>  (196) 
0.423835

>  <r_epik_Ionization_Penalty_Charging>  (196) 
2.591e-09

>  <r_epik_Ionization_Penalty_Neutral>  (196) 
0.423835

>  <r_epik_State_Penalty>  (196) 
1.01301

>  <r_epik_Charging_Adjusted_Penalty>  (196) 
1.01301

>  <i_epik_Tot_Q>  (196) 
0

>  <i_epik_Tot_abs_Q>  (196) 
0

>  <s_lp_Force_Field>  (196) 
OPLS3e

>  <r_lp_Energy>  (196) 
19.1333

>  <b_lp_Chiralities_Consistent>  (196) 
1

>  <s_lp_Variant>  (196) 
46:0-3

>  <s_i_glide_gridfile>  (196) 
pfpi4k_grid

>  <i_i_glide_lignum>  (196) 
36

>  <i_i_glide_rotatable_bonds>  (196) 
0

>  <r_i_docking_score>  (196) 
-4.10411

>  <r_i_glide_ligand_efficiency>  (196) 
-0.342009

>  <r_i_glide_ligand_efficiency_sa>  (196) 
-0.783006

>  <r_i_glide_ligand_efficiency_ln>  (196) 
-1.17768

>  <r_i_glide_gscore>  (196) 
-4.10411

>  <r_i_glide_lipo>  (196) 
0

>  <r_i_glide_hbond>  (196) 
-0.0781496

>  <r_i_glide_metal>  (196) 
-0

>  <r_i_glide_rewards>  (196) 
-2.25

>  <r_i_glide_evdw>  (196) 
-14.7687

>  <r_i_glide_ecoul>  (196) 
-5.76413

>  <r_i_glide_erotb>  (196) 
0

>  <r_i_glide_esite>  (196) 
-0.172906

>  <r_i_glide_emodel>  (196) 
-27.9726

>  <r_i_glide_energy>  (196) 
-20.5329

>  <r_i_glide_einternal>  (196) 
0

>  <r_i_glide_intrahb_reward>  (196) 
-0

>  <i_i_glide_confnum>  (196) 
1

>  <i_i_glide_posenum>  (196) 
34

>  <r_i_glide_eff_state_penalty>  (196) 
0

>  <ligand_id>  (196) 
46

>  <original_smiles>  (196) 
c1ccn2c(c1)nc1n[nH]nc12

>  <smiles>  (196) 
[H]c1c([H])c([H])n2c(nc3nnn([H])c32)c1[H]

$$$$
46:3:0
     RDKit          3D

 17 19  0  0  1  0  0  0  0  0999 V2000
    3.2187   -1.3991   -3.3064 C   0  0  0  0  0  0  0  0  0  0  0  0
    2.5122   -2.5449   -2.8865 C   0  0  0  0  0  0  0  0  0  0  0  0
    3.0931   -3.3503   -1.9003 C   0  0  0  0  0  0  0  0  0  0  0  0
    4.3431   -3.0508   -1.3807 N   0  0  0  0  0  0  0  0  0  0  0  0
    5.0714   -1.9307   -1.7775 C   0  0  0  0  0  0  0  0  0  0  0  0
    4.4845   -1.0793   -2.7574 C   0  0  0  0  0  0  0  0  0  0  0  0
    6.2503   -1.8834   -1.1118 N   0  0  0  0  0  0  0  0  0  0  0  0
    6.2163   -2.9731   -0.3284 C   0  0  0  0  0  0  0  0  0  0  0  0
    7.0013   -3.5794    0.5869 N   0  0  0  0  0  0  0  0  0  0  0  0
    6.2744   -4.6820    0.9784 N   0  0  0  0  0  0  0  0  0  0  0  0
    5.1134   -4.7270    0.3223 N   0  0  0  0  0  0  0  0  0  0  0  0
    5.0680   -3.6906   -0.4749 C   0  0  0  0  0  0  0  0  0  0  0  0
    7.9082   -3.3205    0.9431 H   0  0  0  0  0  0  0  0  0  0  0  0
    2.7737   -0.7427   -4.0399 H   0  0  0  0  0  0  0  0  0  0  0  0
    1.5314   -2.7751   -3.2783 H   0  0  0  0  0  0  0  0  0  0  0  0
    2.5997   -4.2303   -1.5197 H   0  0  0  0  0  0  0  0  0  0  0  0
    5.0102   -0.2006   -3.0801 H   0  0  0  0  0  0  0  0  0  0  0  0
  1  6  2  0
  1  2  1  0
  1 14  1  0
  2  3  2  0
  2 15  1  0
  3  4  1  0
  3 16  1  0
  4 12  1  0
  4  5  1  0
  5  6  1  0
  5  7  2  0
  6 17  1  0
  7  8  1  0
  8 12  2  0
  8  9  1  0
  9 10  1  0
  9 13  1  0
 10 11  2  0
 11 12  1  0
M  END
>  <i_m_ct_stereo_status>  (197) 
1

>  <s_m_source_file>  (197) 
/var/tmp/pbs.5076255.sched01/tmpguie9axe/40t6mruo9t.sdf

>  <i_m_source_file_index>  (197) 
37

>  <i_lp_mmshare_version>  (197) 
48012

>  <i_f3d_flags>  (197) 
0

>  <s_epik_input>  (197) 
W2NIXTFbY0hdW2NIXVtjSF1jKG4xMiluYzNjMm5bbkhdbjM=

>  <s_epik_cmdline>  (197) 
J2VwaWtfcHl0aG9uJywgJy1waHQnLCAnMi4wJywgJy1waCcsICc3LjAnLCAnLXRuJywgJzgnLCAnLW1hJywgJzIwMCcsICctaW1hZScsICc8aW5maWxlLm1hZT4nLCAnLW9tYWUnLCAnPG91dGZpbGUubWFlPic=

>  <r_lp_tautomer_probability>  (197) 
0.25

>  <r_epik_Ionization_Penalty>  (197) 
1.24308

>  <r_epik_Ionization_Penalty_Charging>  (197) 
9.27609e-07

>  <r_epik_Ionization_Penalty_Neutral>  (197) 
1.24308

>  <r_epik_State_Penalty>  (197) 
1.30922

>  <r_epik_Charging_Adjusted_Penalty>  (197) 
1.30922

>  <i_epik_Tot_Q>  (197) 
0

>  <i_epik_Tot_abs_Q>  (197) 
0

>  <s_lp_Force_Field>  (197) 
OPLS3e

>  <r_lp_Energy>  (197) 
14.9265

>  <b_lp_Chiralities_Consistent>  (197) 
1

>  <s_lp_Variant>  (197) 
46:0-4

>  <s_i_glide_gridfile>  (197) 
pfpi4k_grid

>  <i_i_glide_lignum>  (197) 
37

>  <i_i_glide_rotatable_bonds>  (197) 
0

>  <r_i_docking_score>  (197) 
-4.35062

>  <r_i_glide_ligand_efficiency>  (197) 
-0.362551

>  <r_i_glide_ligand_efficiency_sa>  (197) 
-0.830035

>  <r_i_glide_ligand_efficiency_ln>  (197) 
-1.24842

>  <r_i_glide_gscore>  (197) 
-4.35062

>  <r_i_glide_lipo>  (197) 
-0.152132

>  <r_i_glide_hbond>  (197) 
-0.143279

>  <r_i_glide_metal>  (197) 
-0

>  <r_i_glide_rewards>  (197) 
-2.37825

>  <r_i_glide_evdw>  (197) 
-16.8308

>  <r_i_glide_ecoul>  (197) 
-5.33183

>  <r_i_glide_erotb>  (197) 
0

>  <r_i_glide_esite>  (197) 
-0.0356394

>  <r_i_glide_emodel>  (197) 
-28.6098

>  <r_i_glide_energy>  (197) 
-22.1627

>  <r_i_glide_einternal>  (197) 
0

>  <r_i_glide_intrahb_reward>  (197) 
-0

>  <i_i_glide_confnum>  (197) 
1

>  <i_i_glide_posenum>  (197) 
4

>  <r_i_glide_eff_state_penalty>  (197) 
0

>  <ligand_id>  (197) 
46

>  <original_smiles>  (197) 
c1ccn2c(c1)nc1n[nH]nc12

>  <smiles>  (197) 
[H]c1c([H])c([H])n2c(nc3c2nnn3[H])c1[H]

$$$$
46:3:1
     RDKit          3D

 17 19  0  0  1  0  0  0  0  0999 V2000
   -2.5570    4.2734   10.0322 C   0  0  0  0  0  0  0  0  0  0  0  0
   -1.8694    3.1402   10.5058 C   0  0  0  0  0  0  0  0  0  0  0  0
   -1.4877    2.1620    9.5801 C   0  0  0  0  0  0  0  0  0  0  0  0
   -1.7888    2.3070    8.2325 N   0  0  0  0  0  0  0  0  0  0  0  0
   -2.4621    3.4231    7.7304 C   0  0  0  0  0  0  0  0  0  0  0  0
   -2.8587    4.4294    8.6572 C   0  0  0  0  0  0  0  0  0  0  0  0
   -2.6024    3.3125    6.3874 N   0  0  0  0  0  0  0  0  0  0  0  0
   -2.0189    2.1407    6.1000 C   0  0  0  0  0  0  0  0  0  0  0  0
   -1.7851    1.3741    5.0113 N   0  0  0  0  0  0  0  0  0  0  0  0
   -1.1276    0.2738    5.5123 N   0  0  0  0  0  0  0  0  0  0  0  0
   -0.9848    0.3831    6.8359 N   0  0  0  0  0  0  0  0  0  0  0  0
   -1.5248    1.5162    7.2016 C   0  0  0  0  0  0  0  0  0  0  0  0
   -2.0204    1.5192    4.0374 H   0  0  0  0  0  0  0  0  0  0  0  0
   -2.8583    5.0350   10.7346 H   0  0  0  0  0  0  0  0  0  0  0  0
   -1.6509    3.0163   11.5598 H   0  0  0  0  0  0  0  0  0  0  0  0
   -0.9601    1.2695    9.8823 H   0  0  0  0  0  0  0  0  0  0  0  0
   -3.3844    5.3062    8.3122 H   0  0  0  0  0  0  0  0  0  0  0  0
  1  6  2  0
  1  2  1  0
  1 14  1  0
  2  3  2  0
  2 15  1  0
  3  4  1  0
  3 16  1  0
  4 12  1  0
  4  5  1  0
  5  6  1  0
  5  7  2  0
  6 17  1  0
  7  8  1  0
  8 12  2  0
  8  9  1  0
  9 10  1  0
  9 13  1  0
 10 11  2  0
 11 12  1  0
M  END
>  <i_m_ct_stereo_status>  (198) 
1

>  <s_m_source_file>  (198) 
/var/tmp/pbs.5076255.sched01/tmpguie9axe/40t6mruo9t.sdf

>  <i_m_source_file_index>  (198) 
37

>  <i_lp_mmshare_version>  (198) 
48012

>  <i_f3d_flags>  (198) 
0

>  <s_epik_input>  (198) 
W2NIXTFbY0hdW2NIXVtjSF1jKG4xMiluYzNjMm5bbkhdbjM=

>  <s_epik_cmdline>  (198) 
J2VwaWtfcHl0aG9uJywgJy1waHQnLCAnMi4wJywgJy1waCcsICc3LjAnLCAnLXRuJywgJzgnLCAnLW1hJywgJzIwMCcsICctaW1hZScsICc8aW5maWxlLm1hZT4nLCAnLW9tYWUnLCAnPG91dGZpbGUubWFlPic=

>  <r_lp_tautomer_probability>  (198) 
0.25

>  <r_epik_Ionization_Penalty>  (198) 
1.24308

>  <r_epik_Ionization_Penalty_Charging>  (198) 
9.27609e-07

>  <r_epik_Ionization_Penalty_Neutral>  (198) 
1.24308

>  <r_epik_State_Penalty>  (198) 
1.30922

>  <r_epik_Charging_Adjusted_Penalty>  (198) 
1.30922

>  <i_epik_Tot_Q>  (198) 
0

>  <i_epik_Tot_abs_Q>  (198) 
0

>  <s_lp_Force_Field>  (198) 
OPLS3e

>  <r_lp_Energy>  (198) 
14.9265

>  <b_lp_Chiralities_Consistent>  (198) 
1

>  <s_lp_Variant>  (198) 
46:0-4

>  <s_i_glide_gridfile>  (198) 
pfpi4k_grid

>  <i_i_glide_lignum>  (198) 
37

>  <i_i_glide_rotatable_bonds>  (198) 
0

>  <r_i_docking_score>  (198) 
-4.25324

>  <r_i_glide_ligand_efficiency>  (198) 
-0.354437

>  <r_i_glide_ligand_efficiency_sa>  (198) 
-0.811457

>  <r_i_glide_ligand_efficiency_ln>  (198) 
-1.22047

>  <r_i_glide_gscore>  (198) 
-4.25324

>  <r_i_glide_lipo>  (198) 
-0.086473

>  <r_i_glide_hbond>  (198) 
0

>  <r_i_glide_metal>  (198) 
-0

>  <r_i_glide_rewards>  (198) 
-2.37858

>  <r_i_glide_evdw>  (198) 
-13.5476

>  <r_i_glide_ecoul>  (198) 
-6.01701

>  <r_i_glide_erotb>  (198) 
0

>  <r_i_glide_esite>  (198) 
-0.208253

>  <r_i_glide_emodel>  (198) 
-25.8713

>  <r_i_glide_energy>  (198) 
-19.5646

>  <r_i_glide_einternal>  (198) 
0

>  <r_i_glide_intrahb_reward>  (198) 
-0

>  <i_i_glide_confnum>  (198) 
1

>  <i_i_glide_posenum>  (198) 
1

>  <r_i_glide_eff_state_penalty>  (198) 
0

>  <ligand_id>  (198) 
46

>  <original_smiles>  (198) 
c1ccn2c(c1)nc1n[nH]nc12

>  <smiles>  (198) 
[H]c1c([H])c([H])n2c(nc3c2nnn3[H])c1[H]

$$$$
46:3:2
     RDKit          3D

 17 19  0  0  1  0  0  0  0  0999 V2000
    3.7587   -1.1964   -3.4414 C   0  0  0  0  0  0  0  0  0  0  0  0
    2.7570   -2.1887   -3.4819 C   0  0  0  0  0  0  0  0  0  0  0  0
    2.6225   -3.0433   -2.3777 C   0  0  0  0  0  0  0  0  0  0  0  0
    3.4661   -2.9166   -1.2867 N   0  0  0  0  0  0  0  0  0  0  0  0
    4.4687   -1.9461   -1.2119 C   0  0  0  0  0  0  0  0  0  0  0  0
    4.6143   -1.0614   -2.3198 C   0  0  0  0  0  0  0  0  0  0  0  0
    5.1318   -2.0562   -0.0378 N   0  0  0  0  0  0  0  0  0  0  0  0
    4.5177   -3.0792    0.5780 C   0  0  0  0  0  0  0  0  0  0  0  0
    4.6112   -3.7516    1.7452 N   0  0  0  0  0  0  0  0  0  0  0  0
    3.6192   -4.7023    1.6682 N   0  0  0  0  0  0  0  0  0  0  0  0
    2.9650   -4.5946    0.5104 N   0  0  0  0  0  0  0  0  0  0  0  0
    3.5090   -3.6112   -0.1597 C   0  0  0  0  0  0  0  0  0  0  0  0
    5.2411   -3.6277    2.5251 H   0  0  0  0  0  0  0  0  0  0  0  0
    3.8646   -0.5188   -4.2758 H   0  0  0  0  0  0  0  0  0  0  0  0
    2.0882   -2.2822   -4.3207 H   0  0  0  0  0  0  0  0  0  0  0  0
    1.8709   -3.8191   -2.3442 H   0  0  0  0  0  0  0  0  0  0  0  0
    5.3718   -0.2927   -2.2942 H   0  0  0  0  0  0  0  0  0  0  0  0
  1  6  2  0
  1  2  1  0
  1 14  1  0
  2  3  2  0
  2 15  1  0
  3  4  1  0
  3 16  1  0
  4 12  1  0
  4  5  1  0
  5  6  1  0
  5  7  2  0
  6 17  1  0
  7  8  1  0
  8 12  2  0
  8  9  1  0
  9 10  1  0
  9 13  1  0
 10 11  2  0
 11 12  1  0
M  END
>  <i_m_ct_stereo_status>  (199) 
1

>  <s_m_source_file>  (199) 
/var/tmp/pbs.5076255.sched01/tmpguie9axe/40t6mruo9t.sdf

>  <i_m_source_file_index>  (199) 
37

>  <i_lp_mmshare_version>  (199) 
48012

>  <i_f3d_flags>  (199) 
0

>  <s_epik_input>  (199) 
W2NIXTFbY0hdW2NIXVtjSF1jKG4xMiluYzNjMm5bbkhdbjM=

>  <s_epik_cmdline>  (199) 
J2VwaWtfcHl0aG9uJywgJy1waHQnLCAnMi4wJywgJy1waCcsICc3LjAnLCAnLXRuJywgJzgnLCAnLW1hJywgJzIwMCcsICctaW1hZScsICc8aW5maWxlLm1hZT4nLCAnLW9tYWUnLCAnPG91dGZpbGUubWFlPic=

>  <r_lp_tautomer_probability>  (199) 
0.25

>  <r_epik_Ionization_Penalty>  (199) 
1.24308

>  <r_epik_Ionization_Penalty_Charging>  (199) 
9.27609e-07

>  <r_epik_Ionization_Penalty_Neutral>  (199) 
1.24308

>  <r_epik_State_Penalty>  (199) 
1.30922

>  <r_epik_Charging_Adjusted_Penalty>  (199) 
1.30922

>  <i_epik_Tot_Q>  (199) 
0

>  <i_epik_Tot_abs_Q>  (199) 
0

>  <s_lp_Force_Field>  (199) 
OPLS3e

>  <r_lp_Energy>  (199) 
14.9265

>  <b_lp_Chiralities_Consistent>  (199) 
1

>  <s_lp_Variant>  (199) 
46:0-4

>  <s_i_glide_gridfile>  (199) 
pfpi4k_grid

>  <i_i_glide_lignum>  (199) 
37

>  <i_i_glide_rotatable_bonds>  (199) 
0

>  <r_i_docking_score>  (199) 
-3.94238

>  <r_i_glide_ligand_efficiency>  (199) 
-0.328532

>  <r_i_glide_ligand_efficiency_sa>  (199) 
-0.75215

>  <r_i_glide_ligand_efficiency_ln>  (199) 
-1.13127

>  <r_i_glide_gscore>  (199) 
-3.94238

>  <r_i_glide_lipo>  (199) 
-0.371736

>  <r_i_glide_hbond>  (199) 
0

>  <r_i_glide_metal>  (199) 
-0

>  <r_i_glide_rewards>  (199) 
-2.27596

>  <r_i_glide_evdw>  (199) 
-18.3987

>  <r_i_glide_ecoul>  (199) 
-2.06291

>  <r_i_glide_erotb>  (199) 
0

>  <r_i_glide_esite>  (199) 
-0.0653125

>  <r_i_glide_emodel>  (199) 
-26.306

>  <r_i_glide_energy>  (199) 
-20.4616

>  <r_i_glide_einternal>  (199) 
0

>  <r_i_glide_intrahb_reward>  (199) 
-0

>  <i_i_glide_confnum>  (199) 
2

>  <i_i_glide_posenum>  (199) 
26

>  <r_i_glide_eff_state_penalty>  (199) 
0

>  <ligand_id>  (199) 
46

>  <original_smiles>  (199) 
c1ccn2c(c1)nc1n[nH]nc12

>  <smiles>  (199) 
[H]c1c([H])c([H])n2c(nc3c2nnn3[H])c1[H]

$$$$
47:0:0
     RDKit          3D

 40 45  0  0  1  0  0  0  0  0999 V2000
   -1.5637    2.8261    3.8896 C   0  0  0  0  0  0  0  0  0  0  0  0
   -1.2599    1.6329    4.6539 N   0  0  0  0  0  0  0  0  0  0  0  0
   -0.9294    0.3716    4.1948 C   0  0  0  0  0  0  0  0  0  0  0  0
   -0.7527   -0.4079    5.3038 C   0  0  0  0  0  0  0  0  0  0  0  0
   -0.3872   -1.8261    5.3750 C   0  0  0  0  0  0  0  0  0  0  0  0
    0.2696   -2.5785    4.3673 C   0  0  0  0  0  0  0  0  0  0  0  0
    0.3747   -3.8468    4.8721 C   0  0  0  0  0  0  0  0  0  0  0  0
    0.8576   -5.0101    4.3852 N   0  0  0  0  0  0  0  0  0  0  0  0
    0.7595   -6.0872    5.1646 C   0  0  0  0  0  0  0  0  0  0  0  0
    1.3636   -7.3527    4.6309 C   0  0  2  0  0  0  0  0  0  0  0  0
    0.8445   -8.0215    3.3758 C   0  0  1  0  0  0  0  0  0  0  0  0
    1.7585   -8.8977    2.5135 C   0  0  0  0  0  0  0  0  0  0  0  0
    2.0197  -10.0488    3.3783 N   0  0  0  0  0  0  0  0  0  0  0  0
    2.7642  -11.1918    3.2974 C   0  0  0  0  0  0  0  0  0  0  0  0
    2.5726  -11.8346    4.5058 C   0  0  0  0  0  0  0  0  0  0  0  0
    1.7259  -11.0560    5.2667 N   0  0  0  0  0  0  0  0  0  0  0  0
    1.4225   -9.9622    4.5536 C   0  0  0  0  0  0  0  0  0  0  0  0
    0.6736   -8.7043    4.7188 C   0  0  1  0  0  0  0  0  0  0  0  0
    0.1916   -6.0693    6.4641 C   0  0  0  0  0  0  0  0  0  0  0  0
   -0.3073   -4.8845    6.9502 C   0  0  0  0  0  0  0  0  0  0  0  0
   -0.2187   -3.7852    6.1534 N   0  0  0  0  0  0  0  0  0  0  0  0
   -0.6892   -2.5281    6.4472 N   0  0  0  0  0  0  0  0  0  0  0  0
   -0.9656    0.4703    6.4044 C   0  0  0  0  0  0  0  0  0  0  0  0
   -1.2927    1.6904    6.0051 N   0  0  0  0  0  0  0  0  0  0  0  0
   -1.3348    2.6680    2.8350 H   0  0  0  0  0  0  0  0  0  0  0  0
   -0.9710    3.6691    4.2485 H   0  0  0  0  0  0  0  0  0  0  0  0
   -2.6225    3.0680    3.9867 H   0  0  0  0  0  0  0  0  0  0  0  0
   -0.8596    0.1498    3.1411 H   0  0  0  0  0  0  0  0  0  0  0  0
    0.6056   -2.2328    3.4012 H   0  0  0  0  0  0  0  0  0  0  0  0
    2.4431   -7.3441    4.8013 H   0  0  0  0  0  0  0  0  0  0  0  0
   -0.0364   -7.5965    2.8892 H   0  0  0  0  0  0  0  0  0  0  0  0
    1.2693   -9.2321    1.5986 H   0  0  0  0  0  0  0  0  0  0  0  0
    2.6944   -8.3787    2.3052 H   0  0  0  0  0  0  0  0  0  0  0  0
    3.3617  -11.4553    2.4313 H   0  0  0  0  0  0  0  0  0  0  0  0
    2.9770  -12.7659    4.8702 H   0  0  0  0  0  0  0  0  0  0  0  0
   -0.3365   -8.8631    5.0983 H   0  0  0  0  0  0  0  0  0  0  0  0
    0.1714   -6.9666    7.0722 H   0  0  0  0  0  0  0  0  0  0  0  0
   -0.7718   -4.7737    7.9219 H   0  0  0  0  0  0  0  0  0  0  0  0
   -0.9018    0.2672    7.4651 H   0  0  0  0  0  0  0  0  0  0  0  0
    1.4201  -11.2961    6.2128 H   0  0  0  0  0  0  0  0  0  0  0  0
  1  2  1  0
  1 25  1  0
  1 26  1  0
  1 27  1  0
  2 24  1  0
  2  3  1  0
  3  4  2  0
  3 28  1  0
  4  5  1  0
  4 23  1  0
  5 22  2  0
  5  6  1  0
  6  7  2  0
  6 29  1  0
  7 21  1  0
  7  8  1  0
  8  9  2  0
  9 10  1  0
  9 19  1  0
 10 18  1  0
 10 11  1  0
 10 30  1  6
 11 18  1  0
 11 12  1  0
 11 31  1  6
 12 13  1  0
 12 32  1  0
 12 33  1  0
 13 17  1  0
 13 14  1  0
 14 15  2  0
 14 34  1  0
 15 16  1  0
 15 35  1  0
 16 17  2  0
 16 40  1  0
 17 18  1  0
 18 36  1  1
 19 20  2  0
 19 37  1  0
 20 21  1  0
 20 38  1  0
 21 22  1  0
 23 24  2  0
 23 39  1  0
M  CHG  1  16   1
M  END
>  <i_m_ct_stereo_status>  (200) 
1

>  <s_m_source_file>  (200) 
/var/tmp/pbs.5076255.sched01/tmpguie9axe/40t6mruo9t.sdf

>  <i_m_source_file_index>  (200) 
38

>  <i_lp_mmshare_version>  (200) 
48012

>  <i_f3d_flags>  (200) 
0

>  <s_epik_input>  (200) 
W0NIM11uMVtjSF1jKFtjSF1uMSktYyhbY0hdMilubihjMjMpW2NIXVtjSF1jKG4zKVtDQEhdNFtDQEBIXShbQ0BASF00NSljNm4oW0NIMl01KVtjSF1bY0hdbjY=

>  <s_epik_cmdline>  (200) 
J2VwaWtfcHl0aG9uJywgJy1waHQnLCAnMi4wJywgJy1waCcsICc3LjAnLCAnLXRuJywgJzgnLCAnLW1hJywgJzIwMCcsICctaW1hZScsICc8aW5maWxlLm1hZT4nLCAnLW9tYWUnLCAnPG91dGZpbGUubWFlPic=

>  <r_lp_tautomer_probability>  (200) 
1

>  <r_epik_Ionization_Penalty>  (200) 
0.0754711

>  <r_epik_Ionization_Penalty_Charging>  (200) 
0

>  <r_epik_Ionization_Penalty_Neutral>  (200) 
0.0754711

>  <r_epik_State_Penalty>  (200) 
0.0664379

>  <r_epik_Charging_Adjusted_Penalty>  (200) 
0.0664379

>  <i_epik_Tot_Q>  (200) 
1

>  <i_epik_Tot_abs_Q>  (200) 
1

>  <s_lp_Force_Field>  (200) 
OPLS3e

>  <r_lp_Energy>  (200) 
32.4318

>  <b_lp_Chiralities_Consistent>  (200) 
1

>  <s_lp_Variant>  (200) 
47:0-1

>  <s_i_glide_gridfile>  (200) 
pfpi4k_grid

>  <i_i_glide_lignum>  (200) 
38

>  <i_i_glide_rotatable_bonds>  (200) 
2

>  <r_i_docking_score>  (200) 
-3.67686

>  <r_i_glide_ligand_efficiency>  (200) 
-0.153203

>  <r_i_glide_ligand_efficiency_sa>  (200) 
-0.441913

>  <r_i_glide_ligand_efficiency_ln>  (200) 
-0.880042

>  <r_i_glide_gscore>  (200) 
-3.67686

>  <r_i_glide_lipo>  (200) 
-0.079213

>  <r_i_glide_hbond>  (200) 
-0.2

>  <r_i_glide_metal>  (200) 
-0

>  <r_i_glide_rewards>  (200) 
-1.27483

>  <r_i_glide_evdw>  (200) 
-22.226

>  <r_i_glide_ecoul>  (200) 
-8.16645

>  <r_i_glide_erotb>  (200) 
0.367906

>  <r_i_glide_esite>  (200) 
-0.154456

>  <r_i_glide_emodel>  (200) 
-40.7674

>  <r_i_glide_energy>  (200) 
-30.3925

>  <r_i_glide_einternal>  (200) 
0.637466

>  <r_i_glide_intrahb_reward>  (200) 
-0

>  <i_i_glide_confnum>  (200) 
3

>  <i_i_glide_posenum>  (200) 
35

>  <r_i_glide_eff_state_penalty>  (200) 
0

>  <ligand_id>  (200) 
47

>  <original_smiles>  (200) 
Cn1cc(-c2cc3nc(C4C5Cn6ccnc6C54)ccn3n2)cn1

>  <smiles>  (200) 
[H]c1nn(C([H])([H])[H])c([H])c1-c1nn2c([H])c([H])c(C3([H])C4([H])c5n(c([H])c([H])[n+]5[H])C([H])([H])C34[H])nc2c1[H]

$$$$
47:0:1
     RDKit          3D

 40 45  0  0  1  0  0  0  0  0999 V2000
   -2.4946    3.0927   10.7058 C   0  0  0  0  0  0  0  0  0  0  0  0
   -2.4129    2.8317    9.2835 N   0  0  0  0  0  0  0  0  0  0  0  0
   -1.4464    2.1341    8.5843 C   0  0  0  0  0  0  0  0  0  0  0  0
   -1.8107    2.1882    7.2665 C   0  0  0  0  0  0  0  0  0  0  0  0
   -1.1338    1.6030    6.1039 C   0  0  0  0  0  0  0  0  0  0  0  0
   -0.1516    0.5779    6.1258 C   0  0  0  0  0  0  0  0  0  0  0  0
    0.1941    0.3907    4.8113 C   0  0  0  0  0  0  0  0  0  0  0  0
    1.0715   -0.4206    4.1873 N   0  0  0  0  0  0  0  0  0  0  0  0
    1.1588   -0.3212    2.8596 C   0  0  0  0  0  0  0  0  0  0  0  0
    2.1096   -1.2745    2.1987 C   0  0  2  0  0  0  0  0  0  0  0  0
    3.6117   -1.0903    2.2824 C   0  0  1  0  0  0  0  0  0  0  0  0
    4.5707   -2.2803    2.1618 C   0  0  0  0  0  0  0  0  0  0  0  0
    4.3969   -2.7079    0.7728 N   0  0  0  0  0  0  0  0  0  0  0  0
    4.8726   -3.7103   -0.0240 C   0  0  0  0  0  0  0  0  0  0  0  0
    4.2511   -3.5330   -1.2440 C   0  0  0  0  0  0  0  0  0  0  0  0
    3.4198   -2.4378   -1.1239 N   0  0  0  0  0  0  0  0  0  0  0  0
    3.5222   -1.9703    0.1211 C   0  0  0  0  0  0  0  0  0  0  0  0
    2.9044   -0.9294    0.9559 C   0  0  1  0  0  0  0  0  0  0  0  0
    0.3761    0.5692    2.0835 C   0  0  0  0  0  0  0  0  0  0  0  0
   -0.5178    1.3939    2.7230 C   0  0  0  0  0  0  0  0  0  0  0  0
   -0.6056    1.2987    4.0780 N   0  0  0  0  0  0  0  0  0  0  0  0
   -1.4262    2.0341    4.8956 N   0  0  0  0  0  0  0  0  0  0  0  0
   -3.0136    2.9409    7.2518 C   0  0  0  0  0  0  0  0  0  0  0  0
   -3.3779    3.3193    8.4720 N   0  0  0  0  0  0  0  0  0  0  0  0
   -1.7618    2.4873   11.2425 H   0  0  0  0  0  0  0  0  0  0  0  0
   -3.4911    2.8502   11.0789 H   0  0  0  0  0  0  0  0  0  0  0  0
   -2.2948    4.1441   10.9120 H   0  0  0  0  0  0  0  0  0  0  0  0
   -0.6021    1.6746    9.0749 H   0  0  0  0  0  0  0  0  0  0  0  0
    0.2588    0.0703    6.9845 H   0  0  0  0  0  0  0  0  0  0  0  0
    1.7072   -2.2901    2.2583 H   0  0  0  0  0  0  0  0  0  0  0  0
    3.9990   -0.1901    2.7656 H   0  0  0  0  0  0  0  0  0  0  0  0
    5.6117   -1.9916    2.3231 H   0  0  0  0  0  0  0  0  0  0  0  0
    4.2540   -3.0835    2.8270 H   0  0  0  0  0  0  0  0  0  0  0  0
    5.5713   -4.4636    0.3262 H   0  0  0  0  0  0  0  0  0  0  0  0
    4.3276   -4.1242   -2.1473 H   0  0  0  0  0  0  0  0  0  0  0  0
    2.9078    0.0514    0.4800 H   0  0  0  0  0  0  0  0  0  0  0  0
    0.4589    0.5926    0.9999 H   0  0  0  0  0  0  0  0  0  0  0  0
   -1.1471    2.1116    2.2119 H   0  0  0  0  0  0  0  0  0  0  0  0
   -3.6354    3.2147    6.4094 H   0  0  0  0  0  0  0  0  0  0  0  0
    2.7884   -2.0717   -1.8272 H   0  0  0  0  0  0  0  0  0  0  0  0
  1  2  1  0
  1 25  1  0
  1 26  1  0
  1 27  1  0
  2 24  1  0
  2  3  1  0
  3  4  2  0
  3 28  1  0
  4  5  1  0
  4 23  1  0
  5 22  2  0
  5  6  1  0
  6  7  2  0
  6 29  1  0
  7 21  1  0
  7  8  1  0
  8  9  2  0
  9 10  1  0
  9 19  1  0
 10 18  1  0
 10 11  1  0
 10 30  1  6
 11 18  1  0
 11 12  1  0
 11 31  1  1
 12 13  1  0
 12 32  1  0
 12 33  1  0
 13 17  1  0
 13 14  1  0
 14 15  2  0
 14 34  1  0
 15 16  1  0
 15 35  1  0
 16 17  2  0
 16 40  1  0
 17 18  1  0
 18 36  1  6
 19 20  2  0
 19 37  1  0
 20 21  1  0
 20 38  1  0
 21 22  1  0
 23 24  2  0
 23 39  1  0
M  CHG  1  16   1
M  END
>  <i_m_ct_stereo_status>  (201) 
1

>  <s_m_source_file>  (201) 
/var/tmp/pbs.5076255.sched01/tmpguie9axe/40t6mruo9t.sdf

>  <i_m_source_file_index>  (201) 
38

>  <i_lp_mmshare_version>  (201) 
48012

>  <i_f3d_flags>  (201) 
0

>  <s_epik_input>  (201) 
W0NIM11uMVtjSF1jKFtjSF1uMSktYyhbY0hdMilubihjMjMpW2NIXVtjSF1jKG4zKVtDQEhdNFtDQEBIXShbQ0BASF00NSljNm4oW0NIMl01KVtjSF1bY0hdbjY=

>  <s_epik_cmdline>  (201) 
J2VwaWtfcHl0aG9uJywgJy1waHQnLCAnMi4wJywgJy1waCcsICc3LjAnLCAnLXRuJywgJzgnLCAnLW1hJywgJzIwMCcsICctaW1hZScsICc8aW5maWxlLm1hZT4nLCAnLW9tYWUnLCAnPG91dGZpbGUubWFlPic=

>  <r_lp_tautomer_probability>  (201) 
1

>  <r_epik_Ionization_Penalty>  (201) 
0.0754711

>  <r_epik_Ionization_Penalty_Charging>  (201) 
0

>  <r_epik_Ionization_Penalty_Neutral>  (201) 
0.0754711

>  <r_epik_State_Penalty>  (201) 
0.0664379

>  <r_epik_Charging_Adjusted_Penalty>  (201) 
0.0664379

>  <i_epik_Tot_Q>  (201) 
1

>  <i_epik_Tot_abs_Q>  (201) 
1

>  <s_lp_Force_Field>  (201) 
OPLS3e

>  <r_lp_Energy>  (201) 
32.4318

>  <b_lp_Chiralities_Consistent>  (201) 
1

>  <s_lp_Variant>  (201) 
47:0-1

>  <s_i_glide_gridfile>  (201) 
pfpi4k_grid

>  <i_i_glide_lignum>  (201) 
38

>  <i_i_glide_rotatable_bonds>  (201) 
2

>  <r_i_docking_score>  (201) 
-3.4837

>  <r_i_glide_ligand_efficiency>  (201) 
-0.145154

>  <r_i_glide_ligand_efficiency_sa>  (201) 
-0.418697

>  <r_i_glide_ligand_efficiency_ln>  (201) 
-0.833808

>  <r_i_glide_gscore>  (201) 
-3.4837

>  <r_i_glide_lipo>  (201) 
-0.238893

>  <r_i_glide_hbond>  (201) 
0

>  <r_i_glide_metal>  (201) 
-0

>  <r_i_glide_rewards>  (201) 
-1.24458

>  <r_i_glide_evdw>  (201) 
-25.6537

>  <r_i_glide_ecoul>  (201) 
-6.08302

>  <r_i_glide_erotb>  (201) 
0.367906

>  <r_i_glide_esite>  (201) 
-0.172987

>  <r_i_glide_emodel>  (201) 
-41.6929

>  <r_i_glide_energy>  (201) 
-31.7367

>  <r_i_glide_einternal>  (201) 
0.415221

>  <r_i_glide_intrahb_reward>  (201) 
-0

>  <i_i_glide_confnum>  (201) 
4

>  <i_i_glide_posenum>  (201) 
13

>  <r_i_glide_eff_state_penalty>  (201) 
0

>  <ligand_id>  (201) 
47

>  <original_smiles>  (201) 
Cn1cc(-c2cc3nc(C4C5Cn6ccnc6C54)ccn3n2)cn1

>  <smiles>  (201) 
[H]c1nn(C([H])([H])[H])c([H])c1-c1nn2c([H])c([H])c(C3([H])C4([H])c5n(c([H])c([H])[n+]5[H])C([H])([H])C34[H])nc2c1[H]

$$$$
47:0:2
     RDKit          3D

 40 45  0  0  1  0  0  0  0  0999 V2000
   -2.7367    3.0216    9.0596 C   0  0  0  0  0  0  0  0  0  0  0  0
   -2.2766    2.6165    7.7445 N   0  0  0  0  0  0  0  0  0  0  0  0
   -1.3259    1.6710    7.4157 C   0  0  0  0  0  0  0  0  0  0  0  0
   -1.2427    1.6615    6.0509 C   0  0  0  0  0  0  0  0  0  0  0  0
   -0.3831    0.8321    5.2010 C   0  0  0  0  0  0  0  0  0  0  0  0
   -0.3301    0.8333    3.7829 C   0  0  0  0  0  0  0  0  0  0  0  0
    0.6272   -0.0907    3.4560 C   0  0  0  0  0  0  0  0  0  0  0  0
    1.1400   -0.5343    2.2933 N   0  0  0  0  0  0  0  0  0  0  0  0
    2.0866   -1.4725    2.3537 C   0  0  0  0  0  0  0  0  0  0  0  0
    2.5972   -1.9892    1.0371 C   0  0  2  0  0  0  0  0  0  0  0  0
    4.0488   -2.3985    0.8517 C   0  0  1  0  0  0  0  0  0  0  0  0
    4.4630   -3.4464   -0.1896 C   0  0  0  0  0  0  0  0  0  0  0  0
    4.1633   -2.7835   -1.4577 N   0  0  0  0  0  0  0  0  0  0  0  0
    4.2140   -3.1081   -2.7839 C   0  0  0  0  0  0  0  0  0  0  0  0
    3.7294   -2.0012   -3.4496 C   0  0  0  0  0  0  0  0  0  0  0  0
    3.4133   -1.0555   -2.4969 N   0  0  0  0  0  0  0  0  0  0  0  0
    3.6801   -1.5692   -1.2934 C   0  0  0  0  0  0  0  0  0  0  0  0
    3.4973   -1.1929    0.1164 C   0  0  1  0  0  0  0  0  0  0  0  0
    2.5637   -2.0261    3.5702 C   0  0  0  0  0  0  0  0  0  0  0  0
    2.0415   -1.5615    4.7552 C   0  0  0  0  0  0  0  0  0  0  0  0
    1.0786   -0.6054    4.6920 N   0  0  0  0  0  0  0  0  0  0  0  0
    0.4398   -0.0285    5.7591 N   0  0  0  0  0  0  0  0  0  0  0  0
   -2.1706    2.6505    5.6192 C   0  0  0  0  0  0  0  0  0  0  0  0
   -2.7916    3.2160    6.6468 N   0  0  0  0  0  0  0  0  0  0  0  0
   -2.3615    2.3348    9.8196 H   0  0  0  0  0  0  0  0  0  0  0  0
   -3.8272    3.0237    9.1012 H   0  0  0  0  0  0  0  0  0  0  0  0
   -2.3724    4.0237    9.2906 H   0  0  0  0  0  0  0  0  0  0  0  0
   -0.8024    1.0995    8.1679 H   0  0  0  0  0  0  0  0  0  0  0  0
   -0.9007    1.4399    3.0970 H   0  0  0  0  0  0  0  0  0  0  0  0
    1.8470   -2.6364    0.5796 H   0  0  0  0  0  0  0  0  0  0  0  0
    4.7526   -2.2157    1.6639 H   0  0  0  0  0  0  0  0  0  0  0  0
    5.5303   -3.6706   -0.1497 H   0  0  0  0  0  0  0  0  0  0  0  0
    3.8565   -4.3464   -0.0895 H   0  0  0  0  0  0  0  0  0  0  0  0
    4.5444   -4.0816   -3.1322 H   0  0  0  0  0  0  0  0  0  0  0  0
    3.5587   -1.8306   -4.5017 H   0  0  0  0  0  0  0  0  0  0  0  0
    3.8781   -0.2004    0.3468 H   0  0  0  0  0  0  0  0  0  0  0  0
    3.3157   -2.8064    3.5790 H   0  0  0  0  0  0  0  0  0  0  0  0
    2.3463   -1.9072    5.7349 H   0  0  0  0  0  0  0  0  0  0  0  0
   -2.4141    2.9714    4.6153 H   0  0  0  0  0  0  0  0  0  0  0  0
    2.9715   -0.1625   -2.6630 H   0  0  0  0  0  0  0  0  0  0  0  0
  1  2  1  0
  1 25  1  0
  1 26  1  0
  1 27  1  0
  2 24  1  0
  2  3  1  0
  3  4  2  0
  3 28  1  0
  4  5  1  0
  4 23  1  0
  5 22  2  0
  5  6  1  0
  6  7  2  0
  6 29  1  0
  7 21  1  0
  7  8  1  0
  8  9  2  0
  9 10  1  0
  9 19  1  0
 10 18  1  0
 10 11  1  0
 10 30  1  6
 11 18  1  0
 11 12  1  0
 11 31  1  1
 12 13  1  0
 12 32  1  0
 12 33  1  0
 13 17  1  0
 13 14  1  0
 14 15  2  0
 14 34  1  0
 15 16  1  0
 15 35  1  0
 16 17  2  0
 16 40  1  0
 17 18  1  0
 18 36  1  1
 19 20  2  0
 19 37  1  0
 20 21  1  0
 20 38  1  0
 21 22  1  0
 23 24  2  0
 23 39  1  0
M  CHG  1  16   1
M  END
>  <i_m_ct_stereo_status>  (202) 
1

>  <s_m_source_file>  (202) 
/var/tmp/pbs.5076255.sched01/tmpguie9axe/40t6mruo9t.sdf

>  <i_m_source_file_index>  (202) 
38

>  <i_lp_mmshare_version>  (202) 
48012

>  <i_f3d_flags>  (202) 
0

>  <s_epik_input>  (202) 
W0NIM11uMVtjSF1jKFtjSF1uMSktYyhbY0hdMilubihjMjMpW2NIXVtjSF1jKG4zKVtDQEhdNFtDQEBIXShbQ0BASF00NSljNm4oW0NIMl01KVtjSF1bY0hdbjY=

>  <s_epik_cmdline>  (202) 
J2VwaWtfcHl0aG9uJywgJy1waHQnLCAnMi4wJywgJy1waCcsICc3LjAnLCAnLXRuJywgJzgnLCAnLW1hJywgJzIwMCcsICctaW1hZScsICc8aW5maWxlLm1hZT4nLCAnLW9tYWUnLCAnPG91dGZpbGUubWFlPic=

>  <r_lp_tautomer_probability>  (202) 
1

>  <r_epik_Ionization_Penalty>  (202) 
0.0754711

>  <r_epik_Ionization_Penalty_Charging>  (202) 
0

>  <r_epik_Ionization_Penalty_Neutral>  (202) 
0.0754711

>  <r_epik_State_Penalty>  (202) 
0.0664379

>  <r_epik_Charging_Adjusted_Penalty>  (202) 
0.0664379

>  <i_epik_Tot_Q>  (202) 
1

>  <i_epik_Tot_abs_Q>  (202) 
1

>  <s_lp_Force_Field>  (202) 
OPLS3e

>  <r_lp_Energy>  (202) 
32.4318

>  <b_lp_Chiralities_Consistent>  (202) 
1

>  <s_lp_Variant>  (202) 
47:0-1

>  <s_i_glide_gridfile>  (202) 
pfpi4k_grid

>  <i_i_glide_lignum>  (202) 
38

>  <i_i_glide_rotatable_bonds>  (202) 
2

>  <r_i_docking_score>  (202) 
-3.15218

>  <r_i_glide_ligand_efficiency>  (202) 
-0.131341

>  <r_i_glide_ligand_efficiency_sa>  (202) 
-0.378852

>  <r_i_glide_ligand_efficiency_ln>  (202) 
-0.754461

>  <r_i_glide_gscore>  (202) 
-3.15218

>  <r_i_glide_lipo>  (202) 
-0.273153

>  <r_i_glide_hbond>  (202) 
0

>  <r_i_glide_metal>  (202) 
-0

>  <r_i_glide_rewards>  (202) 
-1.32138

>  <r_i_glide_evdw>  (202) 
-26.1597

>  <r_i_glide_ecoul>  (202) 
-2.99759

>  <r_i_glide_erotb>  (202) 
0.367906

>  <r_i_glide_esite>  (202) 
-0.167926

>  <r_i_glide_emodel>  (202) 
-38.3283

>  <r_i_glide_energy>  (202) 
-29.1573

>  <r_i_glide_einternal>  (202) 
0.0649441

>  <r_i_glide_intrahb_reward>  (202) 
-0

>  <i_i_glide_confnum>  (202) 
3

>  <i_i_glide_posenum>  (202) 
30

>  <r_i_glide_eff_state_penalty>  (202) 
0

>  <ligand_id>  (202) 
47

>  <original_smiles>  (202) 
Cn1cc(-c2cc3nc(C4C5Cn6ccnc6C54)ccn3n2)cn1

>  <smiles>  (202) 
[H]c1nn(C([H])([H])[H])c([H])c1-c1nn2c([H])c([H])c(C3([H])C4([H])c5n(c([H])c([H])[n+]5[H])C([H])([H])C34[H])nc2c1[H]

$$$$
47:1:0
     RDKit          3D

 39 44  0  0  1  0  0  0  0  0999 V2000
    5.7562   -3.1799   -2.8152 C   0  0  0  0  0  0  0  0  0  0  0  0
    5.7028   -2.4884   -1.5421 N   0  0  0  0  0  0  0  0  0  0  0  0
    4.5946   -2.0180   -0.8623 C   0  0  0  0  0  0  0  0  0  0  0  0
    5.0659   -1.4630    0.2964 C   0  0  0  0  0  0  0  0  0  0  0  0
    4.3020   -0.8313    1.3735 C   0  0  0  0  0  0  0  0  0  0  0  0
    2.8950   -0.6720    1.4093 C   0  0  0  0  0  0  0  0  0  0  0  0
    2.6260   -0.0340    2.5932 C   0  0  0  0  0  0  0  0  0  0  0  0
    1.4982    0.3957    3.1928 N   0  0  0  0  0  0  0  0  0  0  0  0
    1.6316    1.0103    4.3691 C   0  0  0  0  0  0  0  0  0  0  0  0
    0.3572    1.4429    5.0321 C   0  0  2  0  0  0  0  0  0  0  0  0
   -0.5038    2.5676    4.4713 C   0  0  1  0  0  0  0  0  0  0  0  0
   -2.0059    2.6402    4.7659 C   0  0  0  0  0  0  0  0  0  0  0  0
   -2.0226    2.8547    6.1961 N   0  0  0  0  0  0  0  0  0  0  0  0
   -2.9717    2.9567    7.1913 C   0  0  0  0  0  0  0  0  0  0  0  0
   -2.2556    3.1316    8.3633 C   0  0  0  0  0  0  0  0  0  0  0  0
   -0.8796    3.1132    8.0949 N   0  0  0  0  0  0  0  0  0  0  0  0
   -0.8467    2.9478    6.7821 C   0  0  0  0  0  0  0  0  0  0  0  0
    0.2229    2.7477    5.7873 C   0  0  1  0  0  0  0  0  0  0  0  0
    2.8735    1.1971    5.0271 C   0  0  0  0  0  0  0  0  0  0  0  0
    4.0152    0.7492    4.4122 C   0  0  0  0  0  0  0  0  0  0  0  0
    3.8874    0.1427    3.2018 N   0  0  0  0  0  0  0  0  0  0  0  0
    4.9130   -0.3522    2.4357 N   0  0  0  0  0  0  0  0  0  0  0  0
    6.4763   -1.6398    0.2458 C   0  0  0  0  0  0  0  0  0  0  0  0
    6.8548   -2.2552   -0.8696 N   0  0  0  0  0  0  0  0  0  0  0  0
    4.7892   -3.1357   -3.3142 H   0  0  0  0  0  0  0  0  0  0  0  0
    6.0202   -4.2245   -2.6626 H   0  0  0  0  0  0  0  0  0  0  0  0
    6.5074   -2.7264   -3.4573 H   0  0  0  0  0  0  0  0  0  0  0  0
    3.5939   -2.1235   -1.2531 H   0  0  0  0  0  0  0  0  0  0  0  0
    2.2082   -0.9718    0.6527 H   0  0  0  0  0  0  0  0  0  0  0  0
   -0.1401    0.5733    5.4617 H   0  0  0  0  0  0  0  0  0  0  0  0
   -0.1295    3.1259    3.6080 H   0  0  0  0  0  0  0  0  0  0  0  0
   -2.4802    3.4728    4.2447 H   0  0  0  0  0  0  0  0  0  0  0  0
   -2.4699    1.6868    4.5164 H   0  0  0  0  0  0  0  0  0  0  0  0
   -4.0262    2.8946    6.9967 H   0  0  0  0  0  0  0  0  0  0  0  0
   -2.6319    3.2595    9.3718 H   0  0  0  0  0  0  0  0  0  0  0  0
    1.0332    3.4707    5.8536 H   0  0  0  0  0  0  0  0  0  0  0  0
    2.9276    1.6703    5.9988 H   0  0  0  0  0  0  0  0  0  0  0  0
    5.0137    0.8495    4.8217 H   0  0  0  0  0  0  0  0  0  0  0  0
    7.2277   -1.3420    0.9678 H   0  0  0  0  0  0  0  0  0  0  0  0
  1  2  1  0
  1 25  1  0
  1 26  1  0
  1 27  1  0
  2 24  1  0
  2  3  1  0
  3  4  2  0
  3 28  1  0
  4  5  1  0
  4 23  1  0
  5 22  2  0
  5  6  1  0
  6  7  2  0
  6 29  1  0
  7 21  1  0
  7  8  1  0
  8  9  2  0
  9 10  1  0
  9 19  1  0
 10 18  1  0
 10 11  1  0
 10 30  1  1
 11 18  1  0
 11 12  1  0
 11 31  1  6
 12 13  1  0
 12 32  1  0
 12 33  1  0
 13 17  1  0
 13 14  1  0
 14 15  2  0
 14 34  1  0
 15 16  1  0
 15 35  1  0
 16 17  2  0
 17 18  1  0
 18 36  1  6
 19 20  2  0
 19 37  1  0
 20 21  1  0
 20 38  1  0
 21 22  1  0
 23 24  2  0
 23 39  1  0
M  END
>  <i_m_ct_stereo_status>  (203) 
1

>  <s_m_source_file>  (203) 
/var/tmp/pbs.5076255.sched01/tmpguie9axe/40t6mruo9t.sdf

>  <i_m_source_file_index>  (203) 
39

>  <i_lp_mmshare_version>  (203) 
48012

>  <i_f3d_flags>  (203) 
0

>  <s_epik_input>  (203) 
W0NIM11uMVtjSF1jKFtjSF1uMSktYyhbY0hdMilubihjMjMpW2NIXVtjSF1jKG4zKVtDQEhdNFtDQEBIXShbQ0BASF00NSljNm4oW0NIMl01KVtjSF1bY0hdbjY=

>  <s_epik_cmdline>  (203) 
J2VwaWtfcHl0aG9uJywgJy1waHQnLCAnMi4wJywgJy1waCcsICc3LjAnLCAnLXRuJywgJzgnLCAnLW1hJywgJzIwMCcsICctaW1hZScsICc8aW5maWxlLm1hZT4nLCAnLW9tYWUnLCAnPG91dGZpbGUubWFlPic=

>  <r_lp_tautomer_probability>  (203) 
1

>  <r_epik_Ionization_Penalty>  (203) 
1.25895

>  <r_epik_Ionization_Penalty_Charging>  (203) 
1.25886

>  <r_epik_Ionization_Penalty_Neutral>  (203) 
8.96881e-05

>  <r_epik_State_Penalty>  (203) 
1.3293

>  <r_epik_Charging_Adjusted_Penalty>  (203) 
2.58816

>  <i_epik_Tot_Q>  (203) 
0

>  <i_epik_Tot_abs_Q>  (203) 
0

>  <s_lp_Force_Field>  (203) 
OPLS3e

>  <r_lp_Energy>  (203) 
27.7063

>  <b_lp_Chiralities_Consistent>  (203) 
1

>  <s_lp_Variant>  (203) 
47:0-2

>  <s_i_glide_gridfile>  (203) 
pfpi4k_grid

>  <i_i_glide_lignum>  (203) 
39

>  <i_i_glide_rotatable_bonds>  (203) 
2

>  <r_i_docking_score>  (203) 
-3.49128

>  <r_i_glide_ligand_efficiency>  (203) 
-0.14547

>  <r_i_glide_ligand_efficiency_sa>  (203) 
-0.419608

>  <r_i_glide_ligand_efficiency_ln>  (203) 
-0.835624

>  <r_i_glide_gscore>  (203) 
-3.49128

>  <r_i_glide_lipo>  (203) 
-0.513072

>  <r_i_glide_hbond>  (203) 
-0.16306

>  <r_i_glide_metal>  (203) 
-0

>  <r_i_glide_rewards>  (203) 
-1.34876

>  <r_i_glide_evdw>  (203) 
-24.9746

>  <r_i_glide_ecoul>  (203) 
-3.70731

>  <r_i_glide_erotb>  (203) 
0.369966

>  <r_i_glide_esite>  (203) 
-0.031528

>  <r_i_glide_emodel>  (203) 
-36.0648

>  <r_i_glide_energy>  (203) 
-28.6819

>  <r_i_glide_einternal>  (203) 
0.00331238

>  <r_i_glide_intrahb_reward>  (203) 
-0

>  <i_i_glide_confnum>  (203) 
1

>  <i_i_glide_posenum>  (203) 
8

>  <r_i_glide_eff_state_penalty>  (203) 
0

>  <ligand_id>  (203) 
47

>  <original_smiles>  (203) 
Cn1cc(-c2cc3nc(C4C5Cn6ccnc6C54)ccn3n2)cn1

>  <smiles>  (203) 
[H]c1nn(C([H])([H])[H])c([H])c1-c1nn2c([H])c([H])c(C3([H])C4([H])c5nc([H])c([H])n5C([H])([H])C34[H])nc2c1[H]

$$$$
47:1:1
     RDKit          3D

 39 44  0  0  1  0  0  0  0  0999 V2000
    2.4373    0.1458   -5.1239 C   0  0  0  0  0  0  0  0  0  0  0  0
    3.0665   -0.5602   -4.0197 N   0  0  0  0  0  0  0  0  0  0  0  0
    2.7035   -1.7374   -3.3909 C   0  0  0  0  0  0  0  0  0  0  0  0
    3.6446   -1.9563   -2.4227 C   0  0  0  0  0  0  0  0  0  0  0  0
    3.7096   -3.0404   -1.4504 C   0  0  0  0  0  0  0  0  0  0  0  0
    2.6149   -3.5874   -0.7451 C   0  0  0  0  0  0  0  0  0  0  0  0
    3.1452   -4.5878    0.0233 C   0  0  0  0  0  0  0  0  0  0  0  0
    2.6118   -5.4817    0.8789 N   0  0  0  0  0  0  0  0  0  0  0  0
    3.4536   -6.3579    1.4314 C   0  0  0  0  0  0  0  0  0  0  0  0
    2.8697   -7.3109    2.4286 C   0  0  2  0  0  0  0  0  0  0  0  0
    2.6799   -8.7896    2.0808 C   0  0  1  0  0  0  0  0  0  0  0  0
    2.6547   -9.8799    3.1624 C   0  0  0  0  0  0  0  0  0  0  0  0
    1.4931   -9.5037    3.9310 N   0  0  0  0  0  0  0  0  0  0  0  0
    0.8689   -9.9296    5.0841 C   0  0  0  0  0  0  0  0  0  0  0  0
   -0.1883   -9.0542    5.2668 C   0  0  0  0  0  0  0  0  0  0  0  0
   -0.2060   -8.0846    4.2531 N   0  0  0  0  0  0  0  0  0  0  0  0
    0.8175   -8.4587    3.4983 C   0  0  0  0  0  0  0  0  0  0  0  0
    1.4860   -7.8961    2.3165 C   0  0  1  0  0  0  0  0  0  0  0  0
    4.8525   -6.3725    1.1949 C   0  0  0  0  0  0  0  0  0  0  0  0
    5.3864   -5.4471    0.3302 C   0  0  0  0  0  0  0  0  0  0  0  0
    4.5311   -4.5666   -0.2535 N   0  0  0  0  0  0  0  0  0  0  0  0
    4.8693   -3.5869   -1.1484 N   0  0  0  0  0  0  0  0  0  0  0  0
    4.5428   -0.8656   -2.5216 C   0  0  0  0  0  0  0  0  0  0  0  0
    4.1874   -0.0339   -3.4859 N   0  0  0  0  0  0  0  0  0  0  0  0
    1.4418   -0.2420   -5.3135 H   0  0  0  0  0  0  0  0  0  0  0  0
    3.0417    0.0336   -6.0232 H   0  0  0  0  0  0  0  0  0  0  0  0
    2.3373    1.2068   -4.9006 H   0  0  0  0  0  0  0  0  0  0  0  0
    1.8234   -2.2939   -3.6671 H   0  0  0  0  0  0  0  0  0  0  0  0
    1.5895   -3.2749   -0.8295 H   0  0  0  0  0  0  0  0  0  0  0  0
    3.2650   -7.0883    3.4212 H   0  0  0  0  0  0  0  0  0  0  0  0
    2.8520   -9.1163    1.0540 H   0  0  0  0  0  0  0  0  0  0  0  0
    2.5284  -10.8754    2.7328 H   0  0  0  0  0  0  0  0  0  0  0  0
    3.5535   -9.8203    3.7744 H   0  0  0  0  0  0  0  0  0  0  0  0
    1.2027  -10.7794    5.6618 H   0  0  0  0  0  0  0  0  0  0  0  0
   -0.9298   -9.0539    6.0503 H   0  0  0  0  0  0  0  0  0  0  0  0
    0.8135   -7.6434    1.5004 H   0  0  0  0  0  0  0  0  0  0  0  0
    5.4996   -7.0786    1.7033 H   0  0  0  0  0  0  0  0  0  0  0  0
    6.4375   -5.3756    0.0838 H   0  0  0  0  0  0  0  0  0  0  0  0
    5.4276   -0.6420   -1.9405 H   0  0  0  0  0  0  0  0  0  0  0  0
  1  2  1  0
  1 25  1  0
  1 26  1  0
  1 27  1  0
  2 24  1  0
  2  3  1  0
  3  4  2  0
  3 28  1  0
  4  5  1  0
  4 23  1  0
  5 22  2  0
  5  6  1  0
  6  7  2  0
  6 29  1  0
  7 21  1  0
  7  8  1  0
  8  9  2  0
  9 10  1  0
  9 19  1  0
 10 18  1  0
 10 11  1  0
 10 30  1  1
 11 18  1  0
 11 12  1  0
 11 31  1  6
 12 13  1  0
 12 32  1  0
 12 33  1  0
 13 17  1  0
 13 14  1  0
 14 15  2  0
 14 34  1  0
 15 16  1  0
 15 35  1  0
 16 17  2  0
 17 18  1  0
 18 36  1  6
 19 20  2  0
 19 37  1  0
 20 21  1  0
 20 38  1  0
 21 22  1  0
 23 24  2  0
 23 39  1  0
M  END
>  <i_m_ct_stereo_status>  (204) 
1

>  <s_m_source_file>  (204) 
/var/tmp/pbs.5076255.sched01/tmpguie9axe/40t6mruo9t.sdf

>  <i_m_source_file_index>  (204) 
39

>  <i_lp_mmshare_version>  (204) 
48012

>  <i_f3d_flags>  (204) 
0

>  <s_epik_input>  (204) 
W0NIM11uMVtjSF1jKFtjSF1uMSktYyhbY0hdMilubihjMjMpW2NIXVtjSF1jKG4zKVtDQEhdNFtDQEBIXShbQ0BASF00NSljNm4oW0NIMl01KVtjSF1bY0hdbjY=

>  <s_epik_cmdline>  (204) 
J2VwaWtfcHl0aG9uJywgJy1waHQnLCAnMi4wJywgJy1waCcsICc3LjAnLCAnLXRuJywgJzgnLCAnLW1hJywgJzIwMCcsICctaW1hZScsICc8aW5maWxlLm1hZT4nLCAnLW9tYWUnLCAnPG91dGZpbGUubWFlPic=

>  <r_lp_tautomer_probability>  (204) 
1

>  <r_epik_Ionization_Penalty>  (204) 
1.25895

>  <r_epik_Ionization_Penalty_Charging>  (204) 
1.25886

>  <r_epik_Ionization_Penalty_Neutral>  (204) 
8.96881e-05

>  <r_epik_State_Penalty>  (204) 
1.3293

>  <r_epik_Charging_Adjusted_Penalty>  (204) 
2.58816

>  <i_epik_Tot_Q>  (204) 
0

>  <i_epik_Tot_abs_Q>  (204) 
0

>  <s_lp_Force_Field>  (204) 
OPLS3e

>  <r_lp_Energy>  (204) 
27.7063

>  <b_lp_Chiralities_Consistent>  (204) 
1

>  <s_lp_Variant>  (204) 
47:0-2

>  <s_i_glide_gridfile>  (204) 
pfpi4k_grid

>  <i_i_glide_lignum>  (204) 
39

>  <i_i_glide_rotatable_bonds>  (204) 
2

>  <r_i_docking_score>  (204) 
-3.42802

>  <r_i_glide_ligand_efficiency>  (204) 
-0.142834

>  <r_i_glide_ligand_efficiency_sa>  (204) 
-0.412005

>  <r_i_glide_ligand_efficiency_ln>  (204) 
-0.820482

>  <r_i_glide_gscore>  (204) 
-3.42802

>  <r_i_glide_lipo>  (204) 
-0.349284

>  <r_i_glide_hbond>  (204) 
0

>  <r_i_glide_metal>  (204) 
-0

>  <r_i_glide_rewards>  (204) 
-1.57781

>  <r_i_glide_evdw>  (204) 
-31.019

>  <r_i_glide_ecoul>  (204) 
-1.66989

>  <r_i_glide_erotb>  (204) 
0.369966

>  <r_i_glide_esite>  (204) 
-0.0694579

>  <r_i_glide_emodel>  (204) 
-38.4463

>  <r_i_glide_energy>  (204) 
-32.6889

>  <r_i_glide_einternal>  (204) 
2.89508

>  <r_i_glide_intrahb_reward>  (204) 
-0

>  <i_i_glide_confnum>  (204) 
3

>  <i_i_glide_posenum>  (204) 
4

>  <r_i_glide_eff_state_penalty>  (204) 
0

>  <ligand_id>  (204) 
47

>  <original_smiles>  (204) 
Cn1cc(-c2cc3nc(C4C5Cn6ccnc6C54)ccn3n2)cn1

>  <smiles>  (204) 
[H]c1nn(C([H])([H])[H])c([H])c1-c1nn2c([H])c([H])c(C3([H])C4([H])c5nc([H])c([H])n5C([H])([H])C34[H])nc2c1[H]

$$$$
47:1:2
     RDKit          3D

 39 44  0  0  1  0  0  0  0  0999 V2000
    4.3653   -2.4360   -3.2506 C   0  0  0  0  0  0  0  0  0  0  0  0
    4.6802   -1.9400   -1.9268 N   0  0  0  0  0  0  0  0  0  0  0  0
    3.8138   -1.4563   -0.9672 C   0  0  0  0  0  0  0  0  0  0  0  0
    4.5792   -1.1285    0.1166 C   0  0  0  0  0  0  0  0  0  0  0  0
    4.1456   -0.5629    1.3972 C   0  0  0  0  0  0  0  0  0  0  0  0
    2.8259   -0.1732    1.7461 C   0  0  0  0  0  0  0  0  0  0  0  0
    2.9143    0.2784    3.0379 C   0  0  0  0  0  0  0  0  0  0  0  0
    2.0214    0.7541    3.9285 N   0  0  0  0  0  0  0  0  0  0  0  0
    2.4816    1.0995    5.1314 C   0  0  0  0  0  0  0  0  0  0  0  0
    1.4682    1.6751    6.0765 C   0  0  2  0  0  0  0  0  0  0  0  0
    1.5598    1.4496    7.5852 C   0  0  1  0  0  0  0  0  0  0  0  0
    0.9465    2.4372    8.5856 C   0  0  0  0  0  0  0  0  0  0  0  0
   -0.4571    2.3291    8.2777 N   0  0  0  0  0  0  0  0  0  0  0  0
   -1.6218    2.9377    8.6896 C   0  0  0  0  0  0  0  0  0  0  0  0
   -2.6164    2.3646    7.9177 C   0  0  0  0  0  0  0  0  0  0  0  0
   -2.0801    1.3898    7.0629 N   0  0  0  0  0  0  0  0  0  0  0  0
   -0.7871    1.4596    7.3426 C   0  0  0  0  0  0  0  0  0  0  0  0
    0.4276    0.8426    6.7833 C   0  0  1  0  0  0  0  0  0  0  0  0
    3.8436    0.9945    5.5188 C   0  0  0  0  0  0  0  0  0  0  0  0
    4.7459    0.4980    4.6119 C   0  0  0  0  0  0  0  0  0  0  0  0
    4.2790    0.1414    3.3840 N   0  0  0  0  0  0  0  0  0  0  0  0
    5.0228   -0.3801    2.3596 N   0  0  0  0  0  0  0  0  0  0  0  0
    5.9096   -1.4556   -0.2654 C   0  0  0  0  0  0  0  0  0  0  0  0
    5.9661   -1.9201   -1.5080 N   0  0  0  0  0  0  0  0  0  0  0  0
    3.3289   -2.2088   -3.5040 H   0  0  0  0  0  0  0  0  0  0  0  0
    4.5049   -3.5177   -3.2910 H   0  0  0  0  0  0  0  0  0  0  0  0
    5.0109   -1.9616   -3.9827 H   0  0  0  0  0  0  0  0  0  0  0  0
    2.7544   -1.3868   -1.1453 H   0  0  0  0  0  0  0  0  0  0  0  0
    1.9397   -0.2287    1.1292 H   0  0  0  0  0  0  0  0  0  0  0  0
    1.1843    2.6750    5.7412 H   0  0  0  0  0  0  0  0  0  0  0  0
    2.3110    0.7587    7.9744 H   0  0  0  0  0  0  0  0  0  0  0  0
    1.1359    2.1397    9.6177 H   0  0  0  0  0  0  0  0  0  0  0  0
    1.3103    3.4444    8.3883 H   0  0  0  0  0  0  0  0  0  0  0  0
   -1.6489    3.7037    9.4475 H   0  0  0  0  0  0  0  0  0  0  0  0
   -3.6767    2.5730    7.9261 H   0  0  0  0  0  0  0  0  0  0  0  0
    0.3691   -0.2373    6.6628 H   0  0  0  0  0  0  0  0  0  0  0  0
    4.1714    1.3115    6.5014 H   0  0  0  0  0  0  0  0  0  0  0  0
    5.8036    0.3698    4.8143 H   0  0  0  0  0  0  0  0  0  0  0  0
    6.8269   -1.3596    0.3013 H   0  0  0  0  0  0  0  0  0  0  0  0
  1  2  1  0
  1 25  1  0
  1 26  1  0
  1 27  1  0
  2 24  1  0
  2  3  1  0
  3  4  2  0
  3 28  1  0
  4  5  1  0
  4 23  1  0
  5 22  2  0
  5  6  1  0
  6  7  2  0
  6 29  1  0
  7 21  1  0
  7  8  1  0
  8  9  2  0
  9 10  1  0
  9 19  1  0
 10 18  1  0
 10 11  1  0
 10 30  1  1
 11 18  1  0
 11 12  1  0
 11 31  1  1
 12 13  1  0
 12 32  1  0
 12 33  1  0
 13 17  1  0
 13 14  1  0
 14 15  2  0
 14 34  1  0
 15 16  1  0
 15 35  1  0
 16 17  2  0
 17 18  1  0
 18 36  1  6
 19 20  2  0
 19 37  1  0
 20 21  1  0
 20 38  1  0
 21 22  1  0
 23 24  2  0
 23 39  1  0
M  END
>  <i_m_ct_stereo_status>  (205) 
1

>  <s_m_source_file>  (205) 
/var/tmp/pbs.5076255.sched01/tmpguie9axe/40t6mruo9t.sdf

>  <i_m_source_file_index>  (205) 
39

>  <i_lp_mmshare_version>  (205) 
48012

>  <i_f3d_flags>  (205) 
0

>  <s_epik_input>  (205) 
W0NIM11uMVtjSF1jKFtjSF1uMSktYyhbY0hdMilubihjMjMpW2NIXVtjSF1jKG4zKVtDQEhdNFtDQEBIXShbQ0BASF00NSljNm4oW0NIMl01KVtjSF1bY0hdbjY=

>  <s_epik_cmdline>  (205) 
J2VwaWtfcHl0aG9uJywgJy1waHQnLCAnMi4wJywgJy1waCcsICc3LjAnLCAnLXRuJywgJzgnLCAnLW1hJywgJzIwMCcsICctaW1hZScsICc8aW5maWxlLm1hZT4nLCAnLW9tYWUnLCAnPG91dGZpbGUubWFlPic=

>  <r_lp_tautomer_probability>  (205) 
1

>  <r_epik_Ionization_Penalty>  (205) 
1.25895

>  <r_epik_Ionization_Penalty_Charging>  (205) 
1.25886

>  <r_epik_Ionization_Penalty_Neutral>  (205) 
8.96881e-05

>  <r_epik_State_Penalty>  (205) 
1.3293

>  <r_epik_Charging_Adjusted_Penalty>  (205) 
2.58816

>  <i_epik_Tot_Q>  (205) 
0

>  <i_epik_Tot_abs_Q>  (205) 
0

>  <s_lp_Force_Field>  (205) 
OPLS3e

>  <r_lp_Energy>  (205) 
27.7063

>  <b_lp_Chiralities_Consistent>  (205) 
1

>  <s_lp_Variant>  (205) 
47:0-2

>  <s_i_glide_gridfile>  (205) 
pfpi4k_grid

>  <i_i_glide_lignum>  (205) 
39

>  <i_i_glide_rotatable_bonds>  (205) 
2

>  <r_i_docking_score>  (205) 
-3.36343

>  <r_i_glide_ligand_efficiency>  (205) 
-0.140143

>  <r_i_glide_ligand_efficiency_sa>  (205) 
-0.404242

>  <r_i_glide_ligand_efficiency_ln>  (205) 
-0.805024

>  <r_i_glide_gscore>  (205) 
-3.36343

>  <r_i_glide_lipo>  (205) 
-0.30767

>  <r_i_glide_hbond>  (205) 
-0.19051

>  <r_i_glide_metal>  (205) 
-0

>  <r_i_glide_rewards>  (205) 
-1.26547

>  <r_i_glide_evdw>  (205) 
-23.3525

>  <r_i_glide_ecoul>  (205) 
-4.98956

>  <r_i_glide_erotb>  (205) 
0.369966

>  <r_i_glide_esite>  (205) 
-0.0536867

>  <r_i_glide_emodel>  (205) 
-35.4412

>  <r_i_glide_energy>  (205) 
-28.3421

>  <r_i_glide_einternal>  (205) 
0.0655112

>  <r_i_glide_intrahb_reward>  (205) 
-0

>  <i_i_glide_confnum>  (205) 
3

>  <i_i_glide_posenum>  (205) 
1

>  <r_i_glide_eff_state_penalty>  (205) 
0

>  <ligand_id>  (205) 
47

>  <original_smiles>  (205) 
Cn1cc(-c2cc3nc(C4C5Cn6ccnc6C54)ccn3n2)cn1

>  <smiles>  (205) 
[H]c1nn(C([H])([H])[H])c([H])c1-c1nn2c([H])c([H])c(C3([H])C4([H])c5nc([H])c([H])n5C([H])([H])C34[H])nc2c1[H]

$$$$
48:0:0
     RDKit          3D

 25 27  0  0  1  0  0  0  0  0999 V2000
    4.5939   -4.2505   -3.6289 O   0  0  0  0  0  0  0  0  0  0  0  0
    4.3437   -2.9344   -3.4040 C   0  0  0  0  0  0  0  0  0  0  0  0
    3.4934   -2.2358   -4.2894 C   0  0  0  0  0  0  0  0  0  0  0  0
    3.3254   -0.8462   -4.1622 C   0  0  0  0  0  0  0  0  0  0  0  0
    3.9797   -0.1754   -3.1221 C   0  0  0  0  0  0  0  0  0  0  0  0
    4.7821   -0.8711   -2.1951 C   0  0  0  0  0  0  0  0  0  0  0  0
    4.9836   -2.2549   -2.3427 C   0  0  0  0  0  0  0  0  0  0  0  0
    5.8807   -2.9229   -1.4154 C   0  0  0  0  0  0  0  0  0  0  0  0
    5.5325   -4.0658   -0.7268 N   0  0  0  0  0  0  0  0  0  0  0  0
    6.5765   -4.4152    0.0785 C   0  0  0  0  0  0  0  0  0  0  0  0
    6.8287   -5.4625    0.9813 C   0  0  0  0  0  0  0  0  0  0  0  0
    8.0843   -5.4955    1.6092 C   0  0  0  0  0  0  0  0  0  0  0  0
    9.0002   -4.4746    1.2894 C   0  0  0  0  0  0  0  0  0  0  0  0
    8.7707   -3.4565    0.4247 N   0  0  0  0  0  0  0  0  0  0  0  0
    7.5704   -3.4346   -0.1591 C   0  0  0  0  0  0  0  0  0  0  0  0
    7.1051   -2.4928   -1.0767 N   0  0  0  0  0  0  0  0  0  0  0  0
    4.6680   -4.5767   -0.8092 H   0  0  0  0  0  0  0  0  0  0  0  0
    3.9645   -4.8369   -3.2070 H   0  0  0  0  0  0  0  0  0  0  0  0
    3.0045   -2.7781   -5.0796 H   0  0  0  0  0  0  0  0  0  0  0  0
    2.6783   -0.2940   -4.8332 H   0  0  0  0  0  0  0  0  0  0  0  0
    3.8394    0.8895   -3.0156 H   0  0  0  0  0  0  0  0  0  0  0  0
    5.2782   -0.3568   -1.3785 H   0  0  0  0  0  0  0  0  0  0  0  0
    6.0986   -6.2379    1.1656 H   0  0  0  0  0  0  0  0  0  0  0  0
    8.3560   -6.2677    2.3195 H   0  0  0  0  0  0  0  0  0  0  0  0
    9.9486   -4.4441    1.7996 H   0  0  0  0  0  0  0  0  0  0  0  0
  1  2  1  0
  1 18  1  0
  2  7  2  0
  2  3  1  0
  3  4  2  0
  3 19  1  0
  4  5  1  0
  4 20  1  0
  5  6  2  0
  5 21  1  0
  6  7  1  0
  6 22  1  0
  7  8  1  0
  8 16  2  0
  8  9  1  0
  9 17  1  0
  9 10  1  0
 10 15  2  0
 10 11  1  0
 11 23  1  0
 11 12  2  0
 12 24  1  0
 12 13  1  0
 13 25  1  0
 13 14  2  0
 14 15  1  0
 15 16  1  0
M  END
>  <i_m_ct_stereo_status>  (206) 
1

>  <s_m_source_file>  (206) 
/var/tmp/pbs.5076255.sched01/tmpguie9axe/40t6mruo9t.sdf

>  <i_m_source_file_index>  (206) 
40

>  <i_lp_mmshare_version>  (206) 
48012

>  <i_f3d_flags>  (206) 
0

>  <s_epik_input>  (206) 
W09IXWMxW2NIXVtjSF1bY0hdW2NIXWMxLWMobjIpW25IXWMoYzIzKW5bY0hdW2NIXVtjSF0z

>  <s_epik_cmdline>  (206) 
J2VwaWtfcHl0aG9uJywgJy1waHQnLCAnMi4wJywgJy1waCcsICc3LjAnLCAnLXRuJywgJzgnLCAnLW1hJywgJzIwMCcsICctaW1hZScsICc8aW5maWxlLm1hZT4nLCAnLW9tYWUnLCAnPG91dGZpbGUubWFlPic=

>  <r_lp_tautomer_probability>  (206) 
0.641916

>  <r_epik_Ionization_Penalty>  (206) 
0.00281142

>  <r_epik_Ionization_Penalty_Charging>  (206) 
0

>  <r_epik_Ionization_Penalty_Neutral>  (206) 
0.00281142

>  <r_epik_State_Penalty>  (206) 
0.254028

>  <r_epik_Charging_Adjusted_Penalty>  (206) 
0.254028

>  <i_epik_Tot_Q>  (206) 
0

>  <i_epik_Tot_abs_Q>  (206) 
0

>  <s_lp_Force_Field>  (206) 
OPLS3e

>  <r_lp_Energy>  (206) 
24.9252

>  <b_lp_Chiralities_Consistent>  (206) 
1

>  <s_lp_Variant>  (206) 
48:0-1

>  <s_i_glide_gridfile>  (206) 
pfpi4k_grid

>  <i_i_glide_lignum>  (206) 
40

>  <i_i_glide_rotatable_bonds>  (206) 
2

>  <r_i_docking_score>  (206) 
-5.74843

>  <r_i_glide_ligand_efficiency>  (206) 
-0.359277

>  <r_i_glide_ligand_efficiency_sa>  (206) 
-0.90532

>  <r_i_glide_ligand_efficiency_ln>  (206) 
-1.52374

>  <r_i_glide_gscore>  (206) 
-5.74843

>  <r_i_glide_lipo>  (206) 
-0.804436

>  <r_i_glide_hbond>  (206) 
-0.460714

>  <r_i_glide_metal>  (206) 
-0

>  <r_i_glide_rewards>  (206) 
-2.26035

>  <r_i_glide_evdw>  (206) 
-20.6597

>  <r_i_glide_ecoul>  (206) 
-10.4177

>  <r_i_glide_erotb>  (206) 
0.372705

>  <r_i_glide_esite>  (206) 
0

>  <r_i_glide_emodel>  (206) 
-40.3425

>  <r_i_glide_energy>  (206) 
-31.0774

>  <r_i_glide_einternal>  (206) 
4.59283

>  <r_i_glide_intrahb_reward>  (206) 
-0

>  <i_i_glide_confnum>  (206) 
2

>  <i_i_glide_posenum>  (206) 
2

>  <r_i_glide_eff_state_penalty>  (206) 
0

>  <ligand_id>  (206) 
48

>  <original_smiles>  (206) 
Oc1ccccc1-c1nc2cccnc2[nH]1

>  <smiles>  (206) 
[H]Oc1c([H])c([H])c([H])c([H])c1-c1nc2nc([H])c([H])c([H])c2n1[H]

$$$$
48:0:1
     RDKit          3D

 25 27  0  0  1  0  0  0  0  0999 V2000
    4.4647   -4.2562   -3.7545 O   0  0  0  0  0  0  0  0  0  0  0  0
    4.3750   -2.9696   -3.3129 C   0  0  0  0  0  0  0  0  0  0  0  0
    3.7726   -2.0360   -4.1757 C   0  0  0  0  0  0  0  0  0  0  0  0
    3.7131   -0.6754   -3.8421 C   0  0  0  0  0  0  0  0  0  0  0  0
    4.2618   -0.2610   -2.6176 C   0  0  0  0  0  0  0  0  0  0  0  0
    4.8509   -1.1837   -1.7235 C   0  0  0  0  0  0  0  0  0  0  0  0
    4.9127   -2.5511   -2.0673 C   0  0  0  0  0  0  0  0  0  0  0  0
    5.5663   -3.4594   -1.1370 C   0  0  0  0  0  0  0  0  0  0  0  0
    4.9832   -4.6257   -0.6835 N   0  0  0  0  0  0  0  0  0  0  0  0
    5.8285   -5.2060    0.2165 C   0  0  0  0  0  0  0  0  0  0  0  0
    5.8174   -6.3884    0.9813 C   0  0  0  0  0  0  0  0  0  0  0  0
    6.9511   -6.6771    1.7669 C   0  0  0  0  0  0  0  0  0  0  0  0
    8.0302   -5.7659    1.7432 C   0  0  0  0  0  0  0  0  0  0  0  0
    8.0485   -4.6191    1.0126 N   0  0  0  0  0  0  0  0  0  0  0  0
    6.9571   -4.3464    0.2819 C   0  0  0  0  0  0  0  0  0  0  0  0
    6.7612   -3.2522   -0.5556 N   0  0  0  0  0  0  0  0  0  0  0  0
    4.0815   -5.0046   -0.9588 H   0  0  0  0  0  0  0  0  0  0  0  0
    4.0154   -4.8888   -3.1913 H   0  0  0  0  0  0  0  0  0  0  0  0
    3.3592   -2.3748   -5.1104 H   0  0  0  0  0  0  0  0  0  0  0  0
    3.2518    0.0438   -4.4994 H   0  0  0  0  0  0  0  0  0  0  0  0
    4.2171    0.7767   -2.3683 H   0  0  0  0  0  0  0  0  0  0  0  0
    5.2733   -0.8543   -0.7786 H   0  0  0  0  0  0  0  0  0  0  0  0
    4.9904   -7.0777    0.9319 H   0  0  0  0  0  0  0  0  0  0  0  0
    7.0123   -7.5777    2.3688 H   0  0  0  0  0  0  0  0  0  0  0  0
    8.9091   -5.9473    2.3478 H   0  0  0  0  0  0  0  0  0  0  0  0
  1  2  1  0
  1 18  1  0
  2  7  2  0
  2  3  1  0
  3  4  2  0
  3 19  1  0
  4  5  1  0
  4 20  1  0
  5  6  2  0
  5 21  1  0
  6  7  1  0
  6 22  1  0
  7  8  1  0
  8 16  2  0
  8  9  1  0
  9 17  1  0
  9 10  1  0
 10 15  2  0
 10 11  1  0
 11 23  1  0
 11 12  2  0
 12 24  1  0
 12 13  1  0
 13 25  1  0
 13 14  2  0
 14 15  1  0
 15 16  1  0
M  END
>  <i_m_ct_stereo_status>  (207) 
1

>  <s_m_source_file>  (207) 
/var/tmp/pbs.5076255.sched01/tmpguie9axe/40t6mruo9t.sdf

>  <i_m_source_file_index>  (207) 
40

>  <i_lp_mmshare_version>  (207) 
48012

>  <i_f3d_flags>  (207) 
0

>  <s_epik_input>  (207) 
W09IXWMxW2NIXVtjSF1bY0hdW2NIXWMxLWMobjIpW25IXWMoYzIzKW5bY0hdW2NIXVtjSF0z

>  <s_epik_cmdline>  (207) 
J2VwaWtfcHl0aG9uJywgJy1waHQnLCAnMi4wJywgJy1waCcsICc3LjAnLCAnLXRuJywgJzgnLCAnLW1hJywgJzIwMCcsICctaW1hZScsICc8aW5maWxlLm1hZT4nLCAnLW9tYWUnLCAnPG91dGZpbGUubWFlPic=

>  <r_lp_tautomer_probability>  (207) 
0.641916

>  <r_epik_Ionization_Penalty>  (207) 
0.00281142

>  <r_epik_Ionization_Penalty_Charging>  (207) 
0

>  <r_epik_Ionization_Penalty_Neutral>  (207) 
0.00281142

>  <r_epik_State_Penalty>  (207) 
0.254028

>  <r_epik_Charging_Adjusted_Penalty>  (207) 
0.254028

>  <i_epik_Tot_Q>  (207) 
0

>  <i_epik_Tot_abs_Q>  (207) 
0

>  <s_lp_Force_Field>  (207) 
OPLS3e

>  <r_lp_Energy>  (207) 
24.9252

>  <b_lp_Chiralities_Consistent>  (207) 
1

>  <s_lp_Variant>  (207) 
48:0-1

>  <s_i_glide_gridfile>  (207) 
pfpi4k_grid

>  <i_i_glide_lignum>  (207) 
40

>  <i_i_glide_rotatable_bonds>  (207) 
2

>  <r_i_docking_score>  (207) 
-5.39101

>  <r_i_glide_ligand_efficiency>  (207) 
-0.336938

>  <r_i_glide_ligand_efficiency_sa>  (207) 
-0.84903

>  <r_i_glide_ligand_efficiency_ln>  (207) 
-1.42899

>  <r_i_glide_gscore>  (207) 
-5.39101

>  <r_i_glide_lipo>  (207) 
-0.828115

>  <r_i_glide_hbond>  (207) 
-0.432513

>  <r_i_glide_metal>  (207) 
-0

>  <r_i_glide_rewards>  (207) 
-2.25938

>  <r_i_glide_evdw>  (207) 
-18.908

>  <r_i_glide_ecoul>  (207) 
-8.65355

>  <r_i_glide_erotb>  (207) 
0.372705

>  <r_i_glide_esite>  (207) 
-0.00027101

>  <r_i_glide_emodel>  (207) 
-35.8666

>  <r_i_glide_energy>  (207) 
-27.5616

>  <r_i_glide_einternal>  (207) 
3.68065

>  <r_i_glide_intrahb_reward>  (207) 
-0

>  <i_i_glide_confnum>  (207) 
2

>  <i_i_glide_posenum>  (207) 
35

>  <r_i_glide_eff_state_penalty>  (207) 
0

>  <ligand_id>  (207) 
48

>  <original_smiles>  (207) 
Oc1ccccc1-c1nc2cccnc2[nH]1

>  <smiles>  (207) 
[H]Oc1c([H])c([H])c([H])c([H])c1-c1nc2nc([H])c([H])c([H])c2n1[H]

$$$$
48:0:2
     RDKit          3D

 25 27  0  0  1  0  0  0  0  0999 V2000
    5.4805   -0.6761   -0.7052 O   0  0  0  0  0  0  0  0  0  0  0  0
    4.9383   -1.3853   -1.7408 C   0  0  0  0  0  0  0  0  0  0  0  0
    4.2158   -0.6850   -2.7273 C   0  0  0  0  0  0  0  0  0  0  0  0
    3.6190   -1.3702   -3.8023 C   0  0  0  0  0  0  0  0  0  0  0  0
    3.7588   -2.7698   -3.9026 C   0  0  0  0  0  0  0  0  0  0  0  0
    4.5104   -3.4690   -2.9384 C   0  0  0  0  0  0  0  0  0  0  0  0
    5.0899   -2.7935   -1.8423 C   0  0  0  0  0  0  0  0  0  0  0  0
    5.8502   -3.5666   -0.8521 C   0  0  0  0  0  0  0  0  0  0  0  0
    5.3772   -4.7451   -0.3158 N   0  0  0  0  0  0  0  0  0  0  0  0
    6.3166   -5.2435    0.5454 C   0  0  0  0  0  0  0  0  0  0  0  0
    6.4195   -6.3811    1.3636 C   0  0  0  0  0  0  0  0  0  0  0  0
    7.6064   -6.5366    2.1092 C   0  0  0  0  0  0  0  0  0  0  0  0
    8.6184   -5.5636    1.9672 C   0  0  0  0  0  0  0  0  0  0  0  0
    8.5397   -4.4824    1.1506 N   0  0  0  0  0  0  0  0  0  0  0  0
    7.3908   -4.3252    0.4815 C   0  0  0  0  0  0  0  0  0  0  0  0
    7.0811   -3.2930   -0.3924 N   0  0  0  0  0  0  0  0  0  0  0  0
    4.4891   -5.1748   -0.5408 H   0  0  0  0  0  0  0  0  0  0  0  0
    5.3023    0.2583   -0.7306 H   0  0  0  0  0  0  0  0  0  0  0  0
    4.1082    0.3898   -2.6691 H   0  0  0  0  0  0  0  0  0  0  0  0
    3.0476   -0.8207   -4.5378 H   0  0  0  0  0  0  0  0  0  0  0  0
    3.2836   -3.3005   -4.7156 H   0  0  0  0  0  0  0  0  0  0  0  0
    4.6320   -4.5391   -3.0295 H   0  0  0  0  0  0  0  0  0  0  0  0
    5.6270   -7.1137    1.4250 H   0  0  0  0  0  0  0  0  0  0  0  0
    7.7522   -7.3825    2.7685 H   0  0  0  0  0  0  0  0  0  0  0  0
    9.5305   -5.6517    2.5351 H   0  0  0  0  0  0  0  0  0  0  0  0
  1  2  1  0
  1 18  1  0
  2  7  2  0
  2  3  1  0
  3  4  2  0
  3 19  1  0
  4  5  1  0
  4 20  1  0
  5  6  2  0
  5 21  1  0
  6  7  1  0
  6 22  1  0
  7  8  1  0
  8 16  2  0
  8  9  1  0
  9 17  1  0
  9 10  1  0
 10 15  2  0
 10 11  1  0
 11 23  1  0
 11 12  2  0
 12 24  1  0
 12 13  1  0
 13 25  1  0
 13 14  2  0
 14 15  1  0
 15 16  1  0
M  END
>  <i_m_ct_stereo_status>  (208) 
1

>  <s_m_source_file>  (208) 
/var/tmp/pbs.5076255.sched01/tmpguie9axe/40t6mruo9t.sdf

>  <i_m_source_file_index>  (208) 
40

>  <i_lp_mmshare_version>  (208) 
48012

>  <i_f3d_flags>  (208) 
0

>  <s_epik_input>  (208) 
W09IXWMxW2NIXVtjSF1bY0hdW2NIXWMxLWMobjIpW25IXWMoYzIzKW5bY0hdW2NIXVtjSF0z

>  <s_epik_cmdline>  (208) 
J2VwaWtfcHl0aG9uJywgJy1waHQnLCAnMi4wJywgJy1waCcsICc3LjAnLCAnLXRuJywgJzgnLCAnLW1hJywgJzIwMCcsICctaW1hZScsICc8aW5maWxlLm1hZT4nLCAnLW9tYWUnLCAnPG91dGZpbGUubWFlPic=

>  <r_lp_tautomer_probability>  (208) 
0.641916

>  <r_epik_Ionization_Penalty>  (208) 
0.00281142

>  <r_epik_Ionization_Penalty_Charging>  (208) 
0

>  <r_epik_Ionization_Penalty_Neutral>  (208) 
0.00281142

>  <r_epik_State_Penalty>  (208) 
0.254028

>  <r_epik_Charging_Adjusted_Penalty>  (208) 
0.254028

>  <i_epik_Tot_Q>  (208) 
0

>  <i_epik_Tot_abs_Q>  (208) 
0

>  <s_lp_Force_Field>  (208) 
OPLS3e

>  <r_lp_Energy>  (208) 
24.9252

>  <b_lp_Chiralities_Consistent>  (208) 
1

>  <s_lp_Variant>  (208) 
48:0-1

>  <s_i_glide_gridfile>  (208) 
pfpi4k_grid

>  <i_i_glide_lignum>  (208) 
40

>  <i_i_glide_rotatable_bonds>  (208) 
2

>  <r_i_docking_score>  (208) 
-5.08222

>  <r_i_glide_ligand_efficiency>  (208) 
-0.317639

>  <r_i_glide_ligand_efficiency_sa>  (208) 
-0.800399

>  <r_i_glide_ligand_efficiency_ln>  (208) 
-1.34714

>  <r_i_glide_gscore>  (208) 
-5.08222

>  <r_i_glide_lipo>  (208) 
-0.63231

>  <r_i_glide_hbond>  (208) 
-0.32

>  <r_i_glide_metal>  (208) 
-0

>  <r_i_glide_rewards>  (208) 
-2.2844

>  <r_i_glide_evdw>  (208) 
-23.8913

>  <r_i_glide_ecoul>  (208) 
-6.82434

>  <r_i_glide_erotb>  (208) 
0.372705

>  <r_i_glide_esite>  (208) 
0

>  <r_i_glide_emodel>  (208) 
-40.5013

>  <r_i_glide_energy>  (208) 
-30.7156

>  <r_i_glide_einternal>  (208) 
1.1149

>  <r_i_glide_intrahb_reward>  (208) 
-0

>  <i_i_glide_confnum>  (208) 
1

>  <i_i_glide_posenum>  (208) 
15

>  <r_i_glide_eff_state_penalty>  (208) 
0

>  <ligand_id>  (208) 
48

>  <original_smiles>  (208) 
Oc1ccccc1-c1nc2cccnc2[nH]1

>  <smiles>  (208) 
[H]Oc1c([H])c([H])c([H])c([H])c1-c1nc2nc([H])c([H])c([H])c2n1[H]

$$$$
48:1:0
     RDKit          3D

 25 27  0  0  1  0  0  0  0  0999 V2000
    2.6179   -3.8453   -3.7386 O   0  0  0  0  0  0  0  0  0  0  0  0
    3.2525   -2.7370   -3.2708 C   0  0  0  0  0  0  0  0  0  0  0  0
    3.5507   -1.7538   -4.2249 C   0  0  0  0  0  0  0  0  0  0  0  0
    4.2055   -0.5770   -3.8935 C   0  0  0  0  0  0  0  0  0  0  0  0
    4.5982   -0.3945   -2.5661 C   0  0  0  0  0  0  0  0  0  0  0  0
    4.3327   -1.3627   -1.5817 C   0  0  0  0  0  0  0  0  0  0  0  0
    3.6483   -2.5519   -1.9239 C   0  0  0  0  0  0  0  0  0  0  0  0
    3.3894   -3.5175   -0.8663 C   0  0  0  0  0  0  0  0  0  0  0  0
    4.3044   -3.8137    0.0575 N   0  0  0  0  0  0  0  0  0  0  0  0
    3.6763   -4.7662    0.8479 C   0  0  0  0  0  0  0  0  0  0  0  0
    4.0715   -5.4842    1.9927 C   0  0  0  0  0  0  0  0  0  0  0  0
    3.1598   -6.3949    2.5726 C   0  0  0  0  0  0  0  0  0  0  0  0
    1.8834   -6.5697    1.9941 C   0  0  0  0  0  0  0  0  0  0  0  0
    1.4404   -5.8998    0.8956 N   0  0  0  0  0  0  0  0  0  0  0  0
    2.3617   -5.0320    0.3696 C   0  0  0  0  0  0  0  0  0  0  0  0
    2.2156   -4.1820   -0.7199 N   0  0  0  0  0  0  0  0  0  0  0  0
    1.4430   -4.1011   -1.3554 H   0  0  0  0  0  0  0  0  0  0  0  0
    2.6500   -4.6014   -3.1512 H   0  0  0  0  0  0  0  0  0  0  0  0
    3.3036   -1.8985   -5.2392 H   0  0  0  0  0  0  0  0  0  0  0  0
    4.4032    0.1615   -4.6601 H   0  0  0  0  0  0  0  0  0  0  0  0
    5.0866    0.5285   -2.3195 H   0  0  0  0  0  0  0  0  0  0  0  0
    4.6323   -1.1775   -0.5621 H   0  0  0  0  0  0  0  0  0  0  0  0
    5.0474   -5.3274    2.4150 H   0  0  0  0  0  0  0  0  0  0  0  0
    3.4398   -6.9565    3.4498 H   0  0  0  0  0  0  0  0  0  0  0  0
    1.1867   -7.2694    2.4346 H   0  0  0  0  0  0  0  0  0  0  0  0
  1  2  1  0
  1 18  1  0
  2  7  2  0
  2  3  1  0
  3  4  2  0
  3 19  1  0
  4  5  1  0
  4 20  1  0
  5  6  2  0
  5 21  1  0
  6  7  1  0
  6 22  1  0
  7  8  1  0
  8 16  1  0
  8  9  2  0
  9 10  1  0
 10 15  2  0
 10 11  1  0
 11 12  2  0
 11 23  1  0
 12 13  1  0
 12 24  1  0
 13 14  2  0
 13 25  1  0
 14 15  1  0
 15 16  1  0
 16 17  1  0
M  END
>  <i_m_ct_stereo_status>  (209) 
1

>  <s_m_source_file>  (209) 
/var/tmp/pbs.5076255.sched01/tmpfes5ahby/80lk6pwr5_.sdf

>  <i_m_source_file_index>  (209) 
1

>  <i_lp_mmshare_version>  (209) 
48012

>  <i_f3d_flags>  (209) 
0

>  <s_epik_input>  (209) 
W09IXWMxW2NIXVtjSF1bY0hdW2NIXWMxLWMobjIpW25IXWMoYzIzKW5bY0hdW2NIXVtjSF0z

>  <s_epik_cmdline>  (209) 
J2VwaWtfcHl0aG9uJywgJy1waHQnLCAnMi4wJywgJy1waCcsICc3LjAnLCAnLXRuJywgJzgnLCAnLW1hJywgJzIwMCcsICctaW1hZScsICc8aW5maWxlLm1hZT4nLCAnLW9tYWUnLCAnPG91dGZpbGUubWFlPic=

>  <r_lp_tautomer_probability>  (209) 
0.357409

>  <r_epik_Ionization_Penalty>  (209) 
0.00309074

>  <r_epik_Ionization_Penalty_Charging>  (209) 
0.000412906

>  <r_epik_Ionization_Penalty_Neutral>  (209) 
0.00267783

>  <r_epik_State_Penalty>  (209) 
0.624248

>  <r_epik_Charging_Adjusted_Penalty>  (209) 
0.624661

>  <i_epik_Tot_Q>  (209) 
0

>  <i_epik_Tot_abs_Q>  (209) 
0

>  <s_lp_Force_Field>  (209) 
OPLS3e

>  <r_lp_Energy>  (209) 
23.8816

>  <b_lp_Chiralities_Consistent>  (209) 
1

>  <s_lp_Variant>  (209) 
48:0-2

>  <s_i_glide_gridfile>  (209) 
pfpi4k_grid

>  <i_i_glide_lignum>  (209) 
1

>  <i_i_glide_rotatable_bonds>  (209) 
2

>  <r_i_docking_score>  (209) 
-4.49117

>  <r_i_glide_ligand_efficiency>  (209) 
-0.280698

>  <r_i_glide_ligand_efficiency_sa>  (209) 
-0.707315

>  <r_i_glide_ligand_efficiency_ln>  (209) 
-1.19048

>  <r_i_glide_gscore>  (209) 
-4.49117

>  <r_i_glide_lipo>  (209) 
-0.36966

>  <r_i_glide_hbond>  (209) 
-0.475802

>  <r_i_glide_metal>  (209) 
-0

>  <r_i_glide_rewards>  (209) 
-2.02249

>  <r_i_glide_evdw>  (209) 
-10.864

>  <r_i_glide_ecoul>  (209) 
-8.87113

>  <r_i_glide_erotb>  (209) 
0.372705

>  <r_i_glide_esite>  (209) 
-0.122054

>  <r_i_glide_emodel>  (209) 
-27.0203

>  <r_i_glide_energy>  (209) 
-19.7352

>  <r_i_glide_einternal>  (209) 
1.12586

>  <r_i_glide_intrahb_reward>  (209) 
-0

>  <i_i_glide_confnum>  (209) 
3

>  <i_i_glide_posenum>  (209) 
22

>  <r_i_glide_eff_state_penalty>  (209) 
0

>  <ligand_id>  (209) 
48

>  <original_smiles>  (209) 
Oc1ccccc1-c1nc2cccnc2[nH]1

>  <smiles>  (209) 
[H]Oc1c([H])c([H])c([H])c([H])c1-c1nc2c([H])c([H])c([H])nc2n1[H]

$$$$
48:1:1
     RDKit          3D

 25 27  0  0  1  0  0  0  0  0999 V2000
   -0.4889    3.1650    3.2776 O   0  0  0  0  0  0  0  0  0  0  0  0
    0.0073    1.8892    3.3346 C   0  0  0  0  0  0  0  0  0  0  0  0
    0.6153    1.3796    2.1714 C   0  0  0  0  0  0  0  0  0  0  0  0
    1.1710    0.0869    2.1582 C   0  0  0  0  0  0  0  0  0  0  0  0
    1.1171   -0.7144    3.3100 C   0  0  0  0  0  0  0  0  0  0  0  0
    0.5137   -0.2156    4.4789 C   0  0  0  0  0  0  0  0  0  0  0  0
   -0.0455    1.0850    4.5106 C   0  0  0  0  0  0  0  0  0  0  0  0
   -0.6607    1.5368    5.7661 C   0  0  0  0  0  0  0  0  0  0  0  0
   -0.2467    1.1076    6.9683 N   0  0  0  0  0  0  0  0  0  0  0  0
   -1.0623    1.7871    7.8597 C   0  0  0  0  0  0  0  0  0  0  0  0
   -1.1342    1.8039    9.2714 C   0  0  0  0  0  0  0  0  0  0  0  0
   -2.1322    2.5866    9.8902 C   0  0  0  0  0  0  0  0  0  0  0  0
   -3.0145    3.3423    9.0870 C   0  0  0  0  0  0  0  0  0  0  0  0
   -2.9799    3.3659    7.7316 N   0  0  0  0  0  0  0  0  0  0  0  0
   -2.0053    2.5926    7.1739 C   0  0  0  0  0  0  0  0  0  0  0  0
   -1.7078    2.3907    5.8391 N   0  0  0  0  0  0  0  0  0  0  0  0
   -2.1370    2.8097    5.0252 H   0  0  0  0  0  0  0  0  0  0  0  0
   -0.3077    3.5672    2.4248 H   0  0  0  0  0  0  0  0  0  0  0  0
    0.6618    1.9857    1.2791 H   0  0  0  0  0  0  0  0  0  0  0  0
    1.6340   -0.2902    1.2611 H   0  0  0  0  0  0  0  0  0  0  0  0
    1.5387   -1.7092    3.2925 H   0  0  0  0  0  0  0  0  0  0  0  0
    0.4848   -0.8405    5.3597 H   0  0  0  0  0  0  0  0  0  0  0  0
   -0.4526    1.2158    9.8719 H   0  0  0  0  0  0  0  0  0  0  0  0
   -2.2331    2.6008   10.9707 H   0  0  0  0  0  0  0  0  0  0  0  0
   -3.7836    3.9464    9.5518 H   0  0  0  0  0  0  0  0  0  0  0  0
  1  2  1  0
  1 18  1  0
  2  7  2  0
  2  3  1  0
  3  4  2  0
  3 19  1  0
  4  5  1  0
  4 20  1  0
  5  6  2  0
  5 21  1  0
  6  7  1  0
  6 22  1  0
  7  8  1  0
  8 16  1  0
  8  9  2  0
  9 10  1  0
 10 15  2  0
 10 11  1  0
 11 12  2  0
 11 23  1  0
 12 13  1  0
 12 24  1  0
 13 14  2  0
 13 25  1  0
 14 15  1  0
 15 16  1  0
 16 17  1  0
M  END
>  <i_m_ct_stereo_status>  (210) 
1

>  <s_m_source_file>  (210) 
/var/tmp/pbs.5076255.sched01/tmpfes5ahby/80lk6pwr5_.sdf

>  <i_m_source_file_index>  (210) 
1

>  <i_lp_mmshare_version>  (210) 
48012

>  <i_f3d_flags>  (210) 
0

>  <s_epik_input>  (210) 
W09IXWMxW2NIXVtjSF1bY0hdW2NIXWMxLWMobjIpW25IXWMoYzIzKW5bY0hdW2NIXVtjSF0z

>  <s_epik_cmdline>  (210) 
J2VwaWtfcHl0aG9uJywgJy1waHQnLCAnMi4wJywgJy1waCcsICc3LjAnLCAnLXRuJywgJzgnLCAnLW1hJywgJzIwMCcsICctaW1hZScsICc8aW5maWxlLm1hZT4nLCAnLW9tYWUnLCAnPG91dGZpbGUubWFlPic=

>  <r_lp_tautomer_probability>  (210) 
0.357409

>  <r_epik_Ionization_Penalty>  (210) 
0.00309074

>  <r_epik_Ionization_Penalty_Charging>  (210) 
0.000412906

>  <r_epik_Ionization_Penalty_Neutral>  (210) 
0.00267783

>  <r_epik_State_Penalty>  (210) 
0.624248

>  <r_epik_Charging_Adjusted_Penalty>  (210) 
0.624661

>  <i_epik_Tot_Q>  (210) 
0

>  <i_epik_Tot_abs_Q>  (210) 
0

>  <s_lp_Force_Field>  (210) 
OPLS3e

>  <r_lp_Energy>  (210) 
23.8816

>  <b_lp_Chiralities_Consistent>  (210) 
1

>  <s_lp_Variant>  (210) 
48:0-2

>  <s_i_glide_gridfile>  (210) 
pfpi4k_grid

>  <i_i_glide_lignum>  (210) 
1

>  <i_i_glide_rotatable_bonds>  (210) 
2

>  <r_i_docking_score>  (210) 
-3.58758

>  <r_i_glide_ligand_efficiency>  (210) 
-0.224224

>  <r_i_glide_ligand_efficiency_sa>  (210) 
-0.565009

>  <r_i_glide_ligand_efficiency_ln>  (210) 
-0.95096

>  <r_i_glide_gscore>  (210) 
-3.58758

>  <r_i_glide_lipo>  (210) 
0

>  <r_i_glide_hbond>  (210) 
-0.16

>  <r_i_glide_metal>  (210) 
-0

>  <r_i_glide_rewards>  (210) 
-2.03859

>  <r_i_glide_evdw>  (210) 
-17.5338

>  <r_i_glide_ecoul>  (210) 
-5.82501

>  <r_i_glide_erotb>  (210) 
0.372705

>  <r_i_glide_esite>  (210) 
-0.011256

>  <r_i_glide_emodel>  (210) 
-29.5333

>  <r_i_glide_energy>  (210) 
-23.3589

>  <r_i_glide_einternal>  (210) 
0.469315

>  <r_i_glide_intrahb_reward>  (210) 
-0

>  <i_i_glide_confnum>  (210) 
2

>  <i_i_glide_posenum>  (210) 
1

>  <r_i_glide_eff_state_penalty>  (210) 
0

>  <ligand_id>  (210) 
48

>  <original_smiles>  (210) 
Oc1ccccc1-c1nc2cccnc2[nH]1

>  <smiles>  (210) 
[H]Oc1c([H])c([H])c([H])c([H])c1-c1nc2c([H])c([H])c([H])nc2n1[H]

$$$$
48:1:2
     RDKit          3D

 25 27  0  0  1  0  0  0  0  0999 V2000
    5.7628   -1.5096   -0.8120 O   0  0  0  0  0  0  0  0  0  0  0  0
    4.7246   -1.7314   -1.6755 C   0  0  0  0  0  0  0  0  0  0  0  0
    4.4457   -0.7542   -2.6559 C   0  0  0  0  0  0  0  0  0  0  0  0
    3.4038   -0.9428   -3.5845 C   0  0  0  0  0  0  0  0  0  0  0  0
    2.6208   -2.1090   -3.5284 C   0  0  0  0  0  0  0  0  0  0  0  0
    2.8654   -3.0580   -2.5236 C   0  0  0  0  0  0  0  0  0  0  0  0
    3.9163   -2.8924   -1.5975 C   0  0  0  0  0  0  0  0  0  0  0  0
    4.1363   -3.9364   -0.5865 C   0  0  0  0  0  0  0  0  0  0  0  0
    3.1289   -4.5183    0.0794 N   0  0  0  0  0  0  0  0  0  0  0  0
    3.7672   -5.4560    0.8804 C   0  0  0  0  0  0  0  0  0  0  0  0
    3.2891   -6.4069    1.8098 C   0  0  0  0  0  0  0  0  0  0  0  0
    4.2224   -7.2086    2.4994 C   0  0  0  0  0  0  0  0  0  0  0  0
    5.5989   -7.0538    2.2301 C   0  0  0  0  0  0  0  0  0  0  0  0
    6.1094   -6.1740    1.3365 N   0  0  0  0  0  0  0  0  0  0  0  0
    5.1711   -5.4087    0.7030 C   0  0  0  0  0  0  0  0  0  0  0  0
    5.3574   -4.4158   -0.2450 N   0  0  0  0  0  0  0  0  0  0  0  0
    6.2322   -4.1499   -0.6671 H   0  0  0  0  0  0  0  0  0  0  0  0
    5.7586   -2.0940   -0.0681 H   0  0  0  0  0  0  0  0  0  0  0  0
    5.0181    0.1575   -2.6861 H   0  0  0  0  0  0  0  0  0  0  0  0
    3.1905   -0.1856   -4.3270 H   0  0  0  0  0  0  0  0  0  0  0  0
    1.8166   -2.2643   -4.2351 H   0  0  0  0  0  0  0  0  0  0  0  0
    2.2378   -3.9363   -2.4785 H   0  0  0  0  0  0  0  0  0  0  0  0
    2.2314   -6.5040    1.9969 H   0  0  0  0  0  0  0  0  0  0  0  0
    3.8875   -7.9307    3.2281 H   0  0  0  0  0  0  0  0  0  0  0  0
    6.3208   -7.6606    2.7592 H   0  0  0  0  0  0  0  0  0  0  0  0
  1  2  1  0
  1 18  1  0
  2  7  2  0
  2  3  1  0
  3  4  2  0
  3 19  1  0
  4  5  1  0
  4 20  1  0
  5  6  2  0
  5 21  1  0
  6  7  1  0
  6 22  1  0
  7  8  1  0
  8 16  1  0
  8  9  2  0
  9 10  1  0
 10 15  2  0
 10 11  1  0
 11 12  2  0
 11 23  1  0
 12 13  1  0
 12 24  1  0
 13 14  2  0
 13 25  1  0
 14 15  1  0
 15 16  1  0
 16 17  1  0
M  END
>  <i_m_ct_stereo_status>  (211) 
1

>  <s_m_source_file>  (211) 
/var/tmp/pbs.5076255.sched01/tmpfes5ahby/80lk6pwr5_.sdf

>  <i_m_source_file_index>  (211) 
1

>  <i_lp_mmshare_version>  (211) 
48012

>  <i_f3d_flags>  (211) 
0

>  <s_epik_input>  (211) 
W09IXWMxW2NIXVtjSF1bY0hdW2NIXWMxLWMobjIpW25IXWMoYzIzKW5bY0hdW2NIXVtjSF0z

>  <s_epik_cmdline>  (211) 
J2VwaWtfcHl0aG9uJywgJy1waHQnLCAnMi4wJywgJy1waCcsICc3LjAnLCAnLXRuJywgJzgnLCAnLW1hJywgJzIwMCcsICctaW1hZScsICc8aW5maWxlLm1hZT4nLCAnLW9tYWUnLCAnPG91dGZpbGUubWFlPic=

>  <r_lp_tautomer_probability>  (211) 
0.357409

>  <r_epik_Ionization_Penalty>  (211) 
0.00309074

>  <r_epik_Ionization_Penalty_Charging>  (211) 
0.000412906

>  <r_epik_Ionization_Penalty_Neutral>  (211) 
0.00267783

>  <r_epik_State_Penalty>  (211) 
0.624248

>  <r_epik_Charging_Adjusted_Penalty>  (211) 
0.624661

>  <i_epik_Tot_Q>  (211) 
0

>  <i_epik_Tot_abs_Q>  (211) 
0

>  <s_lp_Force_Field>  (211) 
OPLS3e

>  <r_lp_Energy>  (211) 
23.8816

>  <b_lp_Chiralities_Consistent>  (211) 
1

>  <s_lp_Variant>  (211) 
48:0-2

>  <s_i_glide_gridfile>  (211) 
pfpi4k_grid

>  <i_i_glide_lignum>  (211) 
1

>  <i_i_glide_rotatable_bonds>  (211) 
2

>  <r_i_docking_score>  (211) 
-3.5507

>  <r_i_glide_ligand_efficiency>  (211) 
-0.221919

>  <r_i_glide_ligand_efficiency_sa>  (211) 
-0.5592

>  <r_i_glide_ligand_efficiency_ln>  (211) 
-0.941184

>  <r_i_glide_gscore>  (211) 
-3.5507

>  <r_i_glide_lipo>  (211) 
-0.516651

>  <r_i_glide_hbond>  (211) 
-0.0214513

>  <r_i_glide_metal>  (211) 
-0

>  <r_i_glide_rewards>  (211) 
-2.08758

>  <r_i_glide_evdw>  (211) 
-21.5958

>  <r_i_glide_ecoul>  (211) 
-1.3796

>  <r_i_glide_erotb>  (211) 
0.372705

>  <r_i_glide_esite>  (211) 
-0.0109865

>  <r_i_glide_emodel>  (211) 
-28.7811

>  <r_i_glide_energy>  (211) 
-22.9754

>  <r_i_glide_einternal>  (211) 
1.0439

>  <r_i_glide_intrahb_reward>  (211) 
-0

>  <i_i_glide_confnum>  (211) 
4

>  <i_i_glide_posenum>  (211) 
2

>  <r_i_glide_eff_state_penalty>  (211) 
0

>  <ligand_id>  (211) 
48

>  <original_smiles>  (211) 
Oc1ccccc1-c1nc2cccnc2[nH]1

>  <smiles>  (211) 
[H]Oc1c([H])c([H])c([H])c([H])c1-c1nc2c([H])c([H])c([H])nc2n1[H]

$$$$
49:0:0
     RDKit          3D

 87 91  0  0  1  0  0  0  0  0999 V2000
   -2.4372    2.7150    2.8860 C   0  0  0  0  0  0  0  0  0  0  0  0
   -2.0978    2.2466    4.3143 C   0  0  0  0  0  0  0  0  0  0  0  0
   -2.8714    3.0848    5.3409 C   0  0  0  0  0  0  0  0  0  0  0  0
   -0.5880    2.2897    4.6197 C   0  0  0  0  0  0  0  0  0  0  0  0
    0.2585    1.3559    3.7401 C   0  0  0  0  0  0  0  0  0  0  0  0
    1.7685    1.5573    3.9546 C   0  0  0  0  0  0  0  0  0  0  0  0
    2.6847    0.6778    3.0596 C   0  0  2  0  0  0  0  0  0  0  0  0
    2.3395    0.8929    1.5723 C   0  0  0  0  0  0  0  0  0  0  0  0
    2.7061   -0.8305    3.4705 C   0  0  2  0  0  0  0  0  0  0  0  0
    2.8905   -1.0366    4.9958 C   0  0  0  0  0  0  0  0  0  0  0  0
    3.6342   -2.3622    5.1991 C   0  0  0  0  0  0  0  0  0  0  0  0
    3.6698   -2.9798    3.8046 C   0  0  2  0  0  0  0  0  0  0  0  0
    4.6835   -4.1137    3.5170 C   0  0  1  0  0  0  0  0  0  0  0  0
    4.7109   -5.2132    4.5848 C   0  0  0  0  0  0  0  0  0  0  0  0
    3.5237   -6.1561    4.4564 C   0  0  0  0  0  0  0  0  0  0  0  0
    3.5690   -6.9135    3.1125 C   0  0  1  0  0  0  0  0  0  0  0  0
    2.5062   -8.0621    3.0418 C   0  0  1  0  0  0  0  0  0  0  0  0
    2.4900   -9.0053    4.2714 C   0  0  0  0  0  0  0  0  0  0  0  0
    1.4952  -10.1706    4.1009 C   0  0  0  0  0  0  0  0  0  0  0  0
    0.0767   -9.6637    3.7827 C   0  0  1  0  0  0  0  0  0  0  0  0
   -0.5438   -9.0525    4.9045 O   0  0  0  0  0  0  0  0  0  0  0  0
    0.0937   -8.7087    2.5806 C   0  0  0  0  0  0  0  0  0  0  0  0
    1.0801   -7.5363    2.7605 C   0  0  2  0  0  0  0  0  0  0  0  0
    1.0706   -6.6391    1.5152 C   0  0  0  0  0  0  0  0  0  0  0  0
    2.0587   -5.4734    1.6560 C   0  0  0  0  0  0  0  0  0  0  0  0
    3.5299   -5.9250    1.8800 C   0  0  2  0  0  0  0  0  0  0  0  0
    4.0137   -6.7288    0.6351 C   0  0  0  0  0  0  0  0  0  0  0  0
    4.5288   -4.6891    2.0671 C   0  0  1  0  0  0  0  0  0  0  0  0
    4.4450   -3.4892    1.0526 C   0  0  1  0  0  0  0  0  0  0  0  0
    4.1706   -3.8487   -0.2789 O   0  0  0  0  0  0  0  0  0  0  0  0
    3.4815   -2.3414    1.4440 C   0  0  0  0  0  0  0  0  0  0  0  0
    3.7869   -1.7757    2.8506 C   0  0  1  0  0  0  0  0  0  0  0  0
    5.1840   -1.0849    2.8774 C   0  0  0  0  0  0  0  0  0  0  0  0
   -2.0638    3.7203    2.6906 H   0  0  0  0  0  0  0  0  0  0  0  0
   -3.5147    2.7200    2.7204 H   0  0  0  0  0  0  0  0  0  0  0  0
   -2.0158    2.0532    2.1296 H   0  0  0  0  0  0  0  0  0  0  0  0
   -2.4292    1.2123    4.4135 H   0  0  0  0  0  0  0  0  0  0  0  0
   -2.5725    4.1310    5.2942 H   0  0  0  0  0  0  0  0  0  0  0  0
   -2.7020    2.7321    6.3580 H   0  0  0  0  0  0  0  0  0  0  0  0
   -3.9421    3.0363    5.1521 H   0  0  0  0  0  0  0  0  0  0  0  0
   -0.2324    3.3127    4.5045 H   0  0  0  0  0  0  0  0  0  0  0  0
   -0.4230    2.0296    5.6670 H   0  0  0  0  0  0  0  0  0  0  0  0
   -0.0148    0.3181    3.9312 H   0  0  0  0  0  0  0  0  0  0  0  0
    0.0250    1.5508    2.6948 H   0  0  0  0  0  0  0  0  0  0  0  0
    2.0099    2.6017    3.7478 H   0  0  0  0  0  0  0  0  0  0  0  0
    1.9974    1.4231    5.0128 H   0  0  0  0  0  0  0  0  0  0  0  0
    3.6835    1.0884    3.2133 H   0  0  0  0  0  0  0  0  0  0  0  0
    1.4154    0.3876    1.2829 H   0  0  0  0  0  0  0  0  0  0  0  0
    3.1263    0.5463    0.9084 H   0  0  0  0  0  0  0  0  0  0  0  0
    2.2071    1.9544    1.3670 H   0  0  0  0  0  0  0  0  0  0  0  0
    1.7336   -1.2502    3.2049 H   0  0  0  0  0  0  0  0  0  0  0  0
    3.4879   -0.2389    5.4412 H   0  0  0  0  0  0  0  0  0  0  0  0
    1.9190   -1.0425    5.4901 H   0  0  0  0  0  0  0  0  0  0  0  0
    4.6425   -2.1728    5.5732 H   0  0  0  0  0  0  0  0  0  0  0  0
    3.1264   -3.0055    5.9195 H   0  0  0  0  0  0  0  0  0  0  0  0
    2.6769   -3.4019    3.6742 H   0  0  0  0  0  0  0  0  0  0  0  0
    5.6746   -3.6654    3.5806 H   0  0  0  0  0  0  0  0  0  0  0  0
    5.6351   -5.7865    4.4779 H   0  0  0  0  0  0  0  0  0  0  0  0
    4.7358   -4.7773    5.5821 H   0  0  0  0  0  0  0  0  0  0  0  0
    3.5945   -6.8456    5.2913 H   0  0  0  0  0  0  0  0  0  0  0  0
    2.5812   -5.6168    4.5780 H   0  0  0  0  0  0  0  0  0  0  0  0
    4.5408   -7.4116    3.0925 H   0  0  0  0  0  0  0  0  0  0  0  0
    2.7872   -8.7122    2.2114 H   0  0  0  0  0  0  0  0  0  0  0  0
    3.4881   -9.4102    4.4492 H   0  0  0  0  0  0  0  0  0  0  0  0
    2.1965   -8.4695    5.1748 H   0  0  0  0  0  0  0  0  0  0  0  0
    1.8371  -10.8174    3.2885 H   0  0  0  0  0  0  0  0  0  0  0  0
    1.4780  -10.7903    5.0029 H   0  0  0  0  0  0  0  0  0  0  0  0
   -0.5380  -10.5289    3.5226 H   0  0  0  0  0  0  0  0  0  0  0  0
   -1.1606   -9.7148    5.2251 H   0  0  0  0  0  0  0  0  0  0  0  0
    0.3818   -9.2765    1.6958 H   0  0  0  0  0  0  0  0  0  0  0  0
   -0.9151   -8.3407    2.3936 H   0  0  0  0  0  0  0  0  0  0  0  0
    0.7408   -6.9437    3.6140 H   0  0  0  0  0  0  0  0  0  0  0  0
    1.2936   -7.2227    0.6207 H   0  0  0  0  0  0  0  0  0  0  0  0
    0.0651   -6.2538    1.3714 H   0  0  0  0  0  0  0  0  0  0  0  0
    1.9889   -4.8516    0.7675 H   0  0  0  0  0  0  0  0  0  0  0  0
    1.7232   -4.8591    2.4871 H   0  0  0  0  0  0  0  0  0  0  0  0
    3.7822   -6.2347   -0.3040 H   0  0  0  0  0  0  0  0  0  0  0  0
    3.5488   -7.7046    0.5527 H   0  0  0  0  0  0  0  0  0  0  0  0
    5.0884   -6.9110    0.6600 H   0  0  0  0  0  0  0  0  0  0  0  0
    5.5070   -5.1354    1.8807 H   0  0  0  0  0  0  0  0  0  0  0  0
    5.4454   -3.0699    1.0046 H   0  0  0  0  0  0  0  0  0  0  0  0
    4.7671   -4.5294   -0.5404 H   0  0  0  0  0  0  0  0  0  0  0  0
    3.5557   -1.5601    0.6933 H   0  0  0  0  0  0  0  0  0  0  0  0
    2.4478   -2.6821    1.4048 H   0  0  0  0  0  0  0  0  0  0  0  0
    6.0088   -1.7526    2.6375 H   0  0  0  0  0  0  0  0  0  0  0  0
    5.4108   -0.6579    3.8544 H   0  0  0  0  0  0  0  0  0  0  0  0
    5.2331   -0.2732    2.1496 H   0  0  0  0  0  0  0  0  0  0  0  0
  1  2  1  0
  1 34  1  0
  1 35  1  0
  1 36  1  0
  2  3  1  0
  2  4  1  0
  2 37  1  0
  3 38  1  0
  3 39  1  0
  3 40  1  0
  4  5  1  0
  4 41  1  0
  4 42  1  0
  5  6  1  0
  5 43  1  0
  5 44  1  0
  6  7  1  0
  6 45  1  0
  6 46  1  0
  7  8  1  0
  7  9  1  0
  7 47  1  6
  8 48  1  0
  8 49  1  0
  8 50  1  0
  9 32  1  0
  9 10  1  0
  9 51  1  6
 10 11  1  0
 10 52  1  0
 10 53  1  0
 11 12  1  0
 11 54  1  0
 11 55  1  0
 12 32  1  0
 12 13  1  0
 12 56  1  6
 13 28  1  0
 13 14  1  0
 13 57  1  6
 14 15  1  0
 14 58  1  0
 14 59  1  0
 15 16  1  0
 15 60  1  0
 15 61  1  0
 16 26  1  0
 16 17  1  0
 16 62  1  1
 17 23  1  0
 17 18  1  0
 17 63  1  6
 18 19  1  0
 18 64  1  0
 18 65  1  0
 19 20  1  0
 19 66  1  0
 19 67  1  0
 20 21  1  0
 20 22  1  0
 20 68  1  6
 21 69  1  0
 22 23  1  0
 22 70  1  0
 22 71  1  0
 23 24  1  0
 23 72  1  1
 24 25  1  0
 24 73  1  0
 24 74  1  0
 25 26  1  0
 25 75  1  0
 25 76  1  0
 26 27  1  6
 26 28  1  0
 27 77  1  0
 27 78  1  0
 27 79  1  0
 28 29  1  0
 28 80  1  6
 29 30  1  0
 29 31  1  0
 29 81  1  6
 30 82  1  0
 31 32  1  0
 31 83  1  0
 31 84  1  0
 32 33  1  6
 33 85  1  0
 33 86  1  0
 33 87  1  0
M  END
>  <i_m_ct_stereo_status>  (212) 
1

>  <s_m_source_file>  (212) 
/var/tmp/pbs.5076255.sched01/tmpfes5ahby/80lk6pwr5_.sdf

>  <i_m_source_file_index>  (212) 
2

>  <i_lp_mmshare_version>  (212) 
48012

>  <i_f3d_flags>  (212) 
0

>  <s_epik_input>  (212) 
W0NIM11bQ0hdKFtDSDNdKVtDSDJdW0NIMl1bQ0gyXVtDQEhdKFtDSDNdKVtDQEhdKFtDSDJdW0NIMl0xKVtDQF0oW0NIM10pKFtDSDJdW0NAQEhdKFtDQEBIXTIzKVtPSF0pW0NASF0xW0NASF0yW0NIMl1bQ0gyXVtDQEhdKFtDQF0zNFtDSDNdKVtDQEBIXTVbQ0BASF0oW0NIMl1bQ0gyXTQpW0NIMl1bQ0BIXShbT0hdKVtDSDJdW0NIMl01

>  <s_epik_cmdline>  (212) 
J2VwaWtfcHl0aG9uJywgJy1waHQnLCAnMi4wJywgJy1waCcsICc3LjAnLCAnLXRuJywgJzgnLCAnLW1hJywgJzIwMCcsICctaW1hZScsICc8aW5maWxlLm1hZT4nLCAnLW9tYWUnLCAnPG91dGZpbGUubWFlPic=

>  <r_lp_tautomer_probability>  (212) 
1

>  <r_epik_Ionization_Penalty>  (212) 
5.19627e-06

>  <r_epik_Ionization_Penalty_Charging>  (212) 
0

>  <r_epik_Ionization_Penalty_Neutral>  (212) 
5.19627e-06

>  <r_epik_State_Penalty>  (212) 
-0

>  <r_epik_Charging_Adjusted_Penalty>  (212) 
0

>  <i_epik_Tot_Q>  (212) 
0

>  <i_epik_Tot_abs_Q>  (212) 
0

>  <s_lp_Force_Field>  (212) 
OPLS3e

>  <r_lp_Energy>  (212) 
66.828

>  <b_lp_Chiralities_Consistent>  (212) 
1

>  <s_lp_Variant>  (212) 
49:0-1

>  <s_i_glide_gridfile>  (212) 
pfpi4k_grid

>  <i_i_glide_lignum>  (212) 
2

>  <i_i_glide_rotatable_bonds>  (212) 
7

>  <r_i_docking_score>  (212) 
-2.14257

>  <r_i_glide_ligand_efficiency>  (212) 
-0.0649264

>  <r_i_glide_ligand_efficiency_sa>  (212) 
-0.208254

>  <r_i_glide_ligand_efficiency_ln>  (212) 
-0.476497

>  <r_i_glide_gscore>  (212) 
-2.14257

>  <r_i_glide_lipo>  (212) 
-0.304926

>  <r_i_glide_hbond>  (212) 
-0.16

>  <r_i_glide_metal>  (212) 
-0

>  <r_i_glide_rewards>  (212) 
-0.281187

>  <r_i_glide_evdw>  (212) 
-23.1949

>  <r_i_glide_ecoul>  (212) 
-4.12683

>  <r_i_glide_erotb>  (212) 
0.382311

>  <r_i_glide_esite>  (212) 
0

>  <r_i_glide_emodel>  (212) 
-28.9153

>  <r_i_glide_energy>  (212) 
-27.3217

>  <r_i_glide_einternal>  (212) 
3.85062

>  <r_i_glide_intrahb_reward>  (212) 
-0

>  <i_i_glide_confnum>  (212) 
6

>  <i_i_glide_posenum>  (212) 
1

>  <r_i_glide_eff_state_penalty>  (212) 
0

>  <ligand_id>  (212) 
49

>  <original_smiles>  (212) 
CC(C)CCCC(C)C1CCC2C3CCC4C5CCC(O)CC5CCC4(C)C3C(O)CC12C

>  <smiles>  (212) 
[H]OC1([H])C([H])([H])C([H])([H])C2([H])C([H])(C([H])([H])C([H])([H])C3(C([H])([H])[H])C2([H])C([H])([H])C([H])([H])C2([H])C4([H])C([H])([H])C([H])([H])C([H])(C([H])(C([H])([H])[H])C([H])([H])C([H])([H])C([H])([H])C([H])(C([H])([H])[H])C([H])([H])[H])C4(C([H])([H])[H])C([H])([H])C([H])(O[H])C23[H])C1([H])[H]

$$$$
49:0:1
     RDKit          3D

 87 91  0  0  1  0  0  0  0  0999 V2000
   -1.6036   -7.7873    3.9792 C   0  0  0  0  0  0  0  0  0  0  0  0
   -0.7165   -8.9564    3.5532 C   0  0  0  0  0  0  0  0  0  0  0  0
    0.1487   -9.4735    4.7246 C   0  0  0  0  0  0  0  0  0  0  0  0
    0.1032   -8.6354    2.2885 C   0  0  0  0  0  0  0  0  0  0  0  0
    1.1128   -7.4919    2.4697 C   0  0  0  0  0  0  0  0  0  0  0  0
    2.1420   -7.3735    1.3340 C   0  0  0  0  0  0  0  0  0  0  0  0
    3.4146   -6.5522    1.6716 C   0  0  2  0  0  0  0  0  0  0  0  0
    4.0462   -7.1212    2.9669 C   0  0  0  0  0  0  0  0  0  0  0  0
    3.1459   -5.0119    1.6400 C   0  0  2  0  0  0  0  0  0  0  0  0
    2.9594   -4.4522    0.2020 C   0  0  0  0  0  0  0  0  0  0  0  0
    3.4441   -2.9896    0.2217 C   0  0  0  0  0  0  0  0  0  0  0  0
    3.6650   -2.6968    1.7021 C   0  0  2  0  0  0  0  0  0  0  0  0
    4.5314   -1.4826    2.1273 C   0  0  1  0  0  0  0  0  0  0  0  0
    4.1906   -0.1890    1.3901 C   0  0  0  0  0  0  0  0  0  0  0  0
    2.9345    0.4606    1.9377 C   0  0  0  0  0  0  0  0  0  0  0  0
    3.1212    0.8719    3.4091 C   0  0  1  0  0  0  0  0  0  0  0  0
    1.9443    1.7576    3.9434 C   0  0  1  0  0  0  0  0  0  0  0  0
    1.5595    2.9439    3.0243 C   0  0  0  0  0  0  0  0  0  0  0  0
    0.4741    3.8296    3.6563 C   0  0  0  0  0  0  0  0  0  0  0  0
   -0.7718    3.0179    4.0351 C   0  0  1  0  0  0  0  0  0  0  0  0
   -1.4401    2.5740    2.8863 O   0  0  0  0  0  0  0  0  0  0  0  0
   -0.4045    1.8174    4.9247 C   0  0  0  0  0  0  0  0  0  0  0  0
    0.6879    0.9260    4.2967 C   0  0  2  0  0  0  0  0  0  0  0  0
    1.0557   -0.2272    5.2419 C   0  0  0  0  0  0  0  0  0  0  0  0
    2.1521   -1.1192    4.6511 C   0  0  0  0  0  0  0  0  0  0  0  0
    3.4682   -0.3577    4.3422 C   0  0  2  0  0  0  0  0  0  0  0  0
    4.0572    0.2103    5.6636 C   0  0  0  0  0  0  0  0  0  0  0  0
    4.5796   -1.2980    3.6847 C   0  0  1  0  0  0  0  0  0  0  0  0
    4.8530   -2.6926    4.3555 C   0  0  1  0  0  0  0  0  0  0  0  0
    4.8433   -2.7119    5.7515 O   0  0  0  0  0  0  0  0  0  0  0  0
    4.0382   -3.8850    3.8148 C   0  0  0  0  0  0  0  0  0  0  0  0
    4.1700   -4.0321    2.2852 C   0  0  1  0  0  0  0  0  0  0  0  0
    5.6311   -4.3491    1.8196 C   0  0  0  0  0  0  0  0  0  0  0  0
   -1.0230   -6.9049    4.2357 H   0  0  0  0  0  0  0  0  0  0  0  0
   -2.1824   -8.0639    4.8738 H   0  0  0  0  0  0  0  0  0  0  0  0
   -2.3072   -7.5230    3.1904 H   0  0  0  0  0  0  0  0  0  0  0  0
   -1.3795   -9.7746    3.2744 H   0  0  0  0  0  0  0  0  0  0  0  0
    0.8481   -8.7330    5.1094 H   0  0  0  0  0  0  0  0  0  0  0  0
    0.7151  -10.3582    4.4312 H   0  0  0  0  0  0  0  0  0  0  0  0
   -0.4711   -9.7552    5.5757 H   0  0  0  0  0  0  0  0  0  0  0  0
    0.6416   -9.5452    2.0264 H   0  0  0  0  0  0  0  0  0  0  0  0
   -0.5636   -8.4119    1.4540 H   0  0  0  0  0  0  0  0  0  0  0  0
    0.6087   -6.5343    2.6043 H   0  0  0  0  0  0  0  0  0  0  0  0
    1.6161   -7.6992    3.4044 H   0  0  0  0  0  0  0  0  0  0  0  0
    2.4685   -8.3660    1.0303 H   0  0  0  0  0  0  0  0  0  0  0  0
    1.6194   -6.9495    0.4839 H   0  0  0  0  0  0  0  0  0  0  0  0
    4.1326   -6.7606    0.8835 H   0  0  0  0  0  0  0  0  0  0  0  0
    3.4946   -6.8188    3.8556 H   0  0  0  0  0  0  0  0  0  0  0  0
    5.0928   -6.8112    3.1406 H   0  0  0  0  0  0  0  0  0  0  0  0
    4.0398   -8.2160    2.9425 H   0  0  0  0  0  0  0  0  0  0  0  0
    2.2091   -4.8383    2.1597 H   0  0  0  0  0  0  0  0  0  0  0  0
    3.5477   -5.0042   -0.5320 H   0  0  0  0  0  0  0  0  0  0  0  0
    1.9202   -4.5211   -0.1272 H   0  0  0  0  0  0  0  0  0  0  0  0
    4.3749   -2.8904   -0.3380 H   0  0  0  0  0  0  0  0  0  0  0  0
    2.7219   -2.3033   -0.2228 H   0  0  0  0  0  0  0  0  0  0  0  0
    2.6681   -2.5207    2.0892 H   0  0  0  0  0  0  0  0  0  0  0  0
    5.5484   -1.6891    1.7965 H   0  0  0  0  0  0  0  0  0  0  0  0
    5.0272    0.4987    1.4921 H   0  0  0  0  0  0  0  0  0  0  0  0
    4.0864   -0.3712    0.3243 H   0  0  0  0  0  0  0  0  0  0  0  0
    2.7449    1.3311    1.3128 H   0  0  0  0  0  0  0  0  0  0  0  0
    2.0826   -0.2059    1.8205 H   0  0  0  0  0  0  0  0  0  0  0  0
    3.9935    1.5224    3.4341 H   0  0  0  0  0  0  0  0  0  0  0  0
    2.2879    2.2321    4.8555 H   0  0  0  0  0  0  0  0  0  0  0  0
    2.4391    3.5515    2.8023 H   0  0  0  0  0  0  0  0  0  0  0  0
    1.1715    2.5771    2.0780 H   0  0  0  0  0  0  0  0  0  0  0  0
    0.8686    4.3168    4.5444 H   0  0  0  0  0  0  0  0  0  0  0  0
    0.1956    4.6297    2.9673 H   0  0  0  0  0  0  0  0  0  0  0  0
   -1.4614    3.6675    4.5755 H   0  0  0  0  0  0  0  0  0  0  0  0
   -1.0661    3.0449    2.1285 H   0  0  0  0  0  0  0  0  0  0  0  0
   -0.0510    2.1986    5.8818 H   0  0  0  0  0  0  0  0  0  0  0  0
   -1.3003    1.2270    5.1277 H   0  0  0  0  0  0  0  0  0  0  0  0
    0.2822    0.4974    3.3833 H   0  0  0  0  0  0  0  0  0  0  0  0
    1.3629    0.1641    6.2091 H   0  0  0  0  0  0  0  0  0  0  0  0
    0.1694   -0.8353    5.4147 H   0  0  0  0  0  0  0  0  0  0  0  0
    2.3299   -1.9405    5.3457 H   0  0  0  0  0  0  0  0  0  0  0  0
    1.7531   -1.5616    3.7461 H   0  0  0  0  0  0  0  0  0  0  0  0
    4.1009   -0.5262    6.4595 H   0  0  0  0  0  0  0  0  0  0  0  0
    3.4766    1.0233    6.0813 H   0  0  0  0  0  0  0  0  0  0  0  0
    5.0643    0.5991    5.5253 H   0  0  0  0  0  0  0  0  0  0  0  0
    5.5060   -0.7377    3.8460 H   0  0  0  0  0  0  0  0  0  0  0  0
    5.8824   -2.9346    4.1282 H   0  0  0  0  0  0  0  0  0  0  0  0
    3.9412   -2.5213    6.0478 H   0  0  0  0  0  0  0  0  0  0  0  0
    4.3830   -4.7867    4.3152 H   0  0  0  0  0  0  0  0  0  0  0  0
    2.9900   -3.7771    4.0852 H   0  0  0  0  0  0  0  0  0  0  0  0
    6.3485   -3.5674    2.0577 H   0  0  0  0  0  0  0  0  0  0  0  0
    5.6995   -4.4920    0.7403 H   0  0  0  0  0  0  0  0  0  0  0  0
    6.0503   -5.2580    2.2791 H   0  0  0  0  0  0  0  0  0  0  0  0
  1  2  1  0
  1 34  1  0
  1 35  1  0
  1 36  1  0
  2  3  1  0
  2  4  1  0
  2 37  1  0
  3 38  1  0
  3 39  1  0
  3 40  1  0
  4  5  1  0
  4 41  1  0
  4 42  1  0
  5  6  1  0
  5 43  1  0
  5 44  1  0
  6  7  1  0
  6 45  1  0
  6 46  1  0
  7  8  1  0
  7  9  1  0
  7 47  1  6
  8 48  1  0
  8 49  1  0
  8 50  1  0
  9 32  1  0
  9 10  1  0
  9 51  1  1
 10 11  1  0
 10 52  1  0
 10 53  1  0
 11 12  1  0
 11 54  1  0
 11 55  1  0
 12 32  1  0
 12 13  1  0
 12 56  1  1
 13 28  1  0
 13 14  1  0
 13 57  1  6
 14 15  1  0
 14 58  1  0
 14 59  1  0
 15 16  1  0
 15 60  1  0
 15 61  1  0
 16 26  1  0
 16 17  1  0
 16 62  1  6
 17 23  1  0
 17 18  1  0
 17 63  1  1
 18 19  1  0
 18 64  1  0
 18 65  1  0
 19 20  1  0
 19 66  1  0
 19 67  1  0
 20 21  1  0
 20 22  1  0
 20 68  1  1
 21 69  1  0
 22 23  1  0
 22 70  1  0
 22 71  1  0
 23 24  1  0
 23 72  1  6
 24 25  1  0
 24 73  1  0
 24 74  1  0
 25 26  1  0
 25 75  1  0
 25 76  1  0
 26 27  1  1
 26 28  1  0
 27 77  1  0
 27 78  1  0
 27 79  1  0
 28 29  1  0
 28 80  1  6
 29 30  1  0
 29 31  1  0
 29 81  1  6
 30 82  1  0
 31 32  1  0
 31 83  1  0
 31 84  1  0
 32 33  1  1
 33 85  1  0
 33 86  1  0
 33 87  1  0
M  END
>  <i_m_ct_stereo_status>  (213) 
1

>  <s_m_source_file>  (213) 
/var/tmp/pbs.5076255.sched01/tmpfes5ahby/80lk6pwr5_.sdf

>  <i_m_source_file_index>  (213) 
2

>  <i_lp_mmshare_version>  (213) 
48012

>  <i_f3d_flags>  (213) 
0

>  <s_epik_input>  (213) 
W0NIM11bQ0hdKFtDSDNdKVtDSDJdW0NIMl1bQ0gyXVtDQEhdKFtDSDNdKVtDQEhdKFtDSDJdW0NIMl0xKVtDQF0oW0NIM10pKFtDSDJdW0NAQEhdKFtDQEBIXTIzKVtPSF0pW0NASF0xW0NASF0yW0NIMl1bQ0gyXVtDQEhdKFtDQF0zNFtDSDNdKVtDQEBIXTVbQ0BASF0oW0NIMl1bQ0gyXTQpW0NIMl1bQ0BIXShbT0hdKVtDSDJdW0NIMl01

>  <s_epik_cmdline>  (213) 
J2VwaWtfcHl0aG9uJywgJy1waHQnLCAnMi4wJywgJy1waCcsICc3LjAnLCAnLXRuJywgJzgnLCAnLW1hJywgJzIwMCcsICctaW1hZScsICc8aW5maWxlLm1hZT4nLCAnLW9tYWUnLCAnPG91dGZpbGUubWFlPic=

>  <r_lp_tautomer_probability>  (213) 
1

>  <r_epik_Ionization_Penalty>  (213) 
5.19627e-06

>  <r_epik_Ionization_Penalty_Charging>  (213) 
0

>  <r_epik_Ionization_Penalty_Neutral>  (213) 
5.19627e-06

>  <r_epik_State_Penalty>  (213) 
-0

>  <r_epik_Charging_Adjusted_Penalty>  (213) 
0

>  <i_epik_Tot_Q>  (213) 
0

>  <i_epik_Tot_abs_Q>  (213) 
0

>  <s_lp_Force_Field>  (213) 
OPLS3e

>  <r_lp_Energy>  (213) 
66.828

>  <b_lp_Chiralities_Consistent>  (213) 
1

>  <s_lp_Variant>  (213) 
49:0-1

>  <s_i_glide_gridfile>  (213) 
pfpi4k_grid

>  <i_i_glide_lignum>  (213) 
2

>  <i_i_glide_rotatable_bonds>  (213) 
7

>  <r_i_docking_score>  (213) 
-1.65528

>  <r_i_glide_ligand_efficiency>  (213) 
-0.0501601

>  <r_i_glide_ligand_efficiency_sa>  (213) 
-0.16089

>  <r_i_glide_ligand_efficiency_ln>  (213) 
-0.368126

>  <r_i_glide_gscore>  (213) 
-1.65528

>  <r_i_glide_lipo>  (213) 
-0.356404

>  <r_i_glide_hbond>  (213) 
-0.0954398

>  <r_i_glide_metal>  (213) 
-0

>  <r_i_glide_rewards>  (213) 
-0.281187

>  <r_i_glide_evdw>  (213) 
-23.2454

>  <r_i_glide_ecoul>  (213) 
-0.94861

>  <r_i_glide_erotb>  (213) 
0.382311

>  <r_i_glide_esite>  (213) 
0

>  <r_i_glide_emodel>  (213) 
-23.8151

>  <r_i_glide_energy>  (213) 
-24.194

>  <r_i_glide_einternal>  (213) 
5.43778

>  <r_i_glide_intrahb_reward>  (213) 
-0

>  <i_i_glide_confnum>  (213) 
6

>  <i_i_glide_posenum>  (213) 
2

>  <r_i_glide_eff_state_penalty>  (213) 
0

>  <ligand_id>  (213) 
49

>  <original_smiles>  (213) 
CC(C)CCCC(C)C1CCC2C3CCC4C5CCC(O)CC5CCC4(C)C3C(O)CC12C

>  <smiles>  (213) 
[H]OC1([H])C([H])([H])C([H])([H])C2([H])C([H])(C([H])([H])C([H])([H])C3(C([H])([H])[H])C2([H])C([H])([H])C([H])([H])C2([H])C4([H])C([H])([H])C([H])([H])C([H])(C([H])(C([H])([H])[H])C([H])([H])C([H])([H])C([H])([H])C([H])(C([H])([H])[H])C([H])([H])[H])C4(C([H])([H])[H])C([H])([H])C([H])(O[H])C23[H])C1([H])[H]

$$$$
49:0:2
     RDKit          3D

 87 91  0  0  1  0  0  0  0  0999 V2000
   -1.5250   -7.1614    3.4910 C   0  0  0  0  0  0  0  0  0  0  0  0
   -0.7455   -8.4769    3.6488 C   0  0  0  0  0  0  0  0  0  0  0  0
   -0.4715   -8.7470    5.1318 C   0  0  0  0  0  0  0  0  0  0  0  0
    0.5768   -8.4044    2.8687 C   0  0  0  0  0  0  0  0  0  0  0  0
    1.4114   -9.7036    2.8522 C   0  0  0  0  0  0  0  0  0  0  0  0
    2.7290   -9.6088    2.0608 C   0  0  0  0  0  0  0  0  0  0  0  0
    3.8429   -8.7042    2.6640 C   0  0  2  0  0  0  0  0  0  0  0  0
    4.0676   -9.0287    4.1525 C   0  0  0  0  0  0  0  0  0  0  0  0
    3.6121   -7.1794    2.3826 C   0  0  2  0  0  0  0  0  0  0  0  0
    3.3740   -6.8716    0.8832 C   0  0  0  0  0  0  0  0  0  0  0  0
    3.8639   -5.4481    0.6111 C   0  0  0  0  0  0  0  0  0  0  0  0
    4.1638   -4.9133    2.0102 C   0  0  2  0  0  0  0  0  0  0  0  0
    5.0521   -3.6587    2.1652 C   0  0  1  0  0  0  0  0  0  0  0  0
    4.6817   -2.5091    1.2263 C   0  0  0  0  0  0  0  0  0  0  0  0
    3.4507   -1.7548    1.7082 C   0  0  0  0  0  0  0  0  0  0  0  0
    3.7266   -1.0772    3.0656 C   0  0  1  0  0  0  0  0  0  0  0  0
    2.5841   -0.0899    3.4910 C   0  0  1  0  0  0  0  0  0  0  0  0
    2.1557    0.9091    2.3881 C   0  0  0  0  0  0  0  0  0  0  0  0
    1.1110    1.9123    2.8981 C   0  0  0  0  0  0  0  0  0  0  0  0
   -0.1193    1.2139    3.4950 C   0  0  1  0  0  0  0  0  0  0  0  0
   -0.8509    0.5664    2.4818 O   0  0  0  0  0  0  0  0  0  0  0  0
    0.2927    0.1916    4.5663 C   0  0  0  0  0  0  0  0  0  0  0  0
    1.3401   -0.8229    4.0532 C   0  0  2  0  0  0  0  0  0  0  0  0
    1.7472   -1.7906    5.1751 C   0  0  0  0  0  0  0  0  0  0  0  0
    2.8005   -2.7971    4.6966 C   0  0  0  0  0  0  0  0  0  0  0  0
    4.1051   -2.1269    4.1860 C   0  0  2  0  0  0  0  0  0  0  0  0
    4.7748   -1.3400    5.3554 C   0  0  0  0  0  0  0  0  0  0  0  0
    5.1631   -3.1997    3.6612 C   0  0  1  0  0  0  0  0  0  0  0  0
    5.4911   -4.4502    4.5606 C   0  0  1  0  0  0  0  0  0  0  0  0
    5.5317   -4.2100    5.9491 O   0  0  0  0  0  0  0  0  0  0  0  0
    4.6245   -5.7033    4.2926 C   0  0  0  0  0  0  0  0  0  0  0  0
    4.6793   -6.1330    2.8060 C   0  0  1  0  0  0  0  0  0  0  0  0
    6.0970   -6.6130    2.3906 C   0  0  0  0  0  0  0  0  0  0  0  0
   -0.9355   -6.3085    3.8302 H   0  0  0  0  0  0  0  0  0  0  0  0
   -2.4441   -7.1734    4.0762 H   0  0  0  0  0  0  0  0  0  0  0  0
   -1.7941   -6.9919    2.4491 H   0  0  0  0  0  0  0  0  0  0  0  0
   -1.3604   -9.2862    3.2486 H   0  0  0  0  0  0  0  0  0  0  0  0
    0.1350   -7.9640    5.5838 H   0  0  0  0  0  0  0  0  0  0  0  0
    0.0352   -9.6942    5.2958 H   0  0  0  0  0  0  0  0  0  0  0  0
   -1.4015   -8.8164    5.6769 H   0  0  0  0  0  0  0  0  0  0  0  0
    0.3787   -8.0923    1.8430 H   0  0  0  0  0  0  0  0  0  0  0  0
    1.1340   -7.5986    3.3364 H   0  0  0  0  0  0  0  0  0  0  0  0
    1.6301  -10.0303    3.8629 H   0  0  0  0  0  0  0  0  0  0  0  0
    0.8045  -10.5038    2.4304 H   0  0  0  0  0  0  0  0  0  0  0  0
    3.1364  -10.6156    2.0054 H   0  0  0  0  0  0  0  0  0  0  0  0
    2.5102   -9.3547    1.0238 H   0  0  0  0  0  0  0  0  0  0  0  0
    4.7565   -9.0032    2.1479 H   0  0  0  0  0  0  0  0  0  0  0  0
    3.2557   -8.6505    4.7698 H   0  0  0  0  0  0  0  0  0  0  0  0
    4.9989   -8.6200    4.5387 H   0  0  0  0  0  0  0  0  0  0  0  0
    4.1227  -10.1045    4.3035 H   0  0  0  0  0  0  0  0  0  0  0  0
    2.7243   -6.8643    2.9202 H   0  0  0  0  0  0  0  0  0  0  0  0
    3.9082   -7.5600    0.2312 H   0  0  0  0  0  0  0  0  0  0  0  0
    2.3113   -6.9616    0.6799 H   0  0  0  0  0  0  0  0  0  0  0  0
    4.7584   -5.4651   -0.0127 H   0  0  0  0  0  0  0  0  0  0  0  0
    3.1063   -4.8548    0.0987 H   0  0  0  0  0  0  0  0  0  0  0  0
    3.1893   -4.6471    2.4115 H   0  0  0  0  0  0  0  0  0  0  0  0
    6.0481   -3.9544    1.8397 H   0  0  0  0  0  0  0  0  0  0  0  0
    5.5234   -1.8172    1.1680 H   0  0  0  0  0  0  0  0  0  0  0  0
    4.5182   -2.8775    0.2137 H   0  0  0  0  0  0  0  0  0  0  0  0
    3.2277   -1.0125    0.9420 H   0  0  0  0  0  0  0  0  0  0  0  0
    2.5857   -2.4136    1.7666 H   0  0  0  0  0  0  0  0  0  0  0  0
    4.6076   -0.4532    2.9099 H   0  0  0  0  0  0  0  0  0  0  0  0
    2.9788    0.5372    4.2860 H   0  0  0  0  0  0  0  0  0  0  0  0
    3.0262    1.4541    2.0176 H   0  0  0  0  0  0  0  0  0  0  0  0
    1.7170    0.3864    1.5384 H   0  0  0  0  0  0  0  0  0  0  0  0
    1.5590    2.5599    3.6511 H   0  0  0  0  0  0  0  0  0  0  0  0
    0.7997    2.5586    2.0794 H   0  0  0  0  0  0  0  0  0  0  0  0
   -0.7715    1.9666    3.9389 H   0  0  0  0  0  0  0  0  0  0  0  0
   -0.9510    1.1757    1.7525 H   0  0  0  0  0  0  0  0  0  0  0  0
    0.7024    0.7330    5.4202 H   0  0  0  0  0  0  0  0  0  0  0  0
   -0.5915   -0.3357    4.9284 H   0  0  0  0  0  0  0  0  0  0  0  0
    0.8839   -1.4032    3.2504 H   0  0  0  0  0  0  0  0  0  0  0  0
    2.1157   -1.2347    6.0386 H   0  0  0  0  0  0  0  0  0  0  0  0
    0.8662   -2.3366    5.5118 H   0  0  0  0  0  0  0  0  0  0  0  0
    3.0099   -3.4806    5.5200 H   0  0  0  0  0  0  0  0  0  0  0  0
    2.3494   -3.3937    3.9100 H   0  0  0  0  0  0  0  0  0  0  0  0
    4.8537   -1.9222    6.2703 H   0  0  0  0  0  0  0  0  0  0  0  0
    4.2251   -0.4508    5.6468 H   0  0  0  0  0  0  0  0  0  0  0  0
    5.7788   -1.0027    5.0959 H   0  0  0  0  0  0  0  0  0  0  0  0
    6.0835   -2.6221    3.6402 H   0  0  0  0  0  0  0  0  0  0  0  0
    6.5129   -4.7444    4.3408 H   0  0  0  0  0  0  0  0  0  0  0  0
    4.6541   -4.0052    6.2399 H   0  0  0  0  0  0  0  0  0  0  0  0
    4.9647   -6.5083    4.9393 H   0  0  0  0  0  0  0  0  0  0  0  0
    3.5915   -5.5160    4.5809 H   0  0  0  0  0  0  0  0  0  0  0  0
    6.8718   -5.8563    2.4906 H   0  0  0  0  0  0  0  0  0  0  0  0
    6.1245   -6.9496    1.3563 H   0  0  0  0  0  0  0  0  0  0  0  0
    6.4123   -7.4533    3.0044 H   0  0  0  0  0  0  0  0  0  0  0  0
  1  2  1  0
  1 34  1  0
  1 35  1  0
  1 36  1  0
  2  3  1  0
  2  4  1  0
  2 37  1  0
  3 38  1  0
  3 39  1  0
  3 40  1  0
  4  5  1  0
  4 41  1  0
  4 42  1  0
  5  6  1  0
  5 43  1  0
  5 44  1  0
  6  7  1  0
  6 45  1  0
  6 46  1  0
  7  8  1  0
  7  9  1  0
  7 47  1  6
  8 48  1  0
  8 49  1  0
  8 50  1  0
  9 32  1  0
  9 10  1  0
  9 51  1  1
 10 11  1  0
 10 52  1  0
 10 53  1  0
 11 12  1  0
 11 54  1  0
 11 55  1  0
 12 32  1  0
 12 13  1  0
 12 56  1  1
 13 28  1  0
 13 14  1  0
 13 57  1  6
 14 15  1  0
 14 58  1  0
 14 59  1  0
 15 16  1  0
 15 60  1  0
 15 61  1  0
 16 26  1  0
 16 17  1  0
 16 62  1  6
 17 23  1  0
 17 18  1  0
 17 63  1  1
 18 19  1  0
 18 64  1  0
 18 65  1  0
 19 20  1  0
 19 66  1  0
 19 67  1  0
 20 21  1  0
 20 22  1  0
 20 68  1  1
 21 69  1  0
 22 23  1  0
 22 70  1  0
 22 71  1  0
 23 24  1  0
 23 72  1  6
 24 25  1  0
 24 73  1  0
 24 74  1  0
 25 26  1  0
 25 75  1  0
 25 76  1  0
 26 27  1  1
 26 28  1  0
 27 77  1  0
 27 78  1  0
 27 79  1  0
 28 29  1  0
 28 80  1  6
 29 30  1  0
 29 31  1  0
 29 81  1  6
 30 82  1  0
 31 32  1  0
 31 83  1  0
 31 84  1  0
 32 33  1  6
 33 85  1  0
 33 86  1  0
 33 87  1  0
M  END
>  <i_m_ct_stereo_status>  (214) 
1

>  <s_m_source_file>  (214) 
/var/tmp/pbs.5076255.sched01/tmpfes5ahby/80lk6pwr5_.sdf

>  <i_m_source_file_index>  (214) 
2

>  <i_lp_mmshare_version>  (214) 
48012

>  <i_f3d_flags>  (214) 
0

>  <s_epik_input>  (214) 
W0NIM11bQ0hdKFtDSDNdKVtDSDJdW0NIMl1bQ0gyXVtDQEhdKFtDSDNdKVtDQEhdKFtDSDJdW0NIMl0xKVtDQF0oW0NIM10pKFtDSDJdW0NAQEhdKFtDQEBIXTIzKVtPSF0pW0NASF0xW0NASF0yW0NIMl1bQ0gyXVtDQEhdKFtDQF0zNFtDSDNdKVtDQEBIXTVbQ0BASF0oW0NIMl1bQ0gyXTQpW0NIMl1bQ0BIXShbT0hdKVtDSDJdW0NIMl01

>  <s_epik_cmdline>  (214) 
J2VwaWtfcHl0aG9uJywgJy1waHQnLCAnMi4wJywgJy1waCcsICc3LjAnLCAnLXRuJywgJzgnLCAnLW1hJywgJzIwMCcsICctaW1hZScsICc8aW5maWxlLm1hZT4nLCAnLW9tYWUnLCAnPG91dGZpbGUubWFlPic=

>  <r_lp_tautomer_probability>  (214) 
1

>  <r_epik_Ionization_Penalty>  (214) 
5.19627e-06

>  <r_epik_Ionization_Penalty_Charging>  (214) 
0

>  <r_epik_Ionization_Penalty_Neutral>  (214) 
5.19627e-06

>  <r_epik_State_Penalty>  (214) 
-0

>  <r_epik_Charging_Adjusted_Penalty>  (214) 
0

>  <i_epik_Tot_Q>  (214) 
0

>  <i_epik_Tot_abs_Q>  (214) 
0

>  <s_lp_Force_Field>  (214) 
OPLS3e

>  <r_lp_Energy>  (214) 
66.828

>  <b_lp_Chiralities_Consistent>  (214) 
1

>  <s_lp_Variant>  (214) 
49:0-1

>  <s_i_glide_gridfile>  (214) 
pfpi4k_grid

>  <i_i_glide_lignum>  (214) 
2

>  <i_i_glide_rotatable_bonds>  (214) 
7

>  <r_i_docking_score>  (214) 
-1.18102

>  <r_i_glide_ligand_efficiency>  (214) 
-0.0357885

>  <r_i_glide_ligand_efficiency_sa>  (214) 
-0.114793

>  <r_i_glide_ligand_efficiency_ln>  (214) 
-0.262653

>  <r_i_glide_gscore>  (214) 
-1.18102

>  <r_i_glide_lipo>  (214) 
-0.290979

>  <r_i_glide_hbond>  (214) 
-0.000176597

>  <r_i_glide_metal>  (214) 
-0

>  <r_i_glide_rewards>  (214) 
-0.281187

>  <r_i_glide_evdw>  (214) 
-20.7474

>  <r_i_glide_ecoul>  (214) 
0.3092

>  <r_i_glide_erotb>  (214) 
0.382311

>  <r_i_glide_esite>  (214) 
0

>  <r_i_glide_emodel>  (214) 
-20.2344

>  <r_i_glide_energy>  (214) 
-20.4382

>  <r_i_glide_einternal>  (214) 
2.9934

>  <r_i_glide_intrahb_reward>  (214) 
-0

>  <i_i_glide_confnum>  (214) 
6

>  <i_i_glide_posenum>  (214) 
11

>  <r_i_glide_eff_state_penalty>  (214) 
0

>  <ligand_id>  (214) 
49

>  <original_smiles>  (214) 
CC(C)CCCC(C)C1CCC2C3CCC4C5CCC(O)CC5CCC4(C)C3C(O)CC12C

>  <smiles>  (214) 
[H]OC1([H])C([H])([H])C([H])([H])C2([H])C([H])(C([H])([H])C([H])([H])C3(C([H])([H])[H])C2([H])C([H])([H])C([H])([H])C2([H])C4([H])C([H])([H])C([H])([H])C([H])(C([H])(C([H])([H])[H])C([H])([H])C([H])([H])C([H])([H])C([H])(C([H])([H])[H])C([H])([H])[H])C4(C([H])([H])[H])C([H])([H])C([H])(O[H])C23[H])C1([H])[H]

$$$$
50:0:0
     RDKit          3D

 49 53  0  0  1  0  0  0  0  0999 V2000
   -0.0837    1.1167    1.5010 C   0  0  0  0  0  0  0  0  0  0  0  0
    0.2991    2.1424    2.4769 N   0  0  2  0  0  0  0  0  0  0  0  0
    1.6165    2.0037    3.1083 C   0  0  2  0  0  0  0  0  0  0  0  0
    1.4503    0.7685    4.0198 C   0  0  0  0  0  0  0  0  0  0  0  0
   -0.0223    0.8849    4.4553 C   0  0  0  0  0  0  0  0  0  0  0  0
   -0.4698    2.1827    3.7346 C   0  0  1  0  0  0  0  0  0  0  0  0
    0.1706    3.4100    4.4015 C   0  0  1  0  0  0  0  0  0  0  0  0
   -0.0418    3.3760    5.8050 O   0  0  0  0  0  0  0  0  0  0  0  0
   -0.3680    4.4841    6.4736 C   0  0  0  0  0  0  0  0  0  0  0  0
   -0.3807    5.6222    6.0084 O   0  0  0  0  0  0  0  0  0  0  0  0
   -0.8110    4.1769    7.9165 C   0  0  1  0  0  0  0  0  0  0  0  0
   -2.0158    3.1885    7.8868 C   0  0  0  0  0  0  0  0  0  0  0  0
   -2.4637    2.8486    9.3138 C   0  0  2  0  0  0  0  0  0  0  0  0
   -2.9085    4.1382   10.0397 C   0  0  0  0  0  0  0  0  0  0  0  0
   -1.7227    5.1246   10.0930 C   0  0  1  0  0  0  0  0  0  0  0  0
   -0.5525    4.4822   10.8661 C   0  0  0  0  0  0  0  0  0  0  0  0
   -0.1143    3.1883   10.1493 C   0  0  1  0  0  0  0  0  0  0  0  0
   -1.2935    2.1948   10.0833 C   0  0  0  0  0  0  0  0  0  0  0  0
    0.3517    3.5260    8.7145 C   0  0  0  0  0  0  0  0  0  0  0  0
   -1.2608    5.4666    8.6605 C   0  0  0  0  0  0  0  0  0  0  0  0
    1.6531    3.2641    3.9885 C   0  0  0  0  0  0  0  0  0  0  0  0
   -0.0553    0.0824    1.8623 H   0  0  0  0  0  0  0  0  0  0  0  0
    0.5734    1.1451    0.6316 H   0  0  0  0  0  0  0  0  0  0  0  0
   -1.1081    1.3121    1.1940 H   0  0  0  0  0  0  0  0  0  0  0  0
    2.4481    1.9352    2.4027 H   0  0  0  0  0  0  0  0  0  0  0  0
    1.6170   -0.1581    3.4692 H   0  0  0  0  0  0  0  0  0  0  0  0
    2.1453    0.7722    4.8677 H   0  0  0  0  0  0  0  0  0  0  0  0
   -0.6009    0.0213    4.1191 H   0  0  0  0  0  0  0  0  0  0  0  0
   -0.1353    0.9221    5.5452 H   0  0  0  0  0  0  0  0  0  0  0  0
   -1.5517    2.2646    3.5976 H   0  0  0  0  0  0  0  0  0  0  0  0
   -0.2521    4.3071    3.9364 H   0  0  0  0  0  0  0  0  0  0  0  0
   -2.8475    3.6266    7.3277 H   0  0  0  0  0  0  0  0  0  0  0  0
   -1.7573    2.2634    7.3619 H   0  0  0  0  0  0  0  0  0  0  0  0
   -3.3073    2.1518    9.2894 H   0  0  0  0  0  0  0  0  0  0  0  0
   -3.7483    4.5839    9.5053 H   0  0  0  0  0  0  0  0  0  0  0  0
   -3.2626    3.9032   11.0477 H   0  0  0  0  0  0  0  0  0  0  0  0
   -2.0414    6.0340   10.6080 H   0  0  0  0  0  0  0  0  0  0  0  0
    0.2817    5.1788   10.9205 H   0  0  0  0  0  0  0  0  0  0  0  0
   -0.8513    4.2697   11.8968 H   0  0  0  0  0  0  0  0  0  0  0  0
    0.7054    2.7317   10.7028 H   0  0  0  0  0  0  0  0  0  0  0  0
   -1.6079    1.9001   11.0889 H   0  0  0  0  0  0  0  0  0  0  0  0
   -0.9834    1.2825    9.5742 H   0  0  0  0  0  0  0  0  0  0  0  0
    0.7004    2.6158    8.2336 H   0  0  0  0  0  0  0  0  0  0  0  0
    1.2068    4.1968    8.7612 H   0  0  0  0  0  0  0  0  0  0  0  0
   -0.4428    6.1821    8.7027 H   0  0  0  0  0  0  0  0  0  0  0  0
   -2.0730    5.9624    8.1280 H   0  0  0  0  0  0  0  0  0  0  0  0
    2.3370    3.1646    4.8351 H   0  0  0  0  0  0  0  0  0  0  0  0
    1.9594    4.1339    3.4030 H   0  0  0  0  0  0  0  0  0  0  0  0
    0.2541    3.0606    2.0181 H   0  0  0  0  0  0  0  0  0  0  0  0
  1  2  1  0
  1 22  1  0
  1 23  1  0
  1 24  1  0
  2  6  1  0
  2  3  1  0
  2 49  1  6
  3 21  1  0
  3  4  1  0
  3 25  1  6
  4  5  1  0
  4 26  1  0
  4 27  1  0
  5  6  1  0
  5 28  1  0
  5 29  1  0
  6  7  1  0
  6 30  1  6
  7  8  1  0
  7 21  1  0
  7 31  1  6
  8  9  1  0
  9 10  2  0
 11  9  1  6
 11 19  1  0
 11 20  1  0
 11 12  1  0
 12 13  1  0
 12 32  1  0
 12 33  1  0
 13 18  1  0
 13 14  1  0
 13 34  1  6
 14 15  1  0
 14 35  1  0
 14 36  1  0
 15 16  1  0
 15 20  1  0
 15 37  1  1
 16 17  1  0
 16 38  1  0
 16 39  1  0
 17 18  1  0
 17 19  1  0
 17 40  1  1
 18 41  1  0
 18 42  1  0
 19 43  1  0
 19 44  1  0
 20 45  1  0
 20 46  1  0
 21 47  1  0
 21 48  1  0
M  CHG  1   2   1
M  END
>  <i_m_ct_stereo_status>  (215) 
1

>  <s_m_source_file>  (215) 
/var/tmp/pbs.5076255.sched01/tmpfes5ahby/80lk6pwr5_.sdf

>  <i_m_source_file_index>  (215) 
3

>  <i_lp_mmshare_version>  (215) 
48012

>  <i_f3d_flags>  (215) 
0

>  <s_epik_input>  (215) 
W0NIM11OKFtDQEhdMTIpW0NAQEhdKFtDSDJdW0NIMl0xKVtDQEhdKFtDSDJdMilPQyg9TylDMzRbQ0gyXVtDQEhdNVtDSDJdW0NAQEhdKFtDSDJdNClbQ0gyXVtDQEhdKFtDSDJdNSlbQ0gyXTM=

>  <s_epik_cmdline>  (215) 
J2VwaWtfcHl0aG9uJywgJy1waHQnLCAnMi4wJywgJy1waCcsICc3LjAnLCAnLXRuJywgJzgnLCAnLW1hJywgJzIwMCcsICctaW1hZScsICc8aW5maWxlLm1hZT4nLCAnLW9tYWUnLCAnPG91dGZpbGUubWFlPic=

>  <r_epik_Ionization_Penalty>  (215) 
0.00387452

>  <r_epik_Ionization_Penalty_Charging>  (215) 
0.00387452

>  <r_epik_Ionization_Penalty_Neutral>  (215) 
0

>  <r_epik_State_Penalty>  (215) 
0.00276812

>  <r_epik_Charging_Adjusted_Penalty>  (215) 
0.00664263

>  <i_epik_Tot_Q>  (215) 
1

>  <i_epik_Tot_abs_Q>  (215) 
1

>  <s_epik_Chemistry_Notes>  (215) 
This compound has an ester and may undergo hydrolysis at high or low pH.

>  <s_lp_Force_Field>  (215) 
OPLS3e

>  <r_lp_Energy>  (215) 
34.3403

>  <b_lp_Chiralities_Consistent>  (215) 
1

>  <s_lp_Variant>  (215) 
50:0-1

>  <s_i_glide_gridfile>  (215) 
pfpi4k_grid

>  <i_i_glide_lignum>  (215) 
3

>  <i_i_glide_rotatable_bonds>  (215) 
3

>  <r_i_docking_score>  (215) 
-2.62637

>  <r_i_glide_ligand_efficiency>  (215) 
-0.125065

>  <r_i_glide_ligand_efficiency_sa>  (215) 
-0.345045

>  <r_i_glide_ligand_efficiency_ln>  (215) 
-0.649364

>  <r_i_glide_gscore>  (215) 
-2.62637

>  <r_i_glide_lipo>  (215) 
-0.0236222

>  <r_i_glide_hbond>  (215) 
-0.2

>  <r_i_glide_metal>  (215) 
-0

>  <r_i_glide_rewards>  (215) 
-1.42895

>  <r_i_glide_evdw>  (215) 
-12.4129

>  <r_i_glide_ecoul>  (215) 
-5.97036

>  <r_i_glide_erotb>  (215) 
0.648228

>  <r_i_glide_esite>  (215) 
-0.105819

>  <r_i_glide_emodel>  (215) 
-22.5797

>  <r_i_glide_energy>  (215) 
-18.3833

>  <r_i_glide_einternal>  (215) 
1.10216

>  <r_i_glide_intrahb_reward>  (215) 
-0

>  <i_i_glide_confnum>  (215) 
2

>  <i_i_glide_posenum>  (215) 
7

>  <r_i_glide_eff_state_penalty>  (215) 
0

>  <ligand_id>  (215) 
50

>  <original_smiles>  (215) 
CN1C2CCC1C(OC(=O)C13CC4CC(CC(C4)C1)C3)C2

>  <smiles>  (215) 
[H]C1([H])C2([H])C([H])([H])C3([H])C([H])([H])C1([H])C([H])([H])C(C(=O)OC1([H])C([H])([H])C4([H])C([H])([H])C([H])([H])C1([H])[N+]4([H])C([H])([H])[H])(C2([H])[H])C3([H])[H]

$$$$
50:0:1
     RDKit          3D

 49 53  0  0  1  0  0  0  0  0999 V2000
    1.4648    0.8482    1.4187 C   0  0  0  0  0  0  0  0  0  0  0  0
    1.3337    1.9642    2.4003 N   0  0  2  0  0  0  0  0  0  0  0  0
    2.3818    2.0573    3.4180 C   0  0  2  0  0  0  0  0  0  0  0  0
    2.1111    0.8440    4.3337 C   0  0  0  0  0  0  0  0  0  0  0  0
    0.5723    0.7213    4.2618 C   0  0  0  0  0  0  0  0  0  0  0  0
    0.2038    1.9047    3.3291 C   0  0  1  0  0  0  0  0  0  0  0  0
    0.3950    3.2409    4.0809 C   0  0  1  0  0  0  0  0  0  0  0  0
   -0.2157    3.2049    5.3624 O   0  0  0  0  0  0  0  0  0  0  0  0
   -0.3835    4.3345    6.0422 C   0  0  0  0  0  0  0  0  0  0  0  0
   -0.1651    5.4638    5.5955 O   0  0  0  0  0  0  0  0  0  0  0  0
   -0.9086    4.1089    7.4652 C   0  0  1  0  0  0  0  0  0  0  0  0
   -0.9633    5.4544    8.2447 C   0  0  0  0  0  0  0  0  0  0  0  0
   -1.5177    5.2299    9.6691 C   0  0  2  0  0  0  0  0  0  0  0  0
   -0.5926    4.2587   10.4364 C   0  0  0  0  0  0  0  0  0  0  0  0
   -0.5374    2.9158    9.6802 C   0  0  1  0  0  0  0  0  0  0  0  0
   -1.9569    2.3256    9.6026 C   0  0  0  0  0  0  0  0  0  0  0  0
   -2.8814    3.2869    8.8354 C   0  0  1  0  0  0  0  0  0  0  0  0
   -2.9373    4.6344    9.5720 C   0  0  0  0  0  0  0  0  0  0  0  0
   -2.3316    3.4895    7.4114 C   0  0  0  0  0  0  0  0  0  0  0  0
    0.0120    3.1342    8.2512 C   0  0  0  0  0  0  0  0  0  0  0  0
    1.9439    3.3303    4.1646 C   0  0  0  0  0  0  0  0  0  0  0  0
    1.4903   -0.1573    1.8312 H   0  0  0  0  0  0  0  0  0  0  0  0
    2.3998    0.9439    0.8846 H   0  0  0  0  0  0  0  0  0  0  0  0
    0.6362    0.8820    0.7186 H   0  0  0  0  0  0  0  0  0  0  0  0
    3.4030    2.1125    3.0364 H   0  0  0  0  0  0  0  0  0  0  0  0
    2.5838   -0.0578    3.9400 H   0  0  0  0  0  0  0  0  0  0  0  0
    2.4771    0.9832    5.3545 H   0  0  0  0  0  0  0  0  0  0  0  0
    0.2779   -0.2309    3.8155 H   0  0  0  0  0  0  0  0  0  0  0  0
    0.1029    0.7594    5.2469 H   0  0  0  0  0  0  0  0  0  0  0  0
   -0.7732    1.8164    2.8466 H   0  0  0  0  0  0  0  0  0  0  0  0
    0.0078    4.0569    3.4635 H   0  0  0  0  0  0  0  0  0  0  0  0
    0.0333    5.8946    8.3065 H   0  0  0  0  0  0  0  0  0  0  0  0
   -1.5779    6.1986    7.7350 H   0  0  0  0  0  0  0  0  0  0  0  0
   -1.5608    6.1813   10.2042 H   0  0  0  0  0  0  0  0  0  0  0  0
    0.4100    4.6847   10.5160 H   0  0  0  0  0  0  0  0  0  0  0  0
   -0.9530    4.1113   11.4569 H   0  0  0  0  0  0  0  0  0  0  0  0
    0.1033    2.2261   10.2357 H   0  0  0  0  0  0  0  0  0  0  0  0
   -1.9118    1.3794    9.0736 H   0  0  0  0  0  0  0  0  0  0  0  0
   -2.3443    2.1347   10.6093 H   0  0  0  0  0  0  0  0  0  0  0  0
   -3.8887    2.8712    8.7932 H   0  0  0  0  0  0  0  0  0  0  0  0
   -3.3614    4.4906   10.5659 H   0  0  0  0  0  0  0  0  0  0  0  0
   -3.5864    5.3231    9.0300 H   0  0  0  0  0  0  0  0  0  0  0  0
   -2.9876    4.1350    6.8418 H   0  0  0  0  0  0  0  0  0  0  0  0
   -2.3304    2.5309    6.8911 H   0  0  0  0  0  0  0  0  0  0  0  0
    0.0661    2.1720    7.7458 H   0  0  0  0  0  0  0  0  0  0  0  0
    1.0329    3.5121    8.2976 H   0  0  0  0  0  0  0  0  0  0  0  0
    2.3279    3.3569    5.1901 H   0  0  0  0  0  0  0  0  0  0  0  0
    2.2986    4.2271    3.6521 H   0  0  0  0  0  0  0  0  0  0  0  0
    1.2598    2.8629    1.9339 H   0  0  0  0  0  0  0  0  0  0  0  0
  1  2  1  0
  1 22  1  0
  1 23  1  0
  1 24  1  0
  2  6  1  0
  2  3  1  0
  2 49  1  6
  3 21  1  0
  3  4  1  0
  3 25  1  6
  4  5  1  0
  4 26  1  0
  4 27  1  0
  5  6  1  0
  5 28  1  0
  5 29  1  0
  6  7  1  0
  6 30  1  6
  7  8  1  0
  7 21  1  0
  7 31  1  6
  8  9  1  0
  9 10  2  0
 11  9  1  6
 11 19  1  0
 11 20  1  0
 11 12  1  0
 12 13  1  0
 12 32  1  0
 12 33  1  0
 13 18  1  0
 13 14  1  0
 13 34  1  1
 14 15  1  0
 14 35  1  0
 14 36  1  0
 15 16  1  0
 15 20  1  0
 15 37  1  1
 16 17  1  0
 16 38  1  0
 16 39  1  0
 17 18  1  0
 17 19  1  0
 17 40  1  6
 18 41  1  0
 18 42  1  0
 19 43  1  0
 19 44  1  0
 20 45  1  0
 20 46  1  0
 21 47  1  0
 21 48  1  0
M  CHG  1   2   1
M  END
>  <i_m_ct_stereo_status>  (216) 
1

>  <s_m_source_file>  (216) 
/var/tmp/pbs.5076255.sched01/tmpfes5ahby/80lk6pwr5_.sdf

>  <i_m_source_file_index>  (216) 
3

>  <i_lp_mmshare_version>  (216) 
48012

>  <i_f3d_flags>  (216) 
0

>  <s_epik_input>  (216) 
W0NIM11OKFtDQEhdMTIpW0NAQEhdKFtDSDJdW0NIMl0xKVtDQEhdKFtDSDJdMilPQyg9TylDMzRbQ0gyXVtDQEhdNVtDSDJdW0NAQEhdKFtDSDJdNClbQ0gyXVtDQEhdKFtDSDJdNSlbQ0gyXTM=

>  <s_epik_cmdline>  (216) 
J2VwaWtfcHl0aG9uJywgJy1waHQnLCAnMi4wJywgJy1waCcsICc3LjAnLCAnLXRuJywgJzgnLCAnLW1hJywgJzIwMCcsICctaW1hZScsICc8aW5maWxlLm1hZT4nLCAnLW9tYWUnLCAnPG91dGZpbGUubWFlPic=

>  <r_epik_Ionization_Penalty>  (216) 
0.00387452

>  <r_epik_Ionization_Penalty_Charging>  (216) 
0.00387452

>  <r_epik_Ionization_Penalty_Neutral>  (216) 
0

>  <r_epik_State_Penalty>  (216) 
0.00276812

>  <r_epik_Charging_Adjusted_Penalty>  (216) 
0.00664263

>  <i_epik_Tot_Q>  (216) 
1

>  <i_epik_Tot_abs_Q>  (216) 
1

>  <s_epik_Chemistry_Notes>  (216) 
This compound has an ester and may undergo hydrolysis at high or low pH.

>  <s_lp_Force_Field>  (216) 
OPLS3e

>  <r_lp_Energy>  (216) 
34.3403

>  <b_lp_Chiralities_Consistent>  (216) 
1

>  <s_lp_Variant>  (216) 
50:0-1

>  <s_i_glide_gridfile>  (216) 
pfpi4k_grid

>  <i_i_glide_lignum>  (216) 
3

>  <i_i_glide_rotatable_bonds>  (216) 
3

>  <r_i_docking_score>  (216) 
-2.50017

>  <r_i_glide_ligand_efficiency>  (216) 
-0.119055

>  <r_i_glide_ligand_efficiency_sa>  (216) 
-0.328465

>  <r_i_glide_ligand_efficiency_ln>  (216) 
-0.618161

>  <r_i_glide_gscore>  (216) 
-2.50017

>  <r_i_glide_lipo>  (216) 
-0.178766

>  <r_i_glide_hbond>  (216) 
-0.111935

>  <r_i_glide_metal>  (216) 
-0

>  <r_i_glide_rewards>  (216) 
-1.42895

>  <r_i_glide_evdw>  (216) 
-13.4616

>  <r_i_glide_ecoul>  (216) 
-4.60441

>  <r_i_glide_erotb>  (216) 
0.648228

>  <r_i_glide_esite>  (216) 
-0.0649974

>  <r_i_glide_emodel>  (216) 
-22.3525

>  <r_i_glide_energy>  (216) 
-18.066

>  <r_i_glide_einternal>  (216) 
0.2998

>  <r_i_glide_intrahb_reward>  (216) 
-0

>  <i_i_glide_confnum>  (216) 
5

>  <i_i_glide_posenum>  (216) 
1

>  <r_i_glide_eff_state_penalty>  (216) 
0

>  <ligand_id>  (216) 
50

>  <original_smiles>  (216) 
CN1C2CCC1C(OC(=O)C13CC4CC(CC(C4)C1)C3)C2

>  <smiles>  (216) 
[H]C1([H])C2([H])C([H])([H])C3([H])C([H])([H])C1([H])C([H])([H])C(C(=O)OC1([H])C([H])([H])C4([H])C([H])([H])C([H])([H])C1([H])[N+]4([H])C([H])([H])[H])(C2([H])[H])C3([H])[H]

$$$$
50:0:2
     RDKit          3D

 49 53  0  0  1  0  0  0  0  0999 V2000
    1.6812    0.1178    1.5062 C   0  0  0  0  0  0  0  0  0  0  0  0
    0.8101    1.0512    2.2616 N   0  0  2  0  0  0  0  0  0  0  0  0
    1.3430    2.3933    2.5295 C   0  0  2  0  0  0  0  0  0  0  0  0
    2.4547    2.1415    3.5671 C   0  0  0  0  0  0  0  0  0  0  0  0
    1.8846    0.9564    4.3664 C   0  0  0  0  0  0  0  0  0  0  0  0
    0.5208    0.7217    3.6704 C   0  0  1  0  0  0  0  0  0  0  0  0
   -0.4528    1.8585    4.0350 C   0  0  1  0  0  0  0  0  0  0  0  0
   -0.4882    2.1074    5.4262 O   0  0  0  0  0  0  0  0  0  0  0  0
   -1.4038    2.9280    5.9543 C   0  0  0  0  0  0  0  0  0  0  0  0
   -2.2795    3.5243    5.3168 O   0  0  0  0  0  0  0  0  0  0  0  0
   -1.2412    3.0770    7.4829 C   0  0  1  0  0  0  0  0  0  0  0  0
   -1.1546    1.6633    8.1305 C   0  0  0  0  0  0  0  0  0  0  0  0
   -0.9743    1.8015    9.6441 C   0  0  2  0  0  0  0  0  0  0  0  0
   -2.1775    2.5624   10.2310 C   0  0  0  0  0  0  0  0  0  0  0  0
   -2.2644    3.9692    9.6226 C   0  0  1  0  0  0  0  0  0  0  0  0
   -0.9688    4.7433    9.9288 C   0  0  0  0  0  0  0  0  0  0  0  0
    0.2360    3.9878    9.3307 C   0  0  1  0  0  0  0  0  0  0  0  0
    0.3273    2.5743    9.9447 C   0  0  0  0  0  0  0  0  0  0  0  0
    0.0624    3.8646    7.8024 C   0  0  0  0  0  0  0  0  0  0  0  0
   -2.4467    3.8417    8.1017 C   0  0  0  0  0  0  0  0  0  0  0  0
    0.1463    3.0404    3.2478 C   0  0  0  0  0  0  0  0  0  0  0  0
    2.6738   -0.0551    1.9415 H   0  0  0  0  0  0  0  0  0  0  0  0
    1.8521    0.4957    0.4944 H   0  0  0  0  0  0  0  0  0  0  0  0
    1.2180   -0.8686    1.4250 H   0  0  0  0  0  0  0  0  0  0  0  0
    1.6766    2.9440    1.6490 H   0  0  0  0  0  0  0  0  0  0  0  0
    3.3879    1.8689    3.0790 H   0  0  0  0  0  0  0  0  0  0  0  0
    2.6545    3.0195    4.1847 H   0  0  0  0  0  0  0  0  0  0  0  0
    2.5275    0.0831    4.2748 H   0  0  0  0  0  0  0  0  0  0  0  0
    1.8078    1.1718    5.4341 H   0  0  0  0  0  0  0  0  0  0  0  0
    0.1024   -0.2741    3.8243 H   0  0  0  0  0  0  0  0  0  0  0  0
   -1.4532    1.6235    3.6623 H   0  0  0  0  0  0  0  0  0  0  0  0
   -2.0625    1.1102    7.9041 H   0  0  0  0  0  0  0  0  0  0  0  0
   -0.3247    1.0857    7.7293 H   0  0  0  0  0  0  0  0  0  0  0  0
   -0.9120    0.8201   10.1083 H   0  0  0  0  0  0  0  0  0  0  0  0
   -3.1128    2.0314   10.0581 H   0  0  0  0  0  0  0  0  0  0  0  0
   -2.0615    2.6453   11.3100 H   0  0  0  0  0  0  0  0  0  0  0  0
   -3.1100    4.4940   10.0612 H   0  0  0  0  0  0  0  0  0  0  0  0
   -1.0263    5.7467    9.5086 H   0  0  0  0  0  0  0  0  0  0  0  0
   -0.8493    4.8654   11.0092 H   0  0  0  0  0  0  0  0  0  0  0  0
    1.1505    4.5354    9.5541 H   0  0  0  0  0  0  0  0  0  0  0  0
    0.5019    2.6381   11.0257 H   0  0  0  0  0  0  0  0  0  0  0  0
    1.1818    2.0414    9.5273 H   0  0  0  0  0  0  0  0  0  0  0  0
    0.9342    3.3699    7.3789 H   0  0  0  0  0  0  0  0  0  0  0  0
    0.0296    4.8607    7.3621 H   0  0  0  0  0  0  0  0  0  0  0  0
   -2.5178    4.8390    7.6835 H   0  0  0  0  0  0  0  0  0  0  0  0
   -3.3868    3.3337    7.8787 H   0  0  0  0  0  0  0  0  0  0  0  0
    0.4480    3.8912    3.8626 H   0  0  0  0  0  0  0  0  0  0  0  0
   -0.6091    3.3807    2.5370 H   0  0  0  0  0  0  0  0  0  0  0  0
   -0.0687    1.1839    1.7664 H   0  0  0  0  0  0  0  0  0  0  0  0
  1  2  1  0
  1 22  1  0
  1 23  1  0
  1 24  1  0
  2  6  1  0
  2  3  1  0
  2 49  1  6
  3 21  1  0
  3  4  1  0
  3 25  1  6
  4  5  1  0
  4 26  1  0
  4 27  1  0
  5  6  1  0
  5 28  1  0
  5 29  1  0
  6  7  1  0
  6 30  1  6
  7  8  1  0
  7 21  1  0
  7 31  1  6
  8  9  1  0
  9 10  2  0
 11  9  1  6
 11 19  1  0
 11 20  1  0
 11 12  1  0
 12 13  1  0
 12 32  1  0
 12 33  1  0
 13 18  1  0
 13 14  1  0
 13 34  1  1
 14 15  1  0
 14 35  1  0
 14 36  1  0
 15 16  1  0
 15 20  1  0
 15 37  1  1
 16 17  1  0
 16 38  1  0
 16 39  1  0
 17 18  1  0
 17 19  1  0
 17 40  1  6
 18 41  1  0
 18 42  1  0
 19 43  1  0
 19 44  1  0
 20 45  1  0
 20 46  1  0
 21 47  1  0
 21 48  1  0
M  CHG  1   2   1
M  END
>  <i_m_ct_stereo_status>  (217) 
1

>  <s_m_source_file>  (217) 
/var/tmp/pbs.5076255.sched01/tmpfes5ahby/80lk6pwr5_.sdf

>  <i_m_source_file_index>  (217) 
3

>  <i_lp_mmshare_version>  (217) 
48012

>  <i_f3d_flags>  (217) 
0

>  <s_epik_input>  (217) 
W0NIM11OKFtDQEhdMTIpW0NAQEhdKFtDSDJdW0NIMl0xKVtDQEhdKFtDSDJdMilPQyg9TylDMzRbQ0gyXVtDQEhdNVtDSDJdW0NAQEhdKFtDSDJdNClbQ0gyXVtDQEhdKFtDSDJdNSlbQ0gyXTM=

>  <s_epik_cmdline>  (217) 
J2VwaWtfcHl0aG9uJywgJy1waHQnLCAnMi4wJywgJy1waCcsICc3LjAnLCAnLXRuJywgJzgnLCAnLW1hJywgJzIwMCcsICctaW1hZScsICc8aW5maWxlLm1hZT4nLCAnLW9tYWUnLCAnPG91dGZpbGUubWFlPic=

>  <r_epik_Ionization_Penalty>  (217) 
0.00387452

>  <r_epik_Ionization_Penalty_Charging>  (217) 
0.00387452

>  <r_epik_Ionization_Penalty_Neutral>  (217) 
0

>  <r_epik_State_Penalty>  (217) 
0.00276812

>  <r_epik_Charging_Adjusted_Penalty>  (217) 
0.00664263

>  <i_epik_Tot_Q>  (217) 
1

>  <i_epik_Tot_abs_Q>  (217) 
1

>  <s_epik_Chemistry_Notes>  (217) 
This compound has an ester and may undergo hydrolysis at high or low pH.

>  <s_lp_Force_Field>  (217) 
OPLS3e

>  <r_lp_Energy>  (217) 
34.3403

>  <b_lp_Chiralities_Consistent>  (217) 
1

>  <s_lp_Variant>  (217) 
50:0-1

>  <s_i_glide_gridfile>  (217) 
pfpi4k_grid

>  <i_i_glide_lignum>  (217) 
3

>  <i_i_glide_rotatable_bonds>  (217) 
3

>  <r_i_docking_score>  (217) 
-2.33523

>  <r_i_glide_ligand_efficiency>  (217) 
-0.111201

>  <r_i_glide_ligand_efficiency_sa>  (217) 
-0.306796

>  <r_i_glide_ligand_efficiency_ln>  (217) 
-0.577381

>  <r_i_glide_gscore>  (217) 
-2.33523

>  <r_i_glide_lipo>  (217) 
-0.0766346

>  <r_i_glide_hbond>  (217) 
0

>  <r_i_glide_metal>  (217) 
-0

>  <r_i_glide_rewards>  (217) 
-1.45773

>  <r_i_glide_evdw>  (217) 
-13.4462

>  <r_i_glide_ecoul>  (217) 
-4.83841

>  <r_i_glide_erotb>  (217) 
0.648228

>  <r_i_glide_esite>  (217) 
-0.0510189

>  <r_i_glide_emodel>  (217) 
-22.2457

>  <r_i_glide_energy>  (217) 
-18.2846

>  <r_i_glide_einternal>  (217) 
0.34432

>  <r_i_glide_intrahb_reward>  (217) 
-0

>  <i_i_glide_confnum>  (217) 
2

>  <i_i_glide_posenum>  (217) 
16

>  <r_i_glide_eff_state_penalty>  (217) 
0

>  <ligand_id>  (217) 
50

>  <original_smiles>  (217) 
CN1C2CCC1C(OC(=O)C13CC4CC(CC(C4)C1)C3)C2

>  <smiles>  (217) 
[H]C1([H])C2([H])C([H])([H])C3([H])C([H])([H])C1([H])C([H])([H])C(C(=O)OC1([H])C([H])([H])C4([H])C([H])([H])C([H])([H])C1([H])[N+]4([H])C([H])([H])[H])(C2([H])[H])C3([H])[H]

$$$$
51:0:0
     RDKit          3D

 26 28  0  0  1  0  0  0  0  0999 V2000
    4.1840   -1.7012    1.9432 C   0  0  0  0  0  0  0  0  0  0  0  0
    4.5218   -1.5268    0.6590 N   0  0  0  0  0  0  0  0  0  0  0  0
    4.1309   -2.4686   -0.2235 C   0  0  0  0  0  0  0  0  0  0  0  0
    4.5218   -2.3206   -1.5675 N   0  0  0  0  0  0  0  0  0  0  0  0
    4.4708   -1.0233   -2.2270 C   0  0  0  0  0  0  0  0  0  0  0  0
    3.5837   -1.0924   -3.4855 C   0  0  0  0  0  0  0  0  0  0  0  0
    3.9952   -2.1768   -4.3192 O   0  0  0  0  0  0  0  0  0  0  0  0
    3.8653   -3.4306   -3.6515 C   0  0  0  0  0  0  0  0  0  0  0  0
    4.8014   -3.4573   -2.4313 C   0  0  0  0  0  0  0  0  0  0  0  0
    3.3865   -3.5644    0.2494 C   0  0  0  0  0  0  0  0  0  0  0  0
    2.7992   -4.6824   -0.3183 N   0  0  0  0  0  0  0  0  0  0  0  0
    2.1883   -5.4685    0.5666 N   0  0  0  0  0  0  0  0  0  0  0  0
    2.3596   -4.8577    1.8053 C   0  0  0  0  0  0  0  0  0  0  0  0
    3.0998   -3.6445    1.6446 C   0  0  0  0  0  0  0  0  0  0  0  0
    3.5072   -2.7052    2.5087 N   0  0  0  0  0  0  0  0  0  0  0  0
    2.8921   -4.9108   -1.3042 H   0  0  0  0  0  0  0  0  0  0  0  0
    4.5248   -0.9382    2.6269 H   0  0  0  0  0  0  0  0  0  0  0  0
    4.1012   -0.2569   -1.5483 H   0  0  0  0  0  0  0  0  0  0  0  0
    5.4805   -0.7400   -2.5053 H   0  0  0  0  0  0  0  0  0  0  0  0
    2.5380   -1.2150   -3.2071 H   0  0  0  0  0  0  0  0  0  0  0  0
    3.6549   -0.1648   -4.0548 H   0  0  0  0  0  0  0  0  0  0  0  0
    2.8256   -3.6017   -3.3626 H   0  0  0  0  0  0  0  0  0  0  0  0
    4.1386   -4.2339   -4.3333 H   0  0  0  0  0  0  0  0  0  0  0  0
    5.8429   -3.3957   -2.7466 H   0  0  0  0  0  0  0  0  0  0  0  0
    4.7132   -4.4047   -1.9029 H   0  0  0  0  0  0  0  0  0  0  0  0
    1.9503   -5.2830    2.7100 H   0  0  0  0  0  0  0  0  0  0  0  0
  1  2  2  0
  1 17  1  0
  1 15  1  0
  2  3  1  0
  3  4  1  0
  3 10  2  0
  4  9  1  0
  4  5  1  0
  5  6  1  0
  5 18  1  0
  5 19  1  0
  6  7  1  0
  6 20  1  0
  6 21  1  0
  7  8  1  0
  8  9  1  0
  8 22  1  0
  8 23  1  0
  9 24  1  0
  9 25  1  0
 10 11  1  0
 10 14  1  0
 11 12  1  0
 11 16  1  0
 12 13  2  0
 13 14  1  0
 13 26  1  0
 14 15  2  0
M  END
>  <i_m_ct_stereo_status>  (218) 
1

>  <s_m_source_file>  (218) 
/var/tmp/pbs.5076255.sched01/tmpfes5ahby/80lk6pwr5_.sdf

>  <i_m_source_file_index>  (218) 
4

>  <i_lp_mmshare_version>  (218) 
48012

>  <i_f3d_flags>  (218) 
0

>  <s_epik_input>  (218) 
bjFbbkhdW2NIXWMoYzEyKW5bY0hdbmMyTjNbQ0gyXVtDSDJdT1tDSDJdW0NIMl0z

>  <s_epik_cmdline>  (218) 
J2VwaWtfcHl0aG9uJywgJy1waHQnLCAnMi4wJywgJy1waCcsICc3LjAnLCAnLXRuJywgJzgnLCAnLW1hJywgJzIwMCcsICctaW1hZScsICc8aW5maWxlLm1hZT4nLCAnLW9tYWUnLCAnPG91dGZpbGUubWFlPic=

>  <r_lp_tautomer_probability>  (218) 
0.941762

>  <r_epik_Ionization_Penalty>  (218) 
0.000134775

>  <r_epik_Ionization_Penalty_Charging>  (218) 
0

>  <r_epik_Ionization_Penalty_Neutral>  (218) 
0.000134775

>  <r_epik_State_Penalty>  (218) 
0.0296448

>  <r_epik_Charging_Adjusted_Penalty>  (218) 
0.0296448

>  <i_epik_Tot_Q>  (218) 
0

>  <i_epik_Tot_abs_Q>  (218) 
0

>  <s_lp_Force_Field>  (218) 
OPLS3e

>  <r_lp_Energy>  (218) 
22.3329

>  <b_lp_Chiralities_Consistent>  (218) 
1

>  <s_lp_Variant>  (218) 
51:0-1

>  <s_i_glide_gridfile>  (218) 
pfpi4k_grid

>  <i_i_glide_lignum>  (218) 
4

>  <i_i_glide_rotatable_bonds>  (218) 
1

>  <r_i_docking_score>  (218) 
-5.06234

>  <r_i_glide_ligand_efficiency>  (218) 
-0.337489

>  <r_i_glide_ligand_efficiency_sa>  (218) 
-0.83232

>  <r_i_glide_ligand_efficiency_ln>  (218) 
-1.36523

>  <r_i_glide_gscore>  (218) 
-5.06234

>  <r_i_glide_lipo>  (218) 
-0.431109

>  <r_i_glide_hbond>  (218) 
-0.614525

>  <r_i_glide_metal>  (218) 
-0

>  <r_i_glide_rewards>  (218) 
-2.01083

>  <r_i_glide_evdw>  (218) 
-20.8044

>  <r_i_glide_ecoul>  (218) 
-8.51725

>  <r_i_glide_erotb>  (218) 
0.391152

>  <r_i_glide_esite>  (218) 
-0.0792203

>  <r_i_glide_emodel>  (218) 
-38.1836

>  <r_i_glide_energy>  (218) 
-29.3217

>  <r_i_glide_einternal>  (218) 
0.701126

>  <r_i_glide_intrahb_reward>  (218) 
-0

>  <i_i_glide_confnum>  (218) 
6

>  <i_i_glide_posenum>  (218) 
9

>  <r_i_glide_eff_state_penalty>  (218) 
0

>  <ligand_id>  (218) 
51

>  <original_smiles>  (218) 
c1nc(N2CCOCC2)c2n[nH]cc2n1

>  <smiles>  (218) 
[H]c1nc(N2C([H])([H])C([H])([H])OC([H])([H])C2([H])[H])c2c(n1)c([H])nn2[H]

$$$$
51:0:1
     RDKit          3D

 26 28  0  0  1  0  0  0  0  0999 V2000
    5.7064   -1.8932    1.6632 C   0  0  0  0  0  0  0  0  0  0  0  0
    5.6068   -1.6315    0.3584 N   0  0  0  0  0  0  0  0  0  0  0  0
    5.1149   -2.5998   -0.4420 C   0  0  0  0  0  0  0  0  0  0  0  0
    5.0176   -2.3349   -1.8175 N   0  0  0  0  0  0  0  0  0  0  0  0
    5.2031   -3.3625   -2.8314 C   0  0  0  0  0  0  0  0  0  0  0  0
    3.9595   -3.4398   -3.7318 C   0  0  0  0  0  0  0  0  0  0  0  0
    3.6845   -2.1457   -4.2638 O   0  0  0  0  0  0  0  0  0  0  0  0
    3.3717   -1.2023   -3.2369 C   0  0  0  0  0  0  0  0  0  0  0  0
    4.5812   -1.0327   -2.2980 C   0  0  0  0  0  0  0  0  0  0  0  0
    4.7370   -3.8240    0.1375 C   0  0  0  0  0  0  0  0  0  0  0  0
    4.1906   -5.0175   -0.3184 N   0  0  0  0  0  0  0  0  0  0  0  0
    3.9883   -5.9114    0.6483 N   0  0  0  0  0  0  0  0  0  0  0  0
    4.4143   -5.3035    1.8248 C   0  0  0  0  0  0  0  0  0  0  0  0
    4.8881   -3.9836    1.5447 C   0  0  0  0  0  0  0  0  0  0  0  0
    5.3843   -3.0117    2.3245 N   0  0  0  0  0  0  0  0  0  0  0  0
    3.9466   -5.1777   -1.2893 H   0  0  0  0  0  0  0  0  0  0  0  0
    6.1174   -1.0997    2.2698 H   0  0  0  0  0  0  0  0  0  0  0  0
    6.0734   -3.0920   -3.4300 H   0  0  0  0  0  0  0  0  0  0  0  0
    5.4275   -4.3335   -2.3972 H   0  0  0  0  0  0  0  0  0  0  0  0
    4.1452   -4.1323   -4.5513 H   0  0  0  0  0  0  0  0  0  0  0  0
    3.0952   -3.8193   -3.1834 H   0  0  0  0  0  0  0  0  0  0  0  0
    3.1071   -0.2490   -3.6948 H   0  0  0  0  0  0  0  0  0  0  0  0
    2.4951   -1.5326   -2.6770 H   0  0  0  0  0  0  0  0  0  0  0  0
    4.3335   -0.3496   -1.4847 H   0  0  0  0  0  0  0  0  0  0  0  0
    5.4111   -0.5874   -2.8365 H   0  0  0  0  0  0  0  0  0  0  0  0
    4.3597   -5.8100    2.7790 H   0  0  0  0  0  0  0  0  0  0  0  0
  1  2  2  0
  1 17  1  0
  1 15  1  0
  2  3  1  0
  3  4  1  0
  3 10  2  0
  4  9  1  0
  4  5  1  0
  5  6  1  0
  5 18  1  0
  5 19  1  0
  6  7  1  0
  6 20  1  0
  6 21  1  0
  7  8  1  0
  8  9  1  0
  8 22  1  0
  8 23  1  0
  9 24  1  0
  9 25  1  0
 10 11  1  0
 10 14  1  0
 11 12  1  0
 11 16  1  0
 12 13  2  0
 13 14  1  0
 13 26  1  0
 14 15  2  0
M  END
>  <i_m_ct_stereo_status>  (219) 
1

>  <s_m_source_file>  (219) 
/var/tmp/pbs.5076255.sched01/tmpfes5ahby/80lk6pwr5_.sdf

>  <i_m_source_file_index>  (219) 
4

>  <i_lp_mmshare_version>  (219) 
48012

>  <i_f3d_flags>  (219) 
0

>  <s_epik_input>  (219) 
bjFbbkhdW2NIXWMoYzEyKW5bY0hdbmMyTjNbQ0gyXVtDSDJdT1tDSDJdW0NIMl0z

>  <s_epik_cmdline>  (219) 
J2VwaWtfcHl0aG9uJywgJy1waHQnLCAnMi4wJywgJy1waCcsICc3LjAnLCAnLXRuJywgJzgnLCAnLW1hJywgJzIwMCcsICctaW1hZScsICc8aW5maWxlLm1hZT4nLCAnLW9tYWUnLCAnPG91dGZpbGUubWFlPic=

>  <r_lp_tautomer_probability>  (219) 
0.941762

>  <r_epik_Ionization_Penalty>  (219) 
0.000134775

>  <r_epik_Ionization_Penalty_Charging>  (219) 
0

>  <r_epik_Ionization_Penalty_Neutral>  (219) 
0.000134775

>  <r_epik_State_Penalty>  (219) 
0.0296448

>  <r_epik_Charging_Adjusted_Penalty>  (219) 
0.0296448

>  <i_epik_Tot_Q>  (219) 
0

>  <i_epik_Tot_abs_Q>  (219) 
0

>  <s_lp_Force_Field>  (219) 
OPLS3e

>  <r_lp_Energy>  (219) 
22.3329

>  <b_lp_Chiralities_Consistent>  (219) 
1

>  <s_lp_Variant>  (219) 
51:0-1

>  <s_i_glide_gridfile>  (219) 
pfpi4k_grid

>  <i_i_glide_lignum>  (219) 
4

>  <i_i_glide_rotatable_bonds>  (219) 
1

>  <r_i_docking_score>  (219) 
-5.02673

>  <r_i_glide_ligand_efficiency>  (219) 
-0.335116

>  <r_i_glide_ligand_efficiency_sa>  (219) 
-0.826466

>  <r_i_glide_ligand_efficiency_ln>  (219) 
-1.35563

>  <r_i_glide_gscore>  (219) 
-5.02673

>  <r_i_glide_lipo>  (219) 
-0.521255

>  <r_i_glide_hbond>  (219) 
-0.608

>  <r_i_glide_metal>  (219) 
-0

>  <r_i_glide_rewards>  (219) 
-2.1617

>  <r_i_glide_evdw>  (219) 
-22.4213

>  <r_i_glide_ecoul>  (219) 
-6.43772

>  <r_i_glide_erotb>  (219) 
0.391152

>  <r_i_glide_esite>  (219) 
-0.0402037

>  <r_i_glide_emodel>  (219) 
-37.7036

>  <r_i_glide_energy>  (219) 
-28.859

>  <r_i_glide_einternal>  (219) 
0.67715

>  <r_i_glide_intrahb_reward>  (219) 
-0

>  <i_i_glide_confnum>  (219) 
3

>  <i_i_glide_posenum>  (219) 
25

>  <r_i_glide_eff_state_penalty>  (219) 
0

>  <ligand_id>  (219) 
51

>  <original_smiles>  (219) 
c1nc(N2CCOCC2)c2n[nH]cc2n1

>  <smiles>  (219) 
[H]c1nc(N2C([H])([H])C([H])([H])OC([H])([H])C2([H])[H])c2c(n1)c([H])nn2[H]

$$$$
51:0:2
     RDKit          3D

 26 28  0  0  1  0  0  0  0  0999 V2000
    7.0373   -1.7240    0.6639 C   0  0  0  0  0  0  0  0  0  0  0  0
    6.6620   -1.9032   -0.5932 N   0  0  0  0  0  0  0  0  0  0  0  0
    5.3694   -1.7177   -0.8897 C   0  0  0  0  0  0  0  0  0  0  0  0
    5.0006   -1.8980   -2.2228 N   0  0  0  0  0  0  0  0  0  0  0  0
    5.4526   -3.0578   -2.9711 C   0  0  0  0  0  0  0  0  0  0  0  0
    4.2362   -3.7695   -3.5724 C   0  0  0  0  0  0  0  0  0  0  0  0
    3.4205   -2.8451   -4.2850 O   0  0  0  0  0  0  0  0  0  0  0  0
    2.8945   -1.8354   -3.4276 C   0  0  0  0  0  0  0  0  0  0  0  0
    4.0573   -1.0058   -2.8709 C   0  0  0  0  0  0  0  0  0  0  0  0
    4.4835   -1.3233    0.1334 C   0  0  0  0  0  0  0  0  0  0  0  0
    3.1295   -1.0490    0.2533 N   0  0  0  0  0  0  0  0  0  0  0  0
    2.7569   -0.6962    1.4866 N   0  0  0  0  0  0  0  0  0  0  0  0
    3.9088   -0.7454    2.2586 C   0  0  0  0  0  0  0  0  0  0  0  0
    5.0115   -1.1485    1.4463 C   0  0  0  0  0  0  0  0  0  0  0  0
    6.3041   -1.3513    1.7192 N   0  0  0  0  0  0  0  0  0  0  0  0
    2.4728   -1.0857   -0.5195 H   0  0  0  0  0  0  0  0  0  0  0  0
    8.0957   -1.8541    0.8349 H   0  0  0  0  0  0  0  0  0  0  0  0
    6.0825   -2.7286   -3.7839 H   0  0  0  0  0  0  0  0  0  0  0  0
    6.0549   -3.7404   -2.3645 H   0  0  0  0  0  0  0  0  0  0  0  0
    4.5329   -4.5714   -4.2479 H   0  0  0  0  0  0  0  0  0  0  0  0
    3.6766   -4.2039   -2.7529 H   0  0  0  0  0  0  0  0  0  0  0  0
    2.2362   -1.1930   -4.0045 H   0  0  0  0  0  0  0  0  0  0  0  0
    2.2979   -2.2626   -2.6180 H   0  0  0  0  0  0  0  0  0  0  0  0
    3.7147   -0.2485   -2.1761 H   0  0  0  0  0  0  0  0  0  0  0  0
    4.5648   -0.4888   -3.6901 H   0  0  0  0  0  0  0  0  0  0  0  0
    3.8909   -0.5138    3.3137 H   0  0  0  0  0  0  0  0  0  0  0  0
  1  2  2  0
  1 17  1  0
  1 15  1  0
  2  3  1  0
  3  4  1  0
  3 10  2  0
  4  9  1  0
  4  5  1  0
  5  6  1  0
  5 18  1  0
  5 19  1  0
  6  7  1  0
  6 20  1  0
  6 21  1  0
  7  8  1  0
  8  9  1  0
  8 22  1  0
  8 23  1  0
  9 24  1  0
  9 25  1  0
 10 11  1  0
 10 14  1  0
 11 12  1  0
 11 16  1  0
 12 13  2  0
 13 14  1  0
 13 26  1  0
 14 15  2  0
M  END
>  <i_m_ct_stereo_status>  (220) 
1

>  <s_m_source_file>  (220) 
/var/tmp/pbs.5076255.sched01/tmpfes5ahby/80lk6pwr5_.sdf

>  <i_m_source_file_index>  (220) 
4

>  <i_lp_mmshare_version>  (220) 
48012

>  <i_f3d_flags>  (220) 
0

>  <s_epik_input>  (220) 
bjFbbkhdW2NIXWMoYzEyKW5bY0hdbmMyTjNbQ0gyXVtDSDJdT1tDSDJdW0NIMl0z

>  <s_epik_cmdline>  (220) 
J2VwaWtfcHl0aG9uJywgJy1waHQnLCAnMi4wJywgJy1waCcsICc3LjAnLCAnLXRuJywgJzgnLCAnLW1hJywgJzIwMCcsICctaW1hZScsICc8aW5maWxlLm1hZT4nLCAnLW9tYWUnLCAnPG91dGZpbGUubWFlPic=

>  <r_lp_tautomer_probability>  (220) 
0.941762

>  <r_epik_Ionization_Penalty>  (220) 
0.000134775

>  <r_epik_Ionization_Penalty_Charging>  (220) 
0

>  <r_epik_Ionization_Penalty_Neutral>  (220) 
0.000134775

>  <r_epik_State_Penalty>  (220) 
0.0296448

>  <r_epik_Charging_Adjusted_Penalty>  (220) 
0.0296448

>  <i_epik_Tot_Q>  (220) 
0

>  <i_epik_Tot_abs_Q>  (220) 
0

>  <s_lp_Force_Field>  (220) 
OPLS3e

>  <r_lp_Energy>  (220) 
22.3329

>  <b_lp_Chiralities_Consistent>  (220) 
1

>  <s_lp_Variant>  (220) 
51:0-1

>  <s_i_glide_gridfile>  (220) 
pfpi4k_grid

>  <i_i_glide_lignum>  (220) 
4

>  <i_i_glide_rotatable_bonds>  (220) 
1

>  <r_i_docking_score>  (220) 
-4.62894

>  <r_i_glide_ligand_efficiency>  (220) 
-0.308596

>  <r_i_glide_ligand_efficiency_sa>  (220) 
-0.761064

>  <r_i_glide_ligand_efficiency_ln>  (220) 
-1.24835

>  <r_i_glide_gscore>  (220) 
-4.62894

>  <r_i_glide_lipo>  (220) 
-0.498524

>  <r_i_glide_hbond>  (220) 
-0.543192

>  <r_i_glide_metal>  (220) 
-0

>  <r_i_glide_rewards>  (220) 
-2.00989

>  <r_i_glide_evdw>  (220) 
-16.4333

>  <r_i_glide_ecoul>  (220) 
-6.88507

>  <r_i_glide_erotb>  (220) 
0.391152

>  <r_i_glide_esite>  (220) 
-0.114068

>  <r_i_glide_emodel>  (220) 
-31.0928

>  <r_i_glide_energy>  (220) 
-23.3183

>  <r_i_glide_einternal>  (220) 
1.24643

>  <r_i_glide_intrahb_reward>  (220) 
-0

>  <i_i_glide_confnum>  (220) 
3

>  <i_i_glide_posenum>  (220) 
26

>  <r_i_glide_eff_state_penalty>  (220) 
0

>  <ligand_id>  (220) 
51

>  <original_smiles>  (220) 
c1nc(N2CCOCC2)c2n[nH]cc2n1

>  <smiles>  (220) 
[H]c1nc(N2C([H])([H])C([H])([H])OC([H])([H])C2([H])[H])c2c(n1)c([H])nn2[H]

$$$$
51:1:0
     RDKit          3D

 26 28  0  0  1  0  0  0  0  0999 V2000
   -1.7678   -0.2785    5.5391 C   0  0  0  0  0  0  0  0  0  0  0  0
   -1.8958    0.6827    6.4547 N   0  0  0  0  0  0  0  0  0  0  0  0
   -1.5878    1.9581    6.0923 C   0  0  0  0  0  0  0  0  0  0  0  0
   -1.7153    2.9677    7.0715 N   0  0  0  0  0  0  0  0  0  0  0  0
   -2.7311    2.9370    8.1204 C   0  0  0  0  0  0  0  0  0  0  0  0
   -2.0748    3.0017    9.5116 C   0  0  0  0  0  0  0  0  0  0  0  0
   -1.2056    4.1295    9.5742 O   0  0  0  0  0  0  0  0  0  0  0  0
   -0.1486    4.0508    8.6226 C   0  0  0  0  0  0  0  0  0  0  0  0
   -0.7264    4.0338    7.1971 C   0  0  0  0  0  0  0  0  0  0  0  0
   -1.1629    2.2415    4.7846 C   0  0  0  0  0  0  0  0  0  0  0  0
   -0.8285    3.3781    4.1435 N   0  0  0  0  0  0  0  0  0  0  0  0
   -0.5061    2.9449    2.9024 N   0  0  0  0  0  0  0  0  0  0  0  0
   -0.6546    1.5917    2.7148 C   0  0  0  0  0  0  0  0  0  0  0  0
   -1.0777    1.1021    3.9211 C   0  0  0  0  0  0  0  0  0  0  0  0
   -1.3715   -0.1653    4.2752 N   0  0  0  0  0  0  0  0  0  0  0  0
   -0.1882    3.5945    2.1675 H   0  0  0  0  0  0  0  0  0  0  0  0
   -2.0111   -1.2799    5.8663 H   0  0  0  0  0  0  0  0  0  0  0  0
   -3.3733    3.8063    7.9879 H   0  0  0  0  0  0  0  0  0  0  0  0
   -3.3773    2.0679    8.0334 H   0  0  0  0  0  0  0  0  0  0  0  0
   -2.8354    3.1020   10.2838 H   0  0  0  0  0  0  0  0  0  0  0  0
   -1.5213    2.0891    9.7309 H   0  0  0  0  0  0  0  0  0  0  0  0
    0.5042    4.9125    8.7496 H   0  0  0  0  0  0  0  0  0  0  0  0
    0.4584    3.1646    8.8123 H   0  0  0  0  0  0  0  0  0  0  0  0
    0.0880    3.9229    6.4821 H   0  0  0  0  0  0  0  0  0  0  0  0
   -1.2228    4.9798    6.9876 H   0  0  0  0  0  0  0  0  0  0  0  0
   -0.4535    1.1234    1.7644 H   0  0  0  0  0  0  0  0  0  0  0  0
  1 15  2  0
  1  2  1  0
  1 17  1  0
  2  3  2  0
  3  4  1  0
  3 10  1  0
  4  9  1  0
  4  5  1  0
  5  6  1  0
  5 18  1  0
  5 19  1  0
  6  7  1  0
  6 20  1  0
  6 21  1  0
  7  8  1  0
  8  9  1  0
  8 22  1  0
  8 23  1  0
  9 24  1  0
  9 25  1  0
 10 14  1  0
 10 11  2  0
 11 12  1  0
 12 16  1  0
 12 13  1  0
 13 14  2  0
 13 26  1  0
 14 15  1  0
M  END
>  <i_m_ct_stereo_status>  (221) 
1

>  <s_m_source_file>  (221) 
/var/tmp/pbs.5076255.sched01/tmpfes5ahby/80lk6pwr5_.sdf

>  <i_m_source_file_index>  (221) 
5

>  <i_lp_mmshare_version>  (221) 
48012

>  <i_f3d_flags>  (221) 
0

>  <s_epik_input>  (221) 
bjFbbkhdW2NIXWMoYzEyKW5bY0hdbmMyTjNbQ0gyXVtDSDJdT1tDSDJdW0NIMl0z

>  <s_epik_cmdline>  (221) 
J2VwaWtfcHl0aG9uJywgJy1waHQnLCAnMi4wJywgJy1waCcsICc3LjAnLCAnLXRuJywgJzgnLCAnLW1hJywgJzIwMCcsICctaW1hZScsICc8aW5maWxlLm1hZT4nLCAnLW9tYWUnLCAnPG91dGZpbGUubWFlPic=

>  <r_lp_tautomer_probability>  (221) 
0.0582376

>  <r_epik_Ionization_Penalty>  (221) 
0.000151637

>  <r_epik_Ionization_Penalty_Charging>  (221) 
0

>  <r_epik_Ionization_Penalty_Neutral>  (221) 
0.000151637

>  <r_epik_State_Penalty>  (221) 
1.78928

>  <r_epik_Charging_Adjusted_Penalty>  (221) 
1.78928

>  <i_epik_Tot_Q>  (221) 
0

>  <i_epik_Tot_abs_Q>  (221) 
0

>  <s_lp_Force_Field>  (221) 
OPLS3e

>  <r_lp_Energy>  (221) 
24.2008

>  <b_lp_Chiralities_Consistent>  (221) 
1

>  <s_lp_Variant>  (221) 
51:0-2

>  <s_i_glide_gridfile>  (221) 
pfpi4k_grid

>  <i_i_glide_lignum>  (221) 
5

>  <i_i_glide_rotatable_bonds>  (221) 
1

>  <r_i_docking_score>  (221) 
-4.06964

>  <r_i_glide_ligand_efficiency>  (221) 
-0.271309

>  <r_i_glide_ligand_efficiency_sa>  (221) 
-0.669106

>  <r_i_glide_ligand_efficiency_ln>  (221) 
-1.09751

>  <r_i_glide_gscore>  (221) 
-4.06964

>  <r_i_glide_lipo>  (221) 
-0.10664

>  <r_i_glide_hbond>  (221) 
-0.32

>  <r_i_glide_metal>  (221) 
-0

>  <r_i_glide_rewards>  (221) 
-2.06689

>  <r_i_glide_evdw>  (221) 
-15.4314

>  <r_i_glide_ecoul>  (221) 
-6.85188

>  <r_i_glide_erotb>  (221) 
0.391152

>  <r_i_glide_esite>  (221) 
-0.167913

>  <r_i_glide_emodel>  (221) 
-29.5768

>  <r_i_glide_energy>  (221) 
-22.2833

>  <r_i_glide_einternal>  (221) 
0.381167

>  <r_i_glide_intrahb_reward>  (221) 
-0

>  <i_i_glide_confnum>  (221) 
2

>  <i_i_glide_posenum>  (221) 
6

>  <r_i_glide_eff_state_penalty>  (221) 
0

>  <ligand_id>  (221) 
51

>  <original_smiles>  (221) 
c1nc(N2CCOCC2)c2n[nH]cc2n1

>  <smiles>  (221) 
[H]c1nc(N2C([H])([H])C([H])([H])OC([H])([H])C2([H])[H])c2nn([H])c([H])c2n1

$$$$
51:1:1
     RDKit          3D

 26 28  0  0  1  0  0  0  0  0999 V2000
    5.8979   -3.9834    1.3020 C   0  0  0  0  0  0  0  0  0  0  0  0
    5.7428   -3.7017    0.0077 N   0  0  0  0  0  0  0  0  0  0  0  0
    5.0396   -2.5964   -0.3441 C   0  0  0  0  0  0  0  0  0  0  0  0
    4.9079   -2.3490   -1.7325 N   0  0  0  0  0  0  0  0  0  0  0  0
    4.5833   -1.0368   -2.2921 C   0  0  0  0  0  0  0  0  0  0  0  0
    3.3147   -1.1190   -3.1507 C   0  0  0  0  0  0  0  0  0  0  0  0
    3.4681   -2.1381   -4.1356 O   0  0  0  0  0  0  0  0  0  0  0  0
    3.6264   -3.4187   -3.5346 C   0  0  0  0  0  0  0  0  0  0  0  0
    4.9243   -3.4430   -2.7081 C   0  0  0  0  0  0  0  0  0  0  0  0
    4.5002   -1.7632    0.6504 C   0  0  0  0  0  0  0  0  0  0  0  0
    3.7775   -0.6349    0.6274 N   0  0  0  0  0  0  0  0  0  0  0  0
    3.5961   -0.3432    1.9302 N   0  0  0  0  0  0  0  0  0  0  0  0
    4.1637   -1.2476    2.7978 C   0  0  0  0  0  0  0  0  0  0  0  0
    4.7552   -2.1900    1.9961 C   0  0  0  0  0  0  0  0  0  0  0  0
    5.4434   -3.2965    2.3480 N   0  0  0  0  0  0  0  0  0  0  0  0
    3.0713    0.4757    2.2132 H   0  0  0  0  0  0  0  0  0  0  0  0
    6.4659   -4.8770    1.5196 H   0  0  0  0  0  0  0  0  0  0  0  0
    4.4890   -0.2357   -1.5688 H   0  0  0  0  0  0  0  0  0  0  0  0
    5.4108   -0.7297   -2.9098 H   0  0  0  0  0  0  0  0  0  0  0  0
    2.4432   -1.3162   -2.5271 H   0  0  0  0  0  0  0  0  0  0  0  0
    3.1418   -0.1622   -3.6423 H   0  0  0  0  0  0  0  0  0  0  0  0
    2.7585   -3.6536   -2.9156 H   0  0  0  0  0  0  0  0  0  0  0  0
    3.6626   -4.1739   -4.3194 H   0  0  0  0  0  0  0  0  0  0  0  0
    5.7835   -3.3195   -3.3677 H   0  0  0  0  0  0  0  0  0  0  0  0
    5.0209   -4.4264   -2.2465 H   0  0  0  0  0  0  0  0  0  0  0  0
    4.0949   -1.1621    3.8727 H   0  0  0  0  0  0  0  0  0  0  0  0
  1 15  2  0
  1  2  1  0
  1 17  1  0
  2  3  2  0
  3  4  1  0
  3 10  1  0
  4  9  1  0
  4  5  1  0
  5  6  1  0
  5 18  1  0
  5 19  1  0
  6  7  1  0
  6 20  1  0
  6 21  1  0
  7  8  1  0
  8  9  1  0
  8 22  1  0
  8 23  1  0
  9 24  1  0
  9 25  1  0
 10 14  1  0
 10 11  2  0
 11 12  1  0
 12 16  1  0
 12 13  1  0
 13 14  2  0
 13 26  1  0
 14 15  1  0
M  END
>  <i_m_ct_stereo_status>  (222) 
1

>  <s_m_source_file>  (222) 
/var/tmp/pbs.5076255.sched01/tmpfes5ahby/80lk6pwr5_.sdf

>  <i_m_source_file_index>  (222) 
5

>  <i_lp_mmshare_version>  (222) 
48012

>  <i_f3d_flags>  (222) 
0

>  <s_epik_input>  (222) 
bjFbbkhdW2NIXWMoYzEyKW5bY0hdbmMyTjNbQ0gyXVtDSDJdT1tDSDJdW0NIMl0z

>  <s_epik_cmdline>  (222) 
J2VwaWtfcHl0aG9uJywgJy1waHQnLCAnMi4wJywgJy1waCcsICc3LjAnLCAnLXRuJywgJzgnLCAnLW1hJywgJzIwMCcsICctaW1hZScsICc8aW5maWxlLm1hZT4nLCAnLW9tYWUnLCAnPG91dGZpbGUubWFlPic=

>  <r_lp_tautomer_probability>  (222) 
0.0582376

>  <r_epik_Ionization_Penalty>  (222) 
0.000151637

>  <r_epik_Ionization_Penalty_Charging>  (222) 
0

>  <r_epik_Ionization_Penalty_Neutral>  (222) 
0.000151637

>  <r_epik_State_Penalty>  (222) 
1.78928

>  <r_epik_Charging_Adjusted_Penalty>  (222) 
1.78928

>  <i_epik_Tot_Q>  (222) 
0

>  <i_epik_Tot_abs_Q>  (222) 
0

>  <s_lp_Force_Field>  (222) 
OPLS3e

>  <r_lp_Energy>  (222) 
24.2008

>  <b_lp_Chiralities_Consistent>  (222) 
1

>  <s_lp_Variant>  (222) 
51:0-2

>  <s_i_glide_gridfile>  (222) 
pfpi4k_grid

>  <i_i_glide_lignum>  (222) 
5

>  <i_i_glide_rotatable_bonds>  (222) 
1

>  <r_i_docking_score>  (222) 
-3.8143

>  <r_i_glide_ligand_efficiency>  (222) 
-0.254287

>  <r_i_glide_ligand_efficiency_sa>  (222) 
-0.627125

>  <r_i_glide_ligand_efficiency_ln>  (222) 
-1.02865

>  <r_i_glide_gscore>  (222) 
-3.8143

>  <r_i_glide_lipo>  (222) 
-0.391031

>  <r_i_glide_hbond>  (222) 
-0.226187

>  <r_i_glide_metal>  (222) 
-0

>  <r_i_glide_rewards>  (222) 
-2.11203

>  <r_i_glide_evdw>  (222) 
-22.3471

>  <r_i_glide_ecoul>  (222) 
-2.29341

>  <r_i_glide_erotb>  (222) 
0.391152

>  <r_i_glide_esite>  (222) 
-0.0148429

>  <r_i_glide_emodel>  (222) 
-31.2094

>  <r_i_glide_energy>  (222) 
-24.6405

>  <r_i_glide_einternal>  (222) 
0.838808

>  <r_i_glide_intrahb_reward>  (222) 
-0

>  <i_i_glide_confnum>  (222) 
6

>  <i_i_glide_posenum>  (222) 
3

>  <r_i_glide_eff_state_penalty>  (222) 
0

>  <ligand_id>  (222) 
51

>  <original_smiles>  (222) 
c1nc(N2CCOCC2)c2n[nH]cc2n1

>  <smiles>  (222) 
[H]c1nc(N2C([H])([H])C([H])([H])OC([H])([H])C2([H])[H])c2nn([H])c([H])c2n1

$$$$
51:1:2
     RDKit          3D

 26 28  0  0  1  0  0  0  0  0999 V2000
    3.0120   -3.7977    2.0351 C   0  0  0  0  0  0  0  0  0  0  0  0
    3.3951   -3.6849    0.7628 N   0  0  0  0  0  0  0  0  0  0  0  0
    3.6670   -2.4539    0.2566 C   0  0  0  0  0  0  0  0  0  0  0  0
    4.1141   -2.3944   -1.0873 N   0  0  0  0  0  0  0  0  0  0  0  0
    3.7728   -3.4324   -2.0568 C   0  0  0  0  0  0  0  0  0  0  0  0
    3.0450   -2.8099   -3.2698 C   0  0  0  0  0  0  0  0  0  0  0  0
    3.8262   -1.7512   -3.8185 O   0  0  0  0  0  0  0  0  0  0  0  0
    4.0331   -0.7124   -2.8676 C   0  0  0  0  0  0  0  0  0  0  0  0
    4.8292   -1.2624   -1.6708 C   0  0  0  0  0  0  0  0  0  0  0  0
    3.5281   -1.3231    1.0775 C   0  0  0  0  0  0  0  0  0  0  0  0
    3.7136   -0.0088    0.8880 N   0  0  0  0  0  0  0  0  0  0  0  0
    3.3991    0.5360    2.0804 N   0  0  0  0  0  0  0  0  0  0  0  0
    3.0213   -0.3777    3.0398 C   0  0  0  0  0  0  0  0  0  0  0  0
    3.0915   -1.5965    2.4172 C   0  0  0  0  0  0  0  0  0  0  0  0
    2.8333   -2.8231    2.9213 N   0  0  0  0  0  0  0  0  0  0  0  0
    3.4693    1.5372    2.2278 H   0  0  0  0  0  0  0  0  0  0  0  0
    2.8205   -4.8071    2.3821 H   0  0  0  0  0  0  0  0  0  0  0  0
    4.6924   -3.9158   -2.3960 H   0  0  0  0  0  0  0  0  0  0  0  0
    3.1532   -4.2176   -1.6201 H   0  0  0  0  0  0  0  0  0  0  0  0
    2.8827   -3.5593   -4.0449 H   0  0  0  0  0  0  0  0  0  0  0  0
    2.0626   -2.4398   -2.9802 H   0  0  0  0  0  0  0  0  0  0  0  0
    4.5927    0.1013   -3.3217 H   0  0  0  0  0  0  0  0  0  0  0  0
    3.0752   -0.2961   -2.5562 H   0  0  0  0  0  0  0  0  0  0  0  0
    5.0549   -0.4544   -0.9794 H   0  0  0  0  0  0  0  0  0  0  0  0
    5.8057   -1.6229   -1.9996 H   0  0  0  0  0  0  0  0  0  0  0  0
    2.7415   -0.1037    4.0482 H   0  0  0  0  0  0  0  0  0  0  0  0
  1 15  2  0
  1  2  1  0
  1 17  1  0
  2  3  2  0
  3  4  1  0
  3 10  1  0
  4  9  1  0
  4  5  1  0
  5  6  1  0
  5 18  1  0
  5 19  1  0
  6  7  1  0
  6 20  1  0
  6 21  1  0
  7  8  1  0
  8  9  1  0
  8 22  1  0
  8 23  1  0
  9 24  1  0
  9 25  1  0
 10 14  1  0
 10 11  2  0
 11 12  1  0
 12 16  1  0
 12 13  1  0
 13 14  2  0
 13 26  1  0
 14 15  1  0
M  END
>  <i_m_ct_stereo_status>  (223) 
1

>  <s_m_source_file>  (223) 
/var/tmp/pbs.5076255.sched01/tmpfes5ahby/80lk6pwr5_.sdf

>  <i_m_source_file_index>  (223) 
5

>  <i_lp_mmshare_version>  (223) 
48012

>  <i_f3d_flags>  (223) 
0

>  <s_epik_input>  (223) 
bjFbbkhdW2NIXWMoYzEyKW5bY0hdbmMyTjNbQ0gyXVtDSDJdT1tDSDJdW0NIMl0z

>  <s_epik_cmdline>  (223) 
J2VwaWtfcHl0aG9uJywgJy1waHQnLCAnMi4wJywgJy1waCcsICc3LjAnLCAnLXRuJywgJzgnLCAnLW1hJywgJzIwMCcsICctaW1hZScsICc8aW5maWxlLm1hZT4nLCAnLW9tYWUnLCAnPG91dGZpbGUubWFlPic=

>  <r_lp_tautomer_probability>  (223) 
0.0582376

>  <r_epik_Ionization_Penalty>  (223) 
0.000151637

>  <r_epik_Ionization_Penalty_Charging>  (223) 
0

>  <r_epik_Ionization_Penalty_Neutral>  (223) 
0.000151637

>  <r_epik_State_Penalty>  (223) 
1.78928

>  <r_epik_Charging_Adjusted_Penalty>  (223) 
1.78928

>  <i_epik_Tot_Q>  (223) 
0

>  <i_epik_Tot_abs_Q>  (223) 
0

>  <s_lp_Force_Field>  (223) 
OPLS3e

>  <r_lp_Energy>  (223) 
24.2008

>  <b_lp_Chiralities_Consistent>  (223) 
1

>  <s_lp_Variant>  (223) 
51:0-2

>  <s_i_glide_gridfile>  (223) 
pfpi4k_grid

>  <i_i_glide_lignum>  (223) 
5

>  <i_i_glide_rotatable_bonds>  (223) 
1

>  <r_i_docking_score>  (223) 
-3.42246

>  <r_i_glide_ligand_efficiency>  (223) 
-0.228164

>  <r_i_glide_ligand_efficiency_sa>  (223) 
-0.562701

>  <r_i_glide_ligand_efficiency_ln>  (223) 
-0.922981

>  <r_i_glide_gscore>  (223) 
-3.42246

>  <r_i_glide_lipo>  (223) 
-0.232426

>  <r_i_glide_hbond>  (223) 
-0.0475666

>  <r_i_glide_metal>  (223) 
-0

>  <r_i_glide_rewards>  (223) 
-2.00989

>  <r_i_glide_evdw>  (223) 
-20.28

>  <r_i_glide_ecoul>  (223) 
-3.24314

>  <r_i_glide_erotb>  (223) 
0.391152

>  <r_i_glide_esite>  (223) 
-0.0232638

>  <r_i_glide_emodel>  (223) 
-29.2426

>  <r_i_glide_energy>  (223) 
-23.5231

>  <r_i_glide_einternal>  (223) 
1.08984

>  <r_i_glide_intrahb_reward>  (223) 
-0

>  <i_i_glide_confnum>  (223) 
3

>  <i_i_glide_posenum>  (223) 
15

>  <r_i_glide_eff_state_penalty>  (223) 
0

>  <ligand_id>  (223) 
51

>  <original_smiles>  (223) 
c1nc(N2CCOCC2)c2n[nH]cc2n1

>  <smiles>  (223) 
[H]c1nc(N2C([H])([H])C([H])([H])OC([H])([H])C2([H])[H])c2nn([H])c([H])c2n1

$$$$
52:0:0
     RDKit          3D

 45 49  0  0  1  0  0  0  0  0999 V2000
    2.2337   -3.5477   -0.9441 C   0  0  0  0  0  0  0  0  0  0  0  0
    3.5695   -2.9362   -1.2510 C   0  0  0  0  0  0  0  0  0  0  0  0
    3.6253   -1.9123   -2.0999 N   0  0  0  0  0  0  0  0  0  0  0  0
    4.9804   -1.5069   -2.1988 O   0  0  0  0  0  0  0  0  0  0  0  0
    5.7715   -2.3175   -1.4038 C   0  0  0  0  0  0  0  0  0  0  0  0
    7.1215   -2.2585   -1.2397 N   0  0  0  0  0  0  0  0  0  0  0  0
    7.5351   -3.1892   -0.3843 C   0  0  0  0  0  0  0  0  0  0  0  0
    6.8102   -4.1085    0.2676 N   0  0  0  0  0  0  0  0  0  0  0  0
    5.4655   -4.1679    0.0853 C   0  0  0  0  0  0  0  0  0  0  0  0
    4.7126   -5.2426    0.8591 C   0  0  2  0  0  0  0  0  0  0  0  0
    4.8494   -5.1156    2.3860 C   0  0  0  0  0  0  0  0  0  0  0  0
    4.5949   -6.5243    2.9444 C   0  0  1  0  0  0  0  0  0  0  0  0
    3.1552   -6.7776    3.4109 C   0  0  0  0  0  0  0  0  0  0  0  0
    2.8752   -8.1644    2.9958 N   0  0  1  0  0  0  0  0  0  0  0  0
    1.4542   -8.5734    3.0754 C   0  0  0  0  0  0  0  0  0  0  0  0
    0.9321   -8.7643    4.5102 C   0  0  0  0  0  0  0  0  0  0  0  0
    0.2194  -10.0287    4.0178 C   0  0  0  0  0  0  0  0  0  0  0  0
    1.2352  -10.0803    2.8733 C   0  0  0  0  0  0  0  0  0  0  0  0
    3.4825   -8.2671    1.6557 C   0  0  0  0  0  0  0  0  0  0  0  0
    4.8104   -7.5089    1.7821 C   0  0  1  0  0  0  0  0  0  0  0  0
    5.1994   -6.6662    0.5591 C   0  0  0  0  0  0  0  0  0  0  0  0
    4.8891   -3.2161   -0.7990 C   0  0  0  0  0  0  0  0  0  0  0  0
    2.2051   -4.6073   -1.1884 H   0  0  0  0  0  0  0  0  0  0  0  0
    1.4445   -3.0627   -1.5201 H   0  0  0  0  0  0  0  0  0  0  0  0
    1.9872   -3.4398    0.1111 H   0  0  0  0  0  0  0  0  0  0  0  0
    8.6002   -3.2259   -0.1842 H   0  0  0  0  0  0  0  0  0  0  0  0
    3.6531   -5.2103    0.6119 H   0  0  0  0  0  0  0  0  0  0  0  0
    5.8724   -4.8466    2.6490 H   0  0  0  0  0  0  0  0  0  0  0  0
    4.1979   -4.3496    2.8089 H   0  0  0  0  0  0  0  0  0  0  0  0
    5.2833   -6.7504    3.7626 H   0  0  0  0  0  0  0  0  0  0  0  0
    3.0278   -6.6269    4.4818 H   0  0  0  0  0  0  0  0  0  0  0  0
    2.4649   -6.1152    2.8880 H   0  0  0  0  0  0  0  0  0  0  0  0
    0.7800   -7.9699    2.4616 H   0  0  0  0  0  0  0  0  0  0  0  0
    1.7043   -8.9920    5.2489 H   0  0  0  0  0  0  0  0  0  0  0  0
    0.2593   -7.9818    4.8626 H   0  0  0  0  0  0  0  0  0  0  0  0
    0.2581  -10.8770    4.7034 H   0  0  0  0  0  0  0  0  0  0  0  0
   -0.7970   -9.8414    3.6723 H   0  0  0  0  0  0  0  0  0  0  0  0
    0.8074  -10.3435    1.9074 H   0  0  0  0  0  0  0  0  0  0  0  0
    2.1013  -10.7020    3.1142 H   0  0  0  0  0  0  0  0  0  0  0  0
    3.6094   -9.3009    1.3306 H   0  0  0  0  0  0  0  0  0  0  0  0
    2.8314   -7.7575    0.9459 H   0  0  0  0  0  0  0  0  0  0  0  0
    5.6018   -8.2183    2.0296 H   0  0  0  0  0  0  0  0  0  0  0  0
    4.8137   -7.0570   -0.3825 H   0  0  0  0  0  0  0  0  0  0  0  0
    6.2877   -6.6734    0.4933 H   0  0  0  0  0  0  0  0  0  0  0  0
    3.4075   -8.7661    3.6086 H   0  0  0  0  0  0  0  0  0  0  0  0
  1  2  1  0
  1 23  1  0
  1 24  1  0
  1 25  1  0
  2 22  1  0
  2  3  2  0
  3  4  1  0
  4  5  1  0
  5 22  2  0
  5  6  1  0
  6  7  2  0
  7  8  1  0
  7 26  1  0
  8  9  2  0
  9 10  1  0
  9 22  1  0
 10 21  1  0
 10 11  1  0
 10 27  1  1
 11 12  1  0
 11 28  1  0
 11 29  1  0
 12 20  1  0
 12 13  1  0
 12 30  1  1
 13 14  1  0
 13 31  1  0
 13 32  1  0
 14 15  1  0
 14 19  1  0
 14 45  1  1
 15 18  1  0
 15 16  1  0
 15 33  1  0
 16 17  1  0
 16 34  1  0
 16 35  1  0
 17 18  1  0
 17 36  1  0
 17 37  1  0
 18 38  1  0
 18 39  1  0
 19 20  1  0
 19 40  1  0
 19 41  1  0
 20 21  1  0
 20 42  1  1
 21 43  1  0
 21 44  1  0
M  CHG  1  14   1
M  END
>  <i_m_ct_stereo_status>  (224) 
1

>  <s_m_source_file>  (224) 
/var/tmp/pbs.5076255.sched01/tmpfes5ahby/80lk6pwr5_.sdf

>  <i_m_source_file_index>  (224) 
6

>  <i_lp_mmshare_version>  (224) 
48012

>  <i_f3d_flags>  (224) 
0

>  <s_epik_input>  (224) 
bzFuYyhbQ0gzXSljKGMxMiljKG5bY0hdbjIpW0NASF0oW0NIMl0zKVtDSDJdW0NAQEhdKFtDQEBIXTM0KVtDSDJdTihbQ0gyXTQpW0NIXTVbQ0gyXVtDSDJdW0NIMl01

>  <s_epik_cmdline>  (224) 
J2VwaWtfcHl0aG9uJywgJy1waHQnLCAnMi4wJywgJy1waCcsICc3LjAnLCAnLXRuJywgJzgnLCAnLW1hJywgJzIwMCcsICctaW1hZScsICc8aW5maWxlLm1hZT4nLCAnLW9tYWUnLCAnPG91dGZpbGUubWFlPic=

>  <r_epik_Ionization_Penalty>  (224) 
0.000456397

>  <r_epik_Ionization_Penalty_Charging>  (224) 
0.000456287

>  <r_epik_Ionization_Penalty_Neutral>  (224) 
1.0999e-07

>  <r_epik_State_Penalty>  (224) 
0.000282138

>  <r_epik_Charging_Adjusted_Penalty>  (224) 
0.000738425

>  <i_epik_Tot_Q>  (224) 
1

>  <i_epik_Tot_abs_Q>  (224) 
1

>  <s_lp_Force_Field>  (224) 
OPLS3e

>  <r_lp_Energy>  (224) 
31.765

>  <b_lp_Chiralities_Consistent>  (224) 
1

>  <s_lp_Variant>  (224) 
52:0-1

>  <s_i_glide_gridfile>  (224) 
pfpi4k_grid

>  <i_i_glide_lignum>  (224) 
6

>  <i_i_glide_rotatable_bonds>  (224) 
2

>  <r_i_docking_score>  (224) 
-3.7672

>  <r_i_glide_ligand_efficiency>  (224) 
-0.171236

>  <r_i_glide_ligand_efficiency_sa>  (224) 
-0.479811

>  <r_i_glide_ligand_efficiency_ln>  (224) 
-0.920842

>  <r_i_glide_gscore>  (224) 
-3.7672

>  <r_i_glide_lipo>  (224) 
-0.433309

>  <r_i_glide_hbond>  (224) 
-0.16

>  <r_i_glide_metal>  (224) 
-0

>  <r_i_glide_rewards>  (224) 
-1.56628

>  <r_i_glide_evdw>  (224) 
-21.7462

>  <r_i_glide_ecoul>  (224) 
-5.63494

>  <r_i_glide_erotb>  (224) 
0.409789

>  <r_i_glide_esite>  (224) 
-0.0848498

>  <r_i_glide_emodel>  (224) 
-36.5517

>  <r_i_glide_energy>  (224) 
-27.3811

>  <r_i_glide_einternal>  (224) 
0.0251726

>  <r_i_glide_intrahb_reward>  (224) 
-0

>  <i_i_glide_confnum>  (224) 
2

>  <i_i_glide_posenum>  (224) 
15

>  <r_i_glide_eff_state_penalty>  (224) 
0

>  <ligand_id>  (224) 
52

>  <original_smiles>  (224) 
Cc1noc2ncnc(C3CC4CN(C5CCC5)CC4C3)c12

>  <smiles>  (224) 
[H]c1nc(C2([H])C([H])([H])C3([H])C([H])(C2([H])[H])C([H])([H])[N+]([H])(C2([H])C([H])([H])C([H])([H])C2([H])[H])C3([H])[H])c2c(C([H])([H])[H])noc2n1

$$$$
52:0:1
     RDKit          3D

 45 49  0  0  1  0  0  0  0  0999 V2000
    3.6139   -4.8439    0.1321 C   0  0  0  0  0  0  0  0  0  0  0  0
    5.0671   -4.4657    0.2123 C   0  0  0  0  0  0  0  0  0  0  0  0
    5.4242   -3.3117   -0.3531 N   0  0  0  0  0  0  0  0  0  0  0  0
    6.8151   -3.1519   -0.1738 O   0  0  0  0  0  0  0  0  0  0  0  0
    7.3191   -4.2382    0.5184 C   0  0  0  0  0  0  0  0  0  0  0  0
    8.6216   -4.4345    0.8705 N   0  0  0  0  0  0  0  0  0  0  0  0
    8.7514   -5.5663    1.5700 C   0  0  0  0  0  0  0  0  0  0  0  0
    7.8115   -6.4526    1.8973 N   0  0  0  0  0  0  0  0  0  0  0  0
    6.5229   -6.2833    1.4906 C   0  0  0  0  0  0  0  0  0  0  0  0
    5.5377   -7.3862    1.8939 C   0  0  2  0  0  0  0  0  0  0  0  0
    6.1926   -8.7688    2.1092 C   0  0  0  0  0  0  0  0  0  0  0  0
    5.0867   -9.8114    1.8724 C   0  0  1  0  0  0  0  0  0  0  0  0
    4.3679  -10.2754    3.1543 C   0  0  0  0  0  0  0  0  0  0  0  0
    2.9540  -10.3890    2.7465 N   0  0  1  0  0  0  0  0  0  0  0  0
    1.9812  -10.5572    3.8573 C   0  0  0  0  0  0  0  0  0  0  0  0
    2.1740  -11.8485    4.6542 C   0  0  0  0  0  0  0  0  0  0  0  0
    0.6504  -12.0091    4.6503 C   0  0  0  0  0  0  0  0  0  0  0  0
    0.6188  -11.1069    3.4168 C   0  0  0  0  0  0  0  0  0  0  0  0
    2.7238   -9.2091    1.8998 C   0  0  0  0  0  0  0  0  0  0  0  0
    3.9978   -9.1194    1.0523 C   0  0  1  0  0  0  0  0  0  0  0  0
    4.4621   -7.6877    0.8432 C   0  0  0  0  0  0  0  0  0  0  0  0
    6.2297   -5.0790    0.7750 C   0  0  0  0  0  0  0  0  0  0  0  0
    3.4929   -5.7554   -0.4373 H   0  0  0  0  0  0  0  0  0  0  0  0
    3.0090   -4.0717   -0.3492 H   0  0  0  0  0  0  0  0  0  0  0  0
    3.1851   -5.0054    1.1216 H   0  0  0  0  0  0  0  0  0  0  0  0
    9.7528   -5.8201    1.8949 H   0  0  0  0  0  0  0  0  0  0  0  0
    5.0376   -7.0798    2.8131 H   0  0  0  0  0  0  0  0  0  0  0  0
    6.9568   -8.9358    1.3507 H   0  0  0  0  0  0  0  0  0  0  0  0
    6.6772   -8.8583    3.0883 H   0  0  0  0  0  0  0  0  0  0  0  0
    5.4722  -10.6741    1.3236 H   0  0  0  0  0  0  0  0  0  0  0  0
    4.7687  -11.2135    3.5338 H   0  0  0  0  0  0  0  0  0  0  0  0
    4.4377   -9.5097    3.9339 H   0  0  0  0  0  0  0  0  0  0  0  0
    1.8929   -9.6775    4.5117 H   0  0  0  0  0  0  0  0  0  0  0  0
    2.6888  -12.6238    4.0883 H   0  0  0  0  0  0  0  0  0  0  0  0
    2.6135  -11.7242    5.6461 H   0  0  0  0  0  0  0  0  0  0  0  0
    0.2865  -13.0243    4.4873 H   0  0  0  0  0  0  0  0  0  0  0  0
    0.1918  -11.5507    5.5258 H   0  0  0  0  0  0  0  0  0  0  0  0
   -0.1933  -10.3771    3.4061 H   0  0  0  0  0  0  0  0  0  0  0  0
    0.6413  -11.6961    2.4976 H   0  0  0  0  0  0  0  0  0  0  0  0
    1.8178   -9.2773    1.3015 H   0  0  0  0  0  0  0  0  0  0  0  0
    2.6293   -8.3395    2.5551 H   0  0  0  0  0  0  0  0  0  0  0  0
    3.8380   -9.6209    0.0991 H   0  0  0  0  0  0  0  0  0  0  0  0
    3.6111   -7.0623    0.9374 H   0  0  0  0  0  0  0  0  0  0  0  0
    4.8955   -7.6010   -0.1493 H   0  0  0  0  0  0  0  0  0  0  0  0
    2.9033  -11.2019    2.1337 H   0  0  0  0  0  0  0  0  0  0  0  0
  1  2  1  0
  1 23  1  0
  1 24  1  0
  1 25  1  0
  2 22  1  0
  2  3  2  0
  3  4  1  0
  4  5  1  0
  5 22  2  0
  5  6  1  0
  6  7  2  0
  7  8  1  0
  7 26  1  0
  8  9  2  0
  9 10  1  0
  9 22  1  0
 10 21  1  0
 10 11  1  0
 10 27  1  1
 11 12  1  0
 11 28  1  0
 11 29  1  0
 12 20  1  0
 12 13  1  0
 12 30  1  6
 13 14  1  0
 13 31  1  0
 13 32  1  0
 14 15  1  0
 14 19  1  0
 14 45  1  6
 15 18  1  0
 15 16  1  0
 15 33  1  0
 16 17  1  0
 16 34  1  0
 16 35  1  0
 17 18  1  0
 17 36  1  0
 17 37  1  0
 18 38  1  0
 18 39  1  0
 19 20  1  0
 19 40  1  0
 19 41  1  0
 20 21  1  0
 20 42  1  6
 21 43  1  0
 21 44  1  0
M  CHG  1  14   1
M  END
>  <i_m_ct_stereo_status>  (225) 
1

>  <s_m_source_file>  (225) 
/var/tmp/pbs.5076255.sched01/tmpfes5ahby/80lk6pwr5_.sdf

>  <i_m_source_file_index>  (225) 
6

>  <i_lp_mmshare_version>  (225) 
48012

>  <i_f3d_flags>  (225) 
0

>  <s_epik_input>  (225) 
bzFuYyhbQ0gzXSljKGMxMiljKG5bY0hdbjIpW0NASF0oW0NIMl0zKVtDSDJdW0NAQEhdKFtDQEBIXTM0KVtDSDJdTihbQ0gyXTQpW0NIXTVbQ0gyXVtDSDJdW0NIMl01

>  <s_epik_cmdline>  (225) 
J2VwaWtfcHl0aG9uJywgJy1waHQnLCAnMi4wJywgJy1waCcsICc3LjAnLCAnLXRuJywgJzgnLCAnLW1hJywgJzIwMCcsICctaW1hZScsICc8aW5maWxlLm1hZT4nLCAnLW9tYWUnLCAnPG91dGZpbGUubWFlPic=

>  <r_epik_Ionization_Penalty>  (225) 
0.000456397

>  <r_epik_Ionization_Penalty_Charging>  (225) 
0.000456287

>  <r_epik_Ionization_Penalty_Neutral>  (225) 
1.0999e-07

>  <r_epik_State_Penalty>  (225) 
0.000282138

>  <r_epik_Charging_Adjusted_Penalty>  (225) 
0.000738425

>  <i_epik_Tot_Q>  (225) 
1

>  <i_epik_Tot_abs_Q>  (225) 
1

>  <s_lp_Force_Field>  (225) 
OPLS3e

>  <r_lp_Energy>  (225) 
31.765

>  <b_lp_Chiralities_Consistent>  (225) 
1

>  <s_lp_Variant>  (225) 
52:0-1

>  <s_i_glide_gridfile>  (225) 
pfpi4k_grid

>  <i_i_glide_lignum>  (225) 
6

>  <i_i_glide_rotatable_bonds>  (225) 
2

>  <r_i_docking_score>  (225) 
-3.60547

>  <r_i_glide_ligand_efficiency>  (225) 
-0.163885

>  <r_i_glide_ligand_efficiency_sa>  (225) 
-0.459213

>  <r_i_glide_ligand_efficiency_ln>  (225) 
-0.881309

>  <r_i_glide_gscore>  (225) 
-3.60547

>  <r_i_glide_lipo>  (225) 
-0.652186

>  <r_i_glide_hbond>  (225) 
-0.0328264

>  <r_i_glide_metal>  (225) 
-0

>  <r_i_glide_rewards>  (225) 
-1.36779

>  <r_i_glide_evdw>  (225) 
-24.3458

>  <r_i_glide_ecoul>  (225) 
-4.47384

>  <r_i_glide_erotb>  (225) 
0.409789

>  <r_i_glide_esite>  (225) 
-0.0740939

>  <r_i_glide_emodel>  (225) 
-34.0488

>  <r_i_glide_energy>  (225) 
-28.8196

>  <r_i_glide_einternal>  (225) 
5.40589

>  <r_i_glide_intrahb_reward>  (225) 
-0

>  <i_i_glide_confnum>  (225) 
1

>  <i_i_glide_posenum>  (225) 
11

>  <r_i_glide_eff_state_penalty>  (225) 
0

>  <ligand_id>  (225) 
52

>  <original_smiles>  (225) 
Cc1noc2ncnc(C3CC4CN(C5CCC5)CC4C3)c12

>  <smiles>  (225) 
[H]c1nc(C2([H])C([H])([H])C3([H])C([H])(C2([H])[H])C([H])([H])[N+]([H])(C2([H])C([H])([H])C([H])([H])C2([H])[H])C3([H])[H])c2c(C([H])([H])[H])noc2n1

$$$$
52:0:2
     RDKit          3D

 45 49  0  0  1  0  0  0  0  0999 V2000
    4.1693   -4.1676   -0.2666 C   0  0  0  0  0  0  0  0  0  0  0  0
    5.6526   -4.1638   -0.0214 C   0  0  0  0  0  0  0  0  0  0  0  0
    6.3866   -3.2449   -0.6280 N   0  0  0  0  0  0  0  0  0  0  0  0
    7.7384   -3.4591   -0.2391 O   0  0  0  0  0  0  0  0  0  0  0  0
    7.8384   -4.5322    0.6273 C   0  0  0  0  0  0  0  0  0  0  0  0
    8.9576   -5.0595    1.2171 N   0  0  0  0  0  0  0  0  0  0  0  0
    8.6100   -6.1012    1.9803 C   0  0  0  0  0  0  0  0  0  0  0  0
    7.4011   -6.6318    2.1981 N   0  0  0  0  0  0  0  0  0  0  0  0
    6.3100   -6.0953    1.6053 C   0  0  0  0  0  0  0  0  0  0  0  0
    4.9727   -6.7781    1.9212 C   0  0  2  0  0  0  0  0  0  0  0  0
    4.6512   -6.8509    3.4264 C   0  0  0  0  0  0  0  0  0  0  0  0
    3.6731   -8.0242    3.5843 C   0  0  1  0  0  0  0  0  0  0  0  0
    2.2012   -7.6180    3.6118 C   0  0  0  0  0  0  0  0  0  0  0  0
    1.5003   -8.6708    2.8566 N   0  0  1  0  0  0  0  0  0  0  0  0
    0.0919   -8.3799    2.4906 C   0  0  0  0  0  0  0  0  0  0  0  0
   -0.7423   -7.7179    3.6004 C   0  0  0  0  0  0  0  0  0  0  0  0
   -1.8918   -8.6499    3.2163 C   0  0  0  0  0  0  0  0  0  0  0  0
   -0.8385   -9.5949    2.6218 C   0  0  0  0  0  0  0  0  0  0  0  0
    2.4009   -8.9428    1.7232 C   0  0  0  0  0  0  0  0  0  0  0  0
    3.8084   -8.8994    2.3302 C   0  0  1  0  0  0  0  0  0  0  0  0
    4.8844   -8.2418    1.4481 C   0  0  0  0  0  0  0  0  0  0  0  0
    6.5113   -4.9838    0.7688 C   0  0  0  0  0  0  0  0  0  0  0  0
    3.8391   -5.1084   -0.7053 H   0  0  0  0  0  0  0  0  0  0  0  0
    3.8950   -3.3775   -0.9676 H   0  0  0  0  0  0  0  0  0  0  0  0
    3.6139   -3.9869    0.6534 H   0  0  0  0  0  0  0  0  0  0  0  0
    9.4117   -6.5864    2.5199 H   0  0  0  0  0  0  0  0  0  0  0  0
    4.1568   -6.2391    1.4423 H   0  0  0  0  0  0  0  0  0  0  0  0
    5.5415   -7.1117    3.9953 H   0  0  0  0  0  0  0  0  0  0  0  0
    4.2793   -5.9074    3.8333 H   0  0  0  0  0  0  0  0  0  0  0  0
    3.9002   -8.6048    4.4816 H   0  0  0  0  0  0  0  0  0  0  0  0
    1.8497   -7.5120    4.6282 H   0  0  0  0  0  0  0  0  0  0  0  0
    2.0512   -6.6769    3.0966 H   0  0  0  0  0  0  0  0  0  0  0  0
   -0.0263   -7.8683    1.5320 H   0  0  0  0  0  0  0  0  0  0  0  0
   -0.4051   -7.9176    4.6190 H   0  0  0  0  0  0  0  0  0  0  0  0
   -0.9395   -6.6574    3.4445 H   0  0  0  0  0  0  0  0  0  0  0  0
   -2.4409   -9.0569    4.0682 H   0  0  0  0  0  0  0  0  0  0  0  0
   -2.5608   -8.2240    2.4687 H   0  0  0  0  0  0  0  0  0  0  0  0
   -1.1416  -10.0609    1.6800 H   0  0  0  0  0  0  0  0  0  0  0  0
   -0.5090  -10.3451    3.3473 H   0  0  0  0  0  0  0  0  0  0  0  0
    2.1767   -9.8797    1.2233 H   0  0  0  0  0  0  0  0  0  0  0  0
    2.2872   -8.1361    1.0083 H   0  0  0  0  0  0  0  0  0  0  0  0
    4.1072   -9.9118    2.6022 H   0  0  0  0  0  0  0  0  0  0  0  0
    4.7018   -8.3412    0.3733 H   0  0  0  0  0  0  0  0  0  0  0  0
    5.8268   -8.7510    1.6535 H   0  0  0  0  0  0  0  0  0  0  0  0
    1.5121   -9.4878    3.4509 H   0  0  0  0  0  0  0  0  0  0  0  0
  1  2  1  0
  1 23  1  0
  1 24  1  0
  1 25  1  0
  2 22  1  0
  2  3  2  0
  3  4  1  0
  4  5  1  0
  5 22  2  0
  5  6  1  0
  6  7  2  0
  7  8  1  0
  7 26  1  0
  8  9  2  0
  9 10  1  0
  9 22  1  0
 10 21  1  0
 10 11  1  0
 10 27  1  6
 11 12  1  0
 11 28  1  0
 11 29  1  0
 12 20  1  0
 12 13  1  0
 12 30  1  1
 13 14  1  0
 13 31  1  0
 13 32  1  0
 14 15  1  0
 14 19  1  0
 14 45  1  1
 15 18  1  0
 15 16  1  0
 15 33  1  0
 16 17  1  0
 16 34  1  0
 16 35  1  0
 17 18  1  0
 17 36  1  0
 17 37  1  0
 18 38  1  0
 18 39  1  0
 19 20  1  0
 19 40  1  0
 19 41  1  0
 20 21  1  0
 20 42  1  1
 21 43  1  0
 21 44  1  0
M  CHG  1  14   1
M  END
>  <i_m_ct_stereo_status>  (226) 
1

>  <s_m_source_file>  (226) 
/var/tmp/pbs.5076255.sched01/tmpfes5ahby/80lk6pwr5_.sdf

>  <i_m_source_file_index>  (226) 
6

>  <i_lp_mmshare_version>  (226) 
48012

>  <i_f3d_flags>  (226) 
0

>  <s_epik_input>  (226) 
bzFuYyhbQ0gzXSljKGMxMiljKG5bY0hdbjIpW0NASF0oW0NIMl0zKVtDSDJdW0NAQEhdKFtDQEBIXTM0KVtDSDJdTihbQ0gyXTQpW0NIXTVbQ0gyXVtDSDJdW0NIMl01

>  <s_epik_cmdline>  (226) 
J2VwaWtfcHl0aG9uJywgJy1waHQnLCAnMi4wJywgJy1waCcsICc3LjAnLCAnLXRuJywgJzgnLCAnLW1hJywgJzIwMCcsICctaW1hZScsICc8aW5maWxlLm1hZT4nLCAnLW9tYWUnLCAnPG91dGZpbGUubWFlPic=

>  <r_epik_Ionization_Penalty>  (226) 
0.000456397

>  <r_epik_Ionization_Penalty_Charging>  (226) 
0.000456287

>  <r_epik_Ionization_Penalty_Neutral>  (226) 
1.0999e-07

>  <r_epik_State_Penalty>  (226) 
0.000282138

>  <r_epik_Charging_Adjusted_Penalty>  (226) 
0.000738425

>  <i_epik_Tot_Q>  (226) 
1

>  <i_epik_Tot_abs_Q>  (226) 
1

>  <s_lp_Force_Field>  (226) 
OPLS3e

>  <r_lp_Energy>  (226) 
31.765

>  <b_lp_Chiralities_Consistent>  (226) 
1

>  <s_lp_Variant>  (226) 
52:0-1

>  <s_i_glide_gridfile>  (226) 
pfpi4k_grid

>  <i_i_glide_lignum>  (226) 
6

>  <i_i_glide_rotatable_bonds>  (226) 
2

>  <r_i_docking_score>  (226) 
-3.42186

>  <r_i_glide_ligand_efficiency>  (226) 
-0.155539

>  <r_i_glide_ligand_efficiency_sa>  (226) 
-0.435827

>  <r_i_glide_ligand_efficiency_ln>  (226) 
-0.836428

>  <r_i_glide_gscore>  (226) 
-3.42186

>  <r_i_glide_lipo>  (226) 
-0.56621

>  <r_i_glide_hbond>  (226) 
0

>  <r_i_glide_metal>  (226) 
-0

>  <r_i_glide_rewards>  (226) 
-1.36779

>  <r_i_glide_evdw>  (226) 
-22.7592

>  <r_i_glide_ecoul>  (226) 
-4.64828

>  <r_i_glide_erotb>  (226) 
0.409789

>  <r_i_glide_esite>  (226) 
-0.0624502

>  <r_i_glide_emodel>  (226) 
-34.6406

>  <r_i_glide_energy>  (226) 
-27.4075

>  <r_i_glide_einternal>  (226) 
1.77494

>  <r_i_glide_intrahb_reward>  (226) 
-0

>  <i_i_glide_confnum>  (226) 
2

>  <i_i_glide_posenum>  (226) 
1

>  <r_i_glide_eff_state_penalty>  (226) 
0

>  <ligand_id>  (226) 
52

>  <original_smiles>  (226) 
Cc1noc2ncnc(C3CC4CN(C5CCC5)CC4C3)c12

>  <smiles>  (226) 
[H]c1nc(C2([H])C([H])([H])C3([H])C([H])(C2([H])[H])C([H])([H])[N+]([H])(C2([H])C([H])([H])C([H])([H])C2([H])[H])C3([H])[H])c2c(C([H])([H])[H])noc2n1

$$$$
52:1:0
     RDKit          3D

 45 49  0  0  1  0  0  0  0  0999 V2000
    2.3039   -3.2729   -1.3923 C   0  0  0  0  0  0  0  0  0  0  0  0
    3.6995   -2.7395   -1.2659 C   0  0  0  0  0  0  0  0  0  0  0  0
    4.0047   -1.5991   -1.8790 N   0  0  0  0  0  0  0  0  0  0  0  0
    5.3684   -1.3136   -1.5944 O   0  0  0  0  0  0  0  0  0  0  0  0
    5.9121   -2.3094   -0.7896 C   0  0  0  0  0  0  0  0  0  0  0  0
    7.1931   -2.3982   -0.3154 N   0  0  0  0  0  0  0  0  0  0  0  0
    7.3122   -3.5046    0.4294 C   0  0  0  0  0  0  0  0  0  0  0  0
    6.3954   -4.4236    0.7158 N   0  0  0  0  0  0  0  0  0  0  0  0
    5.1412   -4.3367    0.2177 C   0  0  0  0  0  0  0  0  0  0  0  0
    4.1601   -5.4459    0.6003 C   0  0  1  0  0  0  0  0  0  0  0  0
    4.6779   -6.8640    0.2880 C   0  0  0  0  0  0  0  0  0  0  0  0
    3.8833   -7.7965    1.2165 C   0  0  1  0  0  0  0  0  0  0  0  0
    4.6499   -8.9364    1.8917 C   0  0  0  0  0  0  0  0  0  0  0  0
    4.0280   -9.0266    3.2201 N   0  0  1  0  0  0  0  0  0  0  0  0
    4.7451   -9.8672    4.1998 C   0  0  0  0  0  0  0  0  0  0  0  0
    4.6990  -11.3657    3.8670 C   0  0  0  0  0  0  0  0  0  0  0  0
    4.3925  -11.6381    5.3454 C   0  0  0  0  0  0  0  0  0  0  0  0
    3.9228  -10.1825    5.4590 C   0  0  0  0  0  0  0  0  0  0  0  0
    3.8120   -7.6275    3.6252 C   0  0  0  0  0  0  0  0  0  0  0  0
    3.3271   -6.9315    2.3505 C   0  0  1  0  0  0  0  0  0  0  0  0
    3.8304   -5.5001    2.1037 C   0  0  0  0  0  0  0  0  0  0  0  0
    4.8582   -3.1992   -0.5869 C   0  0  0  0  0  0  0  0  0  0  0  0
    2.2788   -4.2534   -1.8299 H   0  0  0  0  0  0  0  0  0  0  0  0
    1.7104   -2.6553   -2.0591 H   0  0  0  0  0  0  0  0  0  0  0  0
    1.8144   -3.2946   -0.4221 H   0  0  0  0  0  0  0  0  0  0  0  0
    8.2814   -3.6859    0.8481 H   0  0  0  0  0  0  0  0  0  0  0  0
    3.2193   -5.3276    0.0595 H   0  0  0  0  0  0  0  0  0  0  0  0
    4.5954   -7.1181   -0.7700 H   0  0  0  0  0  0  0  0  0  0  0  0
    5.7328   -6.9420    0.5448 H   0  0  0  0  0  0  0  0  0  0  0  0
    3.0395   -8.2361    0.6998 H   0  0  0  0  0  0  0  0  0  0  0  0
    4.5887   -9.8709    1.3393 H   0  0  0  0  0  0  0  0  0  0  0  0
    5.6971   -8.6775    2.0205 H   0  0  0  0  0  0  0  0  0  0  0  0
    5.7552   -9.5267    4.4339 H   0  0  0  0  0  0  0  0  0  0  0  0
    3.8669  -11.6536    3.2217 H   0  0  0  0  0  0  0  0  0  0  0  0
    5.6439  -11.7857    3.5079 H   0  0  0  0  0  0  0  0  0  0  0  0
    3.6129  -12.3839    5.5297 H   0  0  0  0  0  0  0  0  0  0  0  0
    5.2905  -11.8395    5.9274 H   0  0  0  0  0  0  0  0  0  0  0  0
    4.2575   -9.6701    6.3637 H   0  0  0  0  0  0  0  0  0  0  0  0
    2.8418  -10.0960    5.3299 H   0  0  0  0  0  0  0  0  0  0  0  0
    3.1055   -7.5303    4.4430 H   0  0  0  0  0  0  0  0  0  0  0  0
    4.7668   -7.2222    3.9507 H   0  0  0  0  0  0  0  0  0  0  0  0
    2.2360   -6.9623    2.3044 H   0  0  0  0  0  0  0  0  0  0  0  0
    4.7399   -5.3392    2.6786 H   0  0  0  0  0  0  0  0  0  0  0  0
    3.1082   -4.7425    2.4111 H   0  0  0  0  0  0  0  0  0  0  0  0
    3.1129   -9.4277    3.0862 H   0  0  0  0  0  0  0  0  0  0  0  0
  1  2  1  0
  1 23  1  0
  1 24  1  0
  1 25  1  0
  2 22  1  0
  2  3  2  0
  3  4  1  0
  4  5  1  0
  5 22  2  0
  5  6  1  0
  6  7  2  0
  7  8  1  0
  7 26  1  0
  8  9  2  0
  9 10  1  0
  9 22  1  0
 10 21  1  0
 10 11  1  0
 10 27  1  6
 11 12  1  0
 11 28  1  0
 11 29  1  0
 12 20  1  0
 12 13  1  0
 12 30  1  6
 13 14  1  0
 13 31  1  0
 13 32  1  0
 14 15  1  0
 14 19  1  0
 14 45  1  6
 15 18  1  0
 15 16  1  0
 15 33  1  0
 16 17  1  0
 16 34  1  0
 16 35  1  0
 17 18  1  0
 17 36  1  0
 17 37  1  0
 18 38  1  0
 18 39  1  0
 19 20  1  0
 19 40  1  0
 19 41  1  0
 20 21  1  0
 20 42  1  1
 21 43  1  0
 21 44  1  0
M  CHG  1  14   1
M  END
>  <i_m_ct_stereo_status>  (227) 
1

>  <s_m_source_file>  (227) 
/var/tmp/pbs.5076255.sched01/tmpfes5ahby/80lk6pwr5_.sdf

>  <i_m_source_file_index>  (227) 
7

>  <i_lp_mmshare_version>  (227) 
48012

>  <i_f3d_flags>  (227) 
0

>  <s_epik_input>  (227) 
bzFuYyhbQ0gzXSljKGMxMiljKG5bY0hdbjIpW0NASF0oW0NIMl0zKVtDSDJdW0NAQEhdKFtDQEBIXTM0KVtDSDJdTihbQ0gyXTQpW0NIXTVbQ0gyXVtDSDJdW0NIMl01

>  <s_epik_cmdline>  (227) 
J2VwaWtfcHl0aG9uJywgJy1waHQnLCAnMi4wJywgJy1waCcsICc3LjAnLCAnLXRuJywgJzgnLCAnLW1hJywgJzIwMCcsICctaW1hZScsICc8aW5maWxlLm1hZT4nLCAnLW9tYWUnLCAnPG91dGZpbGUubWFlPic=

>  <r_epik_Ionization_Penalty>  (227) 
0.000456397

>  <r_epik_Ionization_Penalty_Charging>  (227) 
0.000456287

>  <r_epik_Ionization_Penalty_Neutral>  (227) 
1.0999e-07

>  <r_epik_State_Penalty>  (227) 
0.000282138

>  <r_epik_Charging_Adjusted_Penalty>  (227) 
0.000738425

>  <i_epik_Tot_Q>  (227) 
1

>  <i_epik_Tot_abs_Q>  (227) 
1

>  <s_lp_Force_Field>  (227) 
OPLS3e

>  <r_lp_Energy>  (227) 
30.8665

>  <b_lp_Chiralities_Consistent>  (227) 
1

>  <s_lp_Variant>  (227) 
52:0-2

>  <s_i_glide_gridfile>  (227) 
pfpi4k_grid

>  <i_i_glide_lignum>  (227) 
7

>  <i_i_glide_rotatable_bonds>  (227) 
2

>  <r_i_docking_score>  (227) 
-3.29447

>  <r_i_glide_ligand_efficiency>  (227) 
-0.149749

>  <r_i_glide_ligand_efficiency_sa>  (227) 
-0.419602

>  <r_i_glide_ligand_efficiency_ln>  (227) 
-0.805289

>  <r_i_glide_gscore>  (227) 
-3.29447

>  <r_i_glide_lipo>  (227) 
-0.341247

>  <r_i_glide_hbond>  (227) 
-0.0459228

>  <r_i_glide_metal>  (227) 
-0

>  <r_i_glide_rewards>  (227) 
-1.57638

>  <r_i_glide_evdw>  (227) 
-19.4874

>  <r_i_glide_ecoul>  (227) 
-4.3416

>  <r_i_glide_erotb>  (227) 
0.409789

>  <r_i_glide_esite>  (227) 
-0.115108

>  <r_i_glide_emodel>  (227) 
-30.3399

>  <r_i_glide_energy>  (227) 
-23.829

>  <r_i_glide_einternal>  (227) 
0.200113

>  <r_i_glide_intrahb_reward>  (227) 
-0

>  <i_i_glide_confnum>  (227) 
2

>  <i_i_glide_posenum>  (227) 
14

>  <r_i_glide_eff_state_penalty>  (227) 
0

>  <ligand_id>  (227) 
52

>  <original_smiles>  (227) 
Cc1noc2ncnc(C3CC4CN(C5CCC5)CC4C3)c12

>  <smiles>  (227) 
[H]c1nc(C2([H])C([H])([H])C3([H])C([H])(C2([H])[H])C([H])([H])[N+]([H])(C2([H])C([H])([H])C([H])([H])C2([H])[H])C3([H])[H])c2c(C([H])([H])[H])noc2n1

$$$$
52:1:1
     RDKit          3D

 45 49  0  0  1  0  0  0  0  0999 V2000
    8.7221   -5.8748    0.4782 C   0  0  0  0  0  0  0  0  0  0  0  0
    7.8829   -4.6296    0.5059 C   0  0  0  0  0  0  0  0  0  0  0  0
    8.4670   -3.4538    0.2807 N   0  0  0  0  0  0  0  0  0  0  0  0
    7.4634   -2.4525    0.3782 O   0  0  0  0  0  0  0  0  0  0  0  0
    6.2385   -3.0363    0.6674 C   0  0  0  0  0  0  0  0  0  0  0  0
    5.0355   -2.4191    0.8480 N   0  0  0  0  0  0  0  0  0  0  0  0
    4.0908   -3.3139    1.1354 C   0  0  0  0  0  0  0  0  0  0  0  0
    4.2030   -4.6416    1.2597 N   0  0  0  0  0  0  0  0  0  0  0  0
    5.3954   -5.2452    1.0388 C   0  0  0  0  0  0  0  0  0  0  0  0
    5.4419   -6.7652    1.1928 C   0  0  1  0  0  0  0  0  0  0  0  0
    5.3601   -7.2481    2.6472 C   0  0  0  0  0  0  0  0  0  0  0  0
    4.8702   -8.7039    2.5484 C   0  0  1  0  0  0  0  0  0  0  0  0
    3.8174   -9.1382    3.5726 C   0  0  0  0  0  0  0  0  0  0  0  0
    2.9210  -10.0313    2.8104 N   0  0  1  0  0  0  0  0  0  0  0  0
    1.6531  -10.3872    3.4941 C   0  0  0  0  0  0  0  0  0  0  0  0
    1.8542  -10.9647    4.9042 C   0  0  0  0  0  0  0  0  0  0  0  0
    0.8325  -12.0466    4.5524 C   0  0  0  0  0  0  0  0  0  0  0  0
    1.1112  -11.7578    3.0757 C   0  0  0  0  0  0  0  0  0  0  0  0
    2.7728   -9.3701    1.5010 C   0  0  0  0  0  0  0  0  0  0  0  0
    4.1873   -8.8647    1.1807 C   0  0  1  0  0  0  0  0  0  0  0  0
    4.2837   -7.4998    0.4876 C   0  0  0  0  0  0  0  0  0  0  0  0
    6.5019   -4.4076    0.7440 C   0  0  0  0  0  0  0  0  0  0  0  0
    8.7061   -6.4030    1.4312 H   0  0  0  0  0  0  0  0  0  0  0  0
    9.7594   -5.6384    0.2767 H   0  0  0  0  0  0  0  0  0  0  0  0
    8.4148   -6.5606   -0.3114 H   0  0  0  0  0  0  0  0  0  0  0  0
    3.0927   -2.9444    1.2985 H   0  0  0  0  0  0  0  0  0  0  0  0
    6.3762   -7.1523    0.7837 H   0  0  0  0  0  0  0  0  0  0  0  0
    6.3158   -7.1606    3.1695 H   0  0  0  0  0  0  0  0  0  0  0  0
    4.6346   -6.6431    3.1920 H   0  0  0  0  0  0  0  0  0  0  0  0
    5.7191   -9.3886    2.5906 H   0  0  0  0  0  0  0  0  0  0  0  0
    4.2585   -9.6298    4.4379 H   0  0  0  0  0  0  0  0  0  0  0  0
    3.2267   -8.2899    3.9202 H   0  0  0  0  0  0  0  0  0  0  0  0
    0.8871   -9.6082    3.4799 H   0  0  0  0  0  0  0  0  0  0  0  0
    2.8400  -11.3966    5.0814 H   0  0  0  0  0  0  0  0  0  0  0  0
    1.5540  -10.2991    5.7180 H   0  0  0  0  0  0  0  0  0  0  0  0
    1.1068  -13.0534    4.8773 H   0  0  0  0  0  0  0  0  0  0  0  0
   -0.1718  -11.7865    4.8758 H   0  0  0  0  0  0  0  0  0  0  0  0
    0.2255  -11.7281    2.4443 H   0  0  0  0  0  0  0  0  0  0  0  0
    1.8806  -12.4162    2.6660 H   0  0  0  0  0  0  0  0  0  0  0  0
    2.3853  -10.0372    0.7363 H   0  0  0  0  0  0  0  0  0  0  0  0
    2.0707   -8.5449    1.6221 H   0  0  0  0  0  0  0  0  0  0  0  0
    4.7231   -9.6226    0.6042 H   0  0  0  0  0  0  0  0  0  0  0  0
    3.3478   -6.9714    0.6583 H   0  0  0  0  0  0  0  0  0  0  0  0
    4.4174   -7.5718   -0.5917 H   0  0  0  0  0  0  0  0  0  0  0  0
    3.4308  -10.8904    2.6344 H   0  0  0  0  0  0  0  0  0  0  0  0
  1  2  1  0
  1 23  1  0
  1 24  1  0
  1 25  1  0
  2 22  1  0
  2  3  2  0
  3  4  1  0
  4  5  1  0
  5 22  2  0
  5  6  1  0
  6  7  2  0
  7  8  1  0
  7 26  1  0
  8  9  2  0
  9 10  1  0
  9 22  1  0
 10 21  1  0
 10 11  1  0
 10 27  1  6
 11 12  1  0
 11 28  1  0
 11 29  1  0
 12 20  1  0
 12 13  1  0
 12 30  1  6
 13 14  1  0
 13 31  1  0
 13 32  1  0
 14 15  1  0
 14 19  1  0
 14 45  1  6
 15 18  1  0
 15 16  1  0
 15 33  1  0
 16 17  1  0
 16 34  1  0
 16 35  1  0
 17 18  1  0
 17 36  1  0
 17 37  1  0
 18 38  1  0
 18 39  1  0
 19 20  1  0
 19 40  1  0
 19 41  1  0
 20 21  1  0
 20 42  1  6
 21 43  1  0
 21 44  1  0
M  CHG  1  14   1
M  END
>  <i_m_ct_stereo_status>  (228) 
1

>  <s_m_source_file>  (228) 
/var/tmp/pbs.5076255.sched01/tmpfes5ahby/80lk6pwr5_.sdf

>  <i_m_source_file_index>  (228) 
7

>  <i_lp_mmshare_version>  (228) 
48012

>  <i_f3d_flags>  (228) 
0

>  <s_epik_input>  (228) 
bzFuYyhbQ0gzXSljKGMxMiljKG5bY0hdbjIpW0NASF0oW0NIMl0zKVtDSDJdW0NAQEhdKFtDQEBIXTM0KVtDSDJdTihbQ0gyXTQpW0NIXTVbQ0gyXVtDSDJdW0NIMl01

>  <s_epik_cmdline>  (228) 
J2VwaWtfcHl0aG9uJywgJy1waHQnLCAnMi4wJywgJy1waCcsICc3LjAnLCAnLXRuJywgJzgnLCAnLW1hJywgJzIwMCcsICctaW1hZScsICc8aW5maWxlLm1hZT4nLCAnLW9tYWUnLCAnPG91dGZpbGUubWFlPic=

>  <r_epik_Ionization_Penalty>  (228) 
0.000456397

>  <r_epik_Ionization_Penalty_Charging>  (228) 
0.000456287

>  <r_epik_Ionization_Penalty_Neutral>  (228) 
1.0999e-07

>  <r_epik_State_Penalty>  (228) 
0.000282138

>  <r_epik_Charging_Adjusted_Penalty>  (228) 
0.000738425

>  <i_epik_Tot_Q>  (228) 
1

>  <i_epik_Tot_abs_Q>  (228) 
1

>  <s_lp_Force_Field>  (228) 
OPLS3e

>  <r_lp_Energy>  (228) 
30.8665

>  <b_lp_Chiralities_Consistent>  (228) 
1

>  <s_lp_Variant>  (228) 
52:0-2

>  <s_i_glide_gridfile>  (228) 
pfpi4k_grid

>  <i_i_glide_lignum>  (228) 
7

>  <i_i_glide_rotatable_bonds>  (228) 
2

>  <r_i_docking_score>  (228) 
-3.19288

>  <r_i_glide_ligand_efficiency>  (228) 
-0.145131

>  <r_i_glide_ligand_efficiency_sa>  (228) 
-0.406663

>  <r_i_glide_ligand_efficiency_ln>  (228) 
-0.780457

>  <r_i_glide_gscore>  (228) 
-3.19288

>  <r_i_glide_lipo>  (228) 
-0.771113

>  <r_i_glide_hbond>  (228) 
0

>  <r_i_glide_metal>  (228) 
-0

>  <r_i_glide_rewards>  (228) 
-1.38175

>  <r_i_glide_evdw>  (228) 
-20.3976

>  <r_i_glide_ecoul>  (228) 
-2.6961

>  <r_i_glide_erotb>  (228) 
0.409789

>  <r_i_glide_esite>  (228) 
-0.0255081

>  <r_i_glide_emodel>  (228) 
-28.7127

>  <r_i_glide_energy>  (228) 
-23.0937

>  <r_i_glide_einternal>  (228) 
1.51353

>  <r_i_glide_intrahb_reward>  (228) 
-0

>  <i_i_glide_confnum>  (228) 
2

>  <i_i_glide_posenum>  (228) 
26

>  <r_i_glide_eff_state_penalty>  (228) 
0

>  <ligand_id>  (228) 
52

>  <original_smiles>  (228) 
Cc1noc2ncnc(C3CC4CN(C5CCC5)CC4C3)c12

>  <smiles>  (228) 
[H]c1nc(C2([H])C([H])([H])C3([H])C([H])(C2([H])[H])C([H])([H])[N+]([H])(C2([H])C([H])([H])C([H])([H])C2([H])[H])C3([H])[H])c2c(C([H])([H])[H])noc2n1

$$$$
52:1:2
     RDKit          3D

 45 49  0  0  1  0  0  0  0  0999 V2000
    1.2357   -4.0236    3.9205 C   0  0  0  0  0  0  0  0  0  0  0  0
    1.1841   -5.5234    3.7637 C   0  0  0  0  0  0  0  0  0  0  0  0
    0.1879   -6.1498    4.3890 N   0  0  0  0  0  0  0  0  0  0  0  0
    0.3185   -7.5378    4.1429 O   0  0  0  0  0  0  0  0  0  0  0  0
    1.4161   -7.7567    3.3365 C   0  0  0  0  0  0  0  0  0  0  0  0
    1.8546   -8.9627    2.8866 N   0  0  0  0  0  0  0  0  0  0  0  0
    2.9491   -8.8381    2.1429 C   0  0  0  0  0  0  0  0  0  0  0  0
    3.5993   -7.7172    1.8115 N   0  0  0  0  0  0  0  0  0  0  0  0
    3.1393   -6.5005    2.2324 C   0  0  0  0  0  0  0  0  0  0  0  0
    3.9647   -5.2784    1.7948 C   0  0  1  0  0  0  0  0  0  0  0  0
    4.6371   -5.4216    0.4125 C   0  0  0  0  0  0  0  0  0  0  0  0
    4.8999   -3.9780   -0.0650 C   0  0  1  0  0  0  0  0  0  0  0  0
    4.5835   -3.6480   -1.5282 C   0  0  0  0  0  0  0  0  0  0  0  0
    3.9657   -2.3104   -1.4966 N   0  0  1  0  0  0  0  0  0  0  0  0
    3.3226   -1.8814   -2.7655 C   0  0  0  0  0  0  0  0  0  0  0  0
    4.2478   -2.0153   -3.9790 C   0  0  0  0  0  0  0  0  0  0  0  0
    3.8022   -0.6224   -4.4170 C   0  0  0  0  0  0  0  0  0  0  0  0
    3.3759   -0.3648   -2.9739 C   0  0  0  0  0  0  0  0  0  0  0  0
    3.0874   -2.3320   -0.3265 C   0  0  0  0  0  0  0  0  0  0  0  0
    3.9242   -3.0921    0.7038 C   0  0  1  0  0  0  0  0  0  0  0  0
    3.1545   -3.9961    1.6278 C   0  0  0  0  0  0  0  0  0  0  0  0
    1.9838   -6.4992    3.0655 C   0  0  0  0  0  0  0  0  0  0  0  0
    2.1971   -3.6972    4.3244 H   0  0  0  0  0  0  0  0  0  0  0  0
    0.4684   -3.6638    4.6075 H   0  0  0  0  0  0  0  0  0  0  0  0
    1.0792   -3.5153    2.9637 H   0  0  0  0  0  0  0  0  0  0  0  0
    3.3913   -9.7441    1.7272 H   0  0  0  0  0  0  0  0  0  0  0  0
    4.7343   -5.0927    2.5464 H   0  0  0  0  0  0  0  0  0  0  0  0
    5.5579   -6.0115    0.4529 H   0  0  0  0  0  0  0  0  0  0  0  0
    3.9521   -5.9258   -0.2762 H   0  0  0  0  0  0  0  0  0  0  0  0
    5.9155   -3.6570    0.1925 H   0  0  0  0  0  0  0  0  0  0  0  0
    5.4709   -3.7279   -2.1596 H   0  0  0  0  0  0  0  0  0  0  0  0
    3.7986   -4.2923   -1.9107 H   0  0  0  0  0  0  0  0  0  0  0  0
    2.3287   -2.3147   -2.9494 H   0  0  0  0  0  0  0  0  0  0  0  0
    5.3020   -2.0414   -3.7012 H   0  0  0  0  0  0  0  0  0  0  0  0
    3.9813   -2.8351   -4.6481 H   0  0  0  0  0  0  0  0  0  0  0  0
    4.6009    0.0293   -4.7631 H   0  0  0  0  0  0  0  0  0  0  0  0
    2.9597   -0.6504   -5.1027 H   0  0  0  0  0  0  0  0  0  0  0  0
    2.4103    0.1316   -2.8732 H   0  0  0  0  0  0  0  0  0  0  0  0
    4.1573    0.1363   -2.3924 H   0  0  0  0  0  0  0  0  0  0  0  0
    2.8060   -1.3315    0.0241 H   0  0  0  0  0  0  0  0  0  0  0  0
    2.1754   -2.8866   -0.5853 H   0  0  0  0  0  0  0  0  0  0  0  0
    4.4823   -2.3742    1.3029 H   0  0  0  0  0  0  0  0  0  0  0  0
    2.1926   -4.2531    1.1792 H   0  0  0  0  0  0  0  0  0  0  0  0
    3.0436   -3.4481    2.5566 H   0  0  0  0  0  0  0  0  0  0  0  0
    4.7086   -1.6513   -1.2743 H   0  0  0  0  0  0  0  0  0  0  0  0
  1  2  1  0
  1 23  1  0
  1 24  1  0
  1 25  1  0
  2 22  1  0
  2  3  2  0
  3  4  1  0
  4  5  1  0
  5 22  2  0
  5  6  1  0
  6  7  2  0
  7  8  1  0
  7 26  1  0
  8  9  2  0
  9 10  1  0
  9 22  1  0
 10 21  1  0
 10 11  1  0
 10 27  1  1
 11 12  1  0
 11 28  1  0
 11 29  1  0
 12 20  1  0
 12 13  1  0
 12 30  1  1
 13 14  1  0
 13 31  1  0
 13 32  1  0
 14 15  1  0
 14 19  1  0
 14 45  1  1
 15 18  1  0
 15 16  1  0
 15 33  1  0
 16 17  1  0
 16 34  1  0
 16 35  1  0
 17 18  1  0
 17 36  1  0
 17 37  1  0
 18 38  1  0
 18 39  1  0
 19 20  1  0
 19 40  1  0
 19 41  1  0
 20 21  1  0
 20 42  1  1
 21 43  1  0
 21 44  1  0
M  CHG  1  14   1
M  END
>  <i_m_ct_stereo_status>  (229) 
1

>  <s_m_source_file>  (229) 
/var/tmp/pbs.5076255.sched01/tmpfes5ahby/80lk6pwr5_.sdf

>  <i_m_source_file_index>  (229) 
7

>  <i_lp_mmshare_version>  (229) 
48012

>  <i_f3d_flags>  (229) 
0

>  <s_epik_input>  (229) 
bzFuYyhbQ0gzXSljKGMxMiljKG5bY0hdbjIpW0NASF0oW0NIMl0zKVtDSDJdW0NAQEhdKFtDQEBIXTM0KVtDSDJdTihbQ0gyXTQpW0NIXTVbQ0gyXVtDSDJdW0NIMl01

>  <s_epik_cmdline>  (229) 
J2VwaWtfcHl0aG9uJywgJy1waHQnLCAnMi4wJywgJy1waCcsICc3LjAnLCAnLXRuJywgJzgnLCAnLW1hJywgJzIwMCcsICctaW1hZScsICc8aW5maWxlLm1hZT4nLCAnLW9tYWUnLCAnPG91dGZpbGUubWFlPic=

>  <r_epik_Ionization_Penalty>  (229) 
0.000456397

>  <r_epik_Ionization_Penalty_Charging>  (229) 
0.000456287

>  <r_epik_Ionization_Penalty_Neutral>  (229) 
1.0999e-07

>  <r_epik_State_Penalty>  (229) 
0.000282138

>  <r_epik_Charging_Adjusted_Penalty>  (229) 
0.000738425

>  <i_epik_Tot_Q>  (229) 
1

>  <i_epik_Tot_abs_Q>  (229) 
1

>  <s_lp_Force_Field>  (229) 
OPLS3e

>  <r_lp_Energy>  (229) 
30.8665

>  <b_lp_Chiralities_Consistent>  (229) 
1

>  <s_lp_Variant>  (229) 
52:0-2

>  <s_i_glide_gridfile>  (229) 
pfpi4k_grid

>  <i_i_glide_lignum>  (229) 
7

>  <i_i_glide_rotatable_bonds>  (229) 
2

>  <r_i_docking_score>  (229) 
-3.17877

>  <r_i_glide_ligand_efficiency>  (229) 
-0.144489

>  <r_i_glide_ligand_efficiency_sa>  (229) 
-0.404865

>  <r_i_glide_ligand_efficiency_ln>  (229) 
-0.777007

>  <r_i_glide_gscore>  (229) 
-3.17877

>  <r_i_glide_lipo>  (229) 
-0.386788

>  <r_i_glide_hbond>  (229) 
0

>  <r_i_glide_metal>  (229) 
-0

>  <r_i_glide_rewards>  (229) 
-1.36779

>  <r_i_glide_evdw>  (229) 
-20.6374

>  <r_i_glide_ecoul>  (229) 
-4.67466

>  <r_i_glide_erotb>  (229) 
0.409789

>  <r_i_glide_esite>  (229) 
-0.100908

>  <r_i_glide_emodel>  (229) 
-27.9102

>  <r_i_glide_energy>  (229) 
-25.3121

>  <r_i_glide_einternal>  (229) 
5.92889

>  <r_i_glide_intrahb_reward>  (229) 
-0

>  <i_i_glide_confnum>  (229) 
2

>  <i_i_glide_posenum>  (229) 
34

>  <r_i_glide_eff_state_penalty>  (229) 
0

>  <ligand_id>  (229) 
52

>  <original_smiles>  (229) 
Cc1noc2ncnc(C3CC4CN(C5CCC5)CC4C3)c12

>  <smiles>  (229) 
[H]c1nc(C2([H])C([H])([H])C3([H])C([H])(C2([H])[H])C([H])([H])[N+]([H])(C2([H])C([H])([H])C([H])([H])C2([H])[H])C3([H])[H])c2c(C([H])([H])[H])noc2n1

$$$$
53:0:0
     RDKit          3D

 55 58  0  0  1  0  0  0  0  0999 V2000
   -1.8906    2.9609    6.5198 C   0  0  0  0  0  0  0  0  0  0  0  0
   -1.4335    1.5473    6.1784 C   0  0  0  0  0  0  0  0  0  0  0  0
   -1.7746    0.6061    6.8907 O   0  0  0  0  0  0  0  0  0  0  0  0
   -0.5189    1.3561    4.9492 C   0  0  2  0  0  0  0  0  0  0  0  0
   -1.0717    1.9939    3.6686 C   0  0  0  0  0  0  0  0  0  0  0  0
   -0.4080    1.2509    2.5044 C   0  0  0  0  0  0  0  0  0  0  0  0
    0.4125    0.0918    3.1077 C   0  0  1  0  0  0  0  0  0  0  0  0
    1.9444    0.3452    3.0453 C   0  0  2  0  0  0  0  0  0  0  0  0
    2.5174    0.3843    1.6181 C   0  0  0  0  0  0  0  0  0  0  0  0
    3.8521   -0.3737    1.6700 C   0  0  2  0  0  0  0  0  0  0  0  0
    4.3640   -0.8772    0.2971 C   0  0  0  0  0  0  0  0  0  0  0  0
    4.1169   -2.2921   -0.0249 N   0  0  0  0  0  0  0  0  0  0  0  0
    4.6846   -2.7151   -1.3098 C   0  0  0  0  0  0  0  0  0  0  0  0
    3.4494   -3.1560    0.7761 C   0  0  0  0  0  0  0  0  0  0  0  0
    3.2750   -4.3429    0.4948 O   0  0  0  0  0  0  0  0  0  0  0  0
    2.8542   -2.6370    2.0852 C   0  0  0  0  0  0  0  0  0  0  0  0
    3.6371   -1.4667    2.7261 C   0  0  1  0  0  0  0  0  0  0  0  0
    4.9901   -1.9519    3.3032 C   0  0  0  0  0  0  0  0  0  0  0  0
    2.7907   -0.7174    3.7932 C   0  0  2  0  0  0  0  0  0  0  0  0
    1.9610   -1.5643    4.7861 C   0  0  1  0  0  0  0  0  0  0  0  0
    2.8176   -2.1510    5.7433 O   0  0  0  0  0  0  0  0  0  0  0  0
    0.9411   -0.6788    5.5143 C   0  0  0  0  0  0  0  0  0  0  0  0
   -0.1315   -0.0964    4.5539 C   0  0  1  0  0  0  0  0  0  0  0  0
   -1.3517   -1.0580    4.4782 C   0  0  0  0  0  0  0  0  0  0  0  0
   -2.4231    3.4097    5.6812 H   0  0  0  0  0  0  0  0  0  0  0  0
   -1.0369    3.5868    6.7793 H   0  0  0  0  0  0  0  0  0  0  0  0
   -2.5668    2.9347    7.3763 H   0  0  0  0  0  0  0  0  0  0  0  0
    0.4046    1.8846    5.1868 H   0  0  0  0  0  0  0  0  0  0  0  0
   -2.1568    1.8865    3.6118 H   0  0  0  0  0  0  0  0  0  0  0  0
   -0.8385    3.0579    3.6265 H   0  0  0  0  0  0  0  0  0  0  0  0
   -1.1785    0.8632    1.8390 H   0  0  0  0  0  0  0  0  0  0  0  0
    0.2085    1.9202    1.9035 H   0  0  0  0  0  0  0  0  0  0  0  0
    0.2244   -0.8097    2.5247 H   0  0  0  0  0  0  0  0  0  0  0  0
    2.1412    1.3080    3.5186 H   0  0  0  0  0  0  0  0  0  0  0  0
    1.8368   -0.0980    0.9136 H   0  0  0  0  0  0  0  0  0  0  0  0
    2.6553    1.4115    1.2817 H   0  0  0  0  0  0  0  0  0  0  0  0
    4.5874    0.3363    2.0541 H   0  0  0  0  0  0  0  0  0  0  0  0
    3.9471   -0.2602   -0.4989 H   0  0  0  0  0  0  0  0  0  0  0  0
    5.4431   -0.7199    0.2569 H   0  0  0  0  0  0  0  0  0  0  0  0
    4.5171   -3.7658   -1.5405 H   0  0  0  0  0  0  0  0  0  0  0  0
    5.7604   -2.5548   -1.3272 H   0  0  0  0  0  0  0  0  0  0  0  0
    4.2459   -2.1381   -2.1209 H   0  0  0  0  0  0  0  0  0  0  0  0
    1.8304   -2.3418    1.8621 H   0  0  0  0  0  0  0  0  0  0  0  0
    2.7909   -3.4722    2.7809 H   0  0  0  0  0  0  0  0  0  0  0  0
    4.8561   -2.7516    4.0324 H   0  0  0  0  0  0  0  0  0  0  0  0
    5.5254   -1.1417    3.8014 H   0  0  0  0  0  0  0  0  0  0  0  0
    5.6495   -2.3383    2.5249 H   0  0  0  0  0  0  0  0  0  0  0  0
    3.4898   -0.1337    4.3980 H   0  0  0  0  0  0  0  0  0  0  0  0
    1.4206   -2.3664    4.2830 H   0  0  0  0  0  0  0  0  0  0  0  0
    3.4459   -2.6951    5.2935 H   0  0  0  0  0  0  0  0  0  0  0  0
    0.4627   -1.2472    6.3091 H   0  0  0  0  0  0  0  0  0  0  0  0
    1.4833    0.1227    6.0182 H   0  0  0  0  0  0  0  0  0  0  0  0
   -1.0619   -2.0178    4.0575 H   0  0  0  0  0  0  0  0  0  0  0  0
   -2.1422   -0.6407    3.8564 H   0  0  0  0  0  0  0  0  0  0  0  0
   -1.7992   -1.2778    5.4455 H   0  0  0  0  0  0  0  0  0  0  0  0
  1  2  1  0
  1 25  1  0
  1 26  1  0
  1 27  1  0
  2  3  2  0
  2  4  1  0
  4 23  1  0
  4  5  1  0
  4 28  1  1
  5  6  1  0
  5 29  1  0
  5 30  1  0
  6  7  1  0
  6 31  1  0
  6 32  1  0
  7 23  1  0
  7  8  1  0
  7 33  1  6
  8 19  1  0
  8  9  1  0
  8 34  1  1
  9 10  1  0
  9 35  1  0
  9 36  1  0
 10 17  1  0
 10 11  1  0
 10 37  1  1
 11 12  1  0
 11 38  1  0
 11 39  1  0
 12 13  1  0
 12 14  1  0
 13 40  1  0
 13 41  1  0
 13 42  1  0
 14 15  2  0
 14 16  1  0
 16 17  1  0
 16 43  1  0
 16 44  1  0
 17 18  1  1
 17 19  1  0
 18 45  1  0
 18 46  1  0
 18 47  1  0
 19 20  1  0
 19 48  1  1
 20 21  1  0
 20 22  1  0
 20 49  1  6
 21 50  1  0
 22 23  1  0
 22 51  1  0
 22 52  1  0
 23 24  1  6
 24 53  1  0
 24 54  1  0
 24 55  1  0
M  END
>  <i_m_ct_stereo_status>  (230) 
1

>  <s_m_source_file>  (230) 
/var/tmp/pbs.5076255.sched01/tmpfes5ahby/80lk6pwr5_.sdf

>  <i_m_source_file_index>  (230) 
8

>  <i_lp_mmshare_version>  (230) 
48012

>  <i_f3d_flags>  (230) 
0

>  <s_epik_input>  (230) 
W0NIM11DKD1PKVtDQEhdKFtDSDJdW0NIMl0xKVtDQF0oW0NIM10pKFtDSDJdW0NAQEhdKFtDQEhdMjMpW09IXSlbQ0BASF0xW0NAQEhdMltDSDJdW0NAQEhdKFtDQEBdMzRbQ0gzXSlbQ0gyXU4oW0NIM10pQyg9TylbQ0gyXTQ=

>  <s_epik_cmdline>  (230) 
J2VwaWtfcHl0aG9uJywgJy1waHQnLCAnMi4wJywgJy1waCcsICc3LjAnLCAnLXRuJywgJzgnLCAnLW1hJywgJzIwMCcsICctaW1hZScsICc8aW5maWxlLm1hZT4nLCAnLW9tYWUnLCAnPG91dGZpbGUubWFlPic=

>  <r_lp_tautomer_probability>  (230) 
1

>  <r_epik_Ionization_Penalty>  (230) 
8.57292e-07

>  <r_epik_Ionization_Penalty_Charging>  (230) 
0

>  <r_epik_Ionization_Penalty_Neutral>  (230) 
8.57292e-07

>  <r_epik_State_Penalty>  (230) 
-0

>  <r_epik_Charging_Adjusted_Penalty>  (230) 
0

>  <i_epik_Tot_Q>  (230) 
0

>  <i_epik_Tot_abs_Q>  (230) 
0

>  <s_lp_Force_Field>  (230) 
OPLS3e

>  <r_lp_Energy>  (230) 
50.9207

>  <b_lp_Chiralities_Consistent>  (230) 
1

>  <s_lp_Variant>  (230) 
53:0-1

>  <s_i_glide_gridfile>  (230) 
pfpi4k_grid

>  <i_i_glide_lignum>  (230) 
8

>  <i_i_glide_rotatable_bonds>  (230) 
2

>  <r_i_docking_score>  (230) 
-3.25349

>  <r_i_glide_ligand_efficiency>  (230) 
-0.135562

>  <r_i_glide_ligand_efficiency_sa>  (230) 
-0.391028

>  <r_i_glide_ligand_efficiency_ln>  (230) 
-0.778709

>  <r_i_glide_gscore>  (230) 
-3.25349

>  <r_i_glide_lipo>  (230) 
-0.212074

>  <r_i_glide_hbond>  (230) 
-0.16

>  <r_i_glide_metal>  (230) 
-0

>  <r_i_glide_rewards>  (230) 
-1.13547

>  <r_i_glide_evdw>  (230) 
-20.031

>  <r_i_glide_ecoul>  (230) 
-4.6515

>  <r_i_glide_erotb>  (230) 
0

>  <r_i_glide_esite>  (230) 
-0.0466717

>  <r_i_glide_emodel>  (230) 
-29.7407

>  <r_i_glide_energy>  (230) 
-24.6825

>  <r_i_glide_einternal>  (230) 
0.563095

>  <r_i_glide_intrahb_reward>  (230) 
-0

>  <i_i_glide_confnum>  (230) 
1

>  <i_i_glide_posenum>  (230) 
39

>  <r_i_glide_eff_state_penalty>  (230) 
0

>  <ligand_id>  (230) 
53

>  <original_smiles>  (230) 
CC(=O)C1CCC2C3CC4CN(C)C(=O)CC4(C)C3C(O)CC12C

>  <smiles>  (230) 
[H]OC1([H])C([H])([H])C2(C([H])([H])[H])C([H])(C(=O)C([H])([H])[H])C([H])([H])C([H])([H])C2([H])C2([H])C([H])([H])C3([H])C([H])([H])N(C([H])([H])[H])C(=O)C([H])([H])C3(C([H])([H])[H])C12[H]

$$$$
53:0:1
     RDKit          3D

 55 58  0  0  1  0  0  0  0  0999 V2000
    3.5615   -3.8520    6.7984 C   0  0  0  0  0  0  0  0  0  0  0  0
    2.7123   -2.6748    6.3338 C   0  0  0  0  0  0  0  0  0  0  0  0
    1.7783   -2.2662    7.0236 O   0  0  0  0  0  0  0  0  0  0  0  0
    3.0804   -2.0255    4.9813 C   0  0  2  0  0  0  0  0  0  0  0  0
    2.6209   -0.5676    4.8307 C   0  0  0  0  0  0  0  0  0  0  0  0
    2.5015   -0.3161    3.3223 C   0  0  0  0  0  0  0  0  0  0  0  0
    2.7362   -1.6637    2.6091 C   0  0  1  0  0  0  0  0  0  0  0  0
    4.1162   -1.7259    1.8990 C   0  0  2  0  0  0  0  0  0  0  0  0
    4.2567   -0.7471    0.7168 C   0  0  0  0  0  0  0  0  0  0  0  0
    4.9904   -1.5224   -0.3880 C   0  0  2  0  0  0  0  0  0  0  0  0
    4.8231   -0.9258   -1.8116 C   0  0  0  0  0  0  0  0  0  0  0  0
    3.8310   -1.5683   -2.6831 N   0  0  0  0  0  0  0  0  0  0  0  0
    3.7624   -0.9895   -4.0298 C   0  0  0  0  0  0  0  0  0  0  0  0
    3.0399   -2.6024   -2.3187 C   0  0  0  0  0  0  0  0  0  0  0  0
    2.2272   -3.1162   -3.0831 O   0  0  0  0  0  0  0  0  0  0  0  0
    3.1271   -3.1312   -0.8857 C   0  0  0  0  0  0  0  0  0  0  0  0
    4.5196   -2.9750   -0.2294 C   0  0  1  0  0  0  0  0  0  0  0  0
    5.5358   -3.9584   -0.8576 C   0  0  0  0  0  0  0  0  0  0  0  0
    4.4628   -3.1221    1.3194 C   0  0  2  0  0  0  0  0  0  0  0  0
    3.5951   -4.2617    1.9058 C   0  0  1  0  0  0  0  0  0  0  0  0
    4.2561   -5.4999    1.7278 O   0  0  0  0  0  0  0  0  0  0  0  0
    3.3799   -4.0339    3.4085 C   0  0  0  0  0  0  0  0  0  0  0  0
    2.5612   -2.7476    3.7087 C   0  0  1  0  0  0  0  0  0  0  0  0
    1.0545   -3.1039    3.8168 C   0  0  0  0  0  0  0  0  0  0  0  0
    4.6092   -3.5635    6.8704 H   0  0  0  0  0  0  0  0  0  0  0  0
    3.4785   -4.6839    6.1027 H   0  0  0  0  0  0  0  0  0  0  0  0
    3.2310   -4.1953    7.7777 H   0  0  0  0  0  0  0  0  0  0  0  0
    4.1694   -2.0118    4.9300 H   0  0  0  0  0  0  0  0  0  0  0  0
    1.6544   -0.3906    5.3069 H   0  0  0  0  0  0  0  0  0  0  0  0
    3.3371    0.1146    5.2902 H   0  0  0  0  0  0  0  0  0  0  0  0
    1.5011    0.0555    3.0987 H   0  0  0  0  0  0  0  0  0  0  0  0
    3.2024    0.4517    2.9940 H   0  0  0  0  0  0  0  0  0  0  0  0
    1.9722   -1.7919    1.8413 H   0  0  0  0  0  0  0  0  0  0  0  0
    4.8814   -1.4829    2.6386 H   0  0  0  0  0  0  0  0  0  0  0  0
    3.2743   -0.4305    0.3630 H   0  0  0  0  0  0  0  0  0  0  0  0
    4.8047    0.1548    0.9987 H   0  0  0  0  0  0  0  0  0  0  0  0
    6.0516   -1.4726   -0.1315 H   0  0  0  0  0  0  0  0  0  0  0  0
    4.5897    0.1360   -1.7462 H   0  0  0  0  0  0  0  0  0  0  0  0
    5.7859   -0.9969   -2.3170 H   0  0  0  0  0  0  0  0  0  0  0  0
    3.0357   -1.4719   -4.6811 H   0  0  0  0  0  0  0  0  0  0  0  0
    4.7262   -1.0579   -4.5288 H   0  0  0  0  0  0  0  0  0  0  0  0
    3.4846    0.0616   -3.9733 H   0  0  0  0  0  0  0  0  0  0  0  0
    2.3730   -2.6049   -0.3051 H   0  0  0  0  0  0  0  0  0  0  0  0
    2.8281   -4.1798   -0.8875 H   0  0  0  0  0  0  0  0  0  0  0  0
    5.1928   -4.9912   -0.7700 H   0  0  0  0  0  0  0  0  0  0  0  0
    6.5131   -3.8969   -0.3732 H   0  0  0  0  0  0  0  0  0  0  0  0
    5.6905   -3.7604   -1.9194 H   0  0  0  0  0  0  0  0  0  0  0  0
    5.4840   -3.3144    1.6584 H   0  0  0  0  0  0  0  0  0  0  0  0
    2.6201   -4.3189    1.4217 H   0  0  0  0  0  0  0  0  0  0  0  0
    3.6963   -6.1993    2.0281 H   0  0  0  0  0  0  0  0  0  0  0  0
    2.8865   -4.9003    3.8434 H   0  0  0  0  0  0  0  0  0  0  0  0
    4.3599   -3.9841    3.8873 H   0  0  0  0  0  0  0  0  0  0  0  0
    0.6772   -3.5081    2.8791 H   0  0  0  0  0  0  0  0  0  0  0  0
    0.4484   -2.2292    4.0534 H   0  0  0  0  0  0  0  0  0  0  0  0
    0.8551   -3.8485    4.5880 H   0  0  0  0  0  0  0  0  0  0  0  0
  1  2  1  0
  1 25  1  0
  1 26  1  0
  1 27  1  0
  2  3  2  0
  2  4  1  0
  4 23  1  0
  4  5  1  0
  4 28  1  6
  5  6  1  0
  5 29  1  0
  5 30  1  0
  6  7  1  0
  6 31  1  0
  6 32  1  0
  7 23  1  0
  7  8  1  0
  7 33  1  6
  8 19  1  0
  8  9  1  0
  8 34  1  1
  9 10  1  0
  9 35  1  0
  9 36  1  0
 10 17  1  0
 10 11  1  0
 10 37  1  1
 11 12  1  0
 11 38  1  0
 11 39  1  0
 12 13  1  0
 12 14  1  0
 13 40  1  0
 13 41  1  0
 13 42  1  0
 14 15  2  0
 14 16  1  0
 16 17  1  0
 16 43  1  0
 16 44  1  0
 17 18  1  6
 17 19  1  0
 18 45  1  0
 18 46  1  0
 18 47  1  0
 19 20  1  0
 19 48  1  1
 20 21  1  0
 20 22  1  0
 20 49  1  6
 21 50  1  0
 22 23  1  0
 22 51  1  0
 22 52  1  0
 23 24  1  1
 24 53  1  0
 24 54  1  0
 24 55  1  0
M  END
>  <i_m_ct_stereo_status>  (231) 
1

>  <s_m_source_file>  (231) 
/var/tmp/pbs.5076255.sched01/tmpfes5ahby/80lk6pwr5_.sdf

>  <i_m_source_file_index>  (231) 
8

>  <i_lp_mmshare_version>  (231) 
48012

>  <i_f3d_flags>  (231) 
0

>  <s_epik_input>  (231) 
W0NIM11DKD1PKVtDQEhdKFtDSDJdW0NIMl0xKVtDQF0oW0NIM10pKFtDSDJdW0NAQEhdKFtDQEhdMjMpW09IXSlbQ0BASF0xW0NAQEhdMltDSDJdW0NAQEhdKFtDQEBdMzRbQ0gzXSlbQ0gyXU4oW0NIM10pQyg9TylbQ0gyXTQ=

>  <s_epik_cmdline>  (231) 
J2VwaWtfcHl0aG9uJywgJy1waHQnLCAnMi4wJywgJy1waCcsICc3LjAnLCAnLXRuJywgJzgnLCAnLW1hJywgJzIwMCcsICctaW1hZScsICc8aW5maWxlLm1hZT4nLCAnLW9tYWUnLCAnPG91dGZpbGUubWFlPic=

>  <r_lp_tautomer_probability>  (231) 
1

>  <r_epik_Ionization_Penalty>  (231) 
8.57292e-07

>  <r_epik_Ionization_Penalty_Charging>  (231) 
0

>  <r_epik_Ionization_Penalty_Neutral>  (231) 
8.57292e-07

>  <r_epik_State_Penalty>  (231) 
-0

>  <r_epik_Charging_Adjusted_Penalty>  (231) 
0

>  <i_epik_Tot_Q>  (231) 
0

>  <i_epik_Tot_abs_Q>  (231) 
0

>  <s_lp_Force_Field>  (231) 
OPLS3e

>  <r_lp_Energy>  (231) 
50.9207

>  <b_lp_Chiralities_Consistent>  (231) 
1

>  <s_lp_Variant>  (231) 
53:0-1

>  <s_i_glide_gridfile>  (231) 
pfpi4k_grid

>  <i_i_glide_lignum>  (231) 
8

>  <i_i_glide_rotatable_bonds>  (231) 
2

>  <r_i_docking_score>  (231) 
-2.5797

>  <r_i_glide_ligand_efficiency>  (231) 
-0.107487

>  <r_i_glide_ligand_efficiency_sa>  (231) 
-0.310047

>  <r_i_glide_ligand_efficiency_ln>  (231) 
-0.61744

>  <r_i_glide_gscore>  (231) 
-2.5797

>  <r_i_glide_lipo>  (231) 
-0.332025

>  <r_i_glide_hbond>  (231) 
0

>  <r_i_glide_metal>  (231) 
-0

>  <r_i_glide_rewards>  (231) 
-1.13547

>  <r_i_glide_evdw>  (231) 
-22.6136

>  <r_i_glide_ecoul>  (231) 
0.599671

>  <r_i_glide_erotb>  (231) 
0

>  <r_i_glide_esite>  (231) 
-0.0714743

>  <r_i_glide_emodel>  (231) 
-26.0667

>  <r_i_glide_energy>  (231) 
-22.014

>  <r_i_glide_einternal>  (231) 
0.382215

>  <r_i_glide_intrahb_reward>  (231) 
-0

>  <i_i_glide_confnum>  (231) 
2

>  <i_i_glide_posenum>  (231) 
16

>  <r_i_glide_eff_state_penalty>  (231) 
0

>  <ligand_id>  (231) 
53

>  <original_smiles>  (231) 
CC(=O)C1CCC2C3CC4CN(C)C(=O)CC4(C)C3C(O)CC12C

>  <smiles>  (231) 
[H]OC1([H])C([H])([H])C2(C([H])([H])[H])C([H])(C(=O)C([H])([H])[H])C([H])([H])C([H])([H])C2([H])C2([H])C([H])([H])C3([H])C([H])([H])N(C([H])([H])[H])C(=O)C([H])([H])C3(C([H])([H])[H])C12[H]

$$$$
53:0:2
     RDKit          3D

 55 58  0  0  1  0  0  0  0  0999 V2000
    3.0731   -3.0048    7.0535 C   0  0  0  0  0  0  0  0  0  0  0  0
    2.1950   -1.9574    6.3802 C   0  0  0  0  0  0  0  0  0  0  0  0
    1.1650   -1.5583    6.9279 O   0  0  0  0  0  0  0  0  0  0  0  0
    2.6558   -1.4292    5.0033 C   0  0  2  0  0  0  0  0  0  0  0  0
    2.2294    0.0146    4.7034 C   0  0  0  0  0  0  0  0  0  0  0  0
    2.2033    0.1380    3.1753 C   0  0  0  0  0  0  0  0  0  0  0  0
    2.4580   -1.2693    2.5933 C   0  0  1  0  0  0  0  0  0  0  0  0
    3.8773   -1.4101    1.9752 C   0  0  2  0  0  0  0  0  0  0  0  0
    4.0976   -0.5404    0.7231 C   0  0  0  0  0  0  0  0  0  0  0  0
    4.8851   -1.4106   -0.2661 C   0  0  2  0  0  0  0  0  0  0  0  0
    4.8073   -0.9349   -1.7405 C   0  0  0  0  0  0  0  0  0  0  0  0
    3.8511   -1.6305   -2.6105 N   0  0  0  0  0  0  0  0  0  0  0  0
    3.8746   -1.1682   -4.0031 C   0  0  0  0  0  0  0  0  0  0  0  0
    3.0250   -2.6230   -2.2104 C   0  0  0  0  0  0  0  0  0  0  0  0
    2.2475   -3.1891   -2.9778 O   0  0  0  0  0  0  0  0  0  0  0  0
    3.0275   -3.0368   -0.7341 C   0  0  0  0  0  0  0  0  0  0  0  0
    4.3832   -2.8404   -0.0147 C   0  0  1  0  0  0  0  0  0  0  0  0
    5.4137   -3.8852   -0.4995 C   0  0  0  0  0  0  0  0  0  0  0  0
    4.2358   -2.8544    1.5348 C   0  0  2  0  0  0  0  0  0  0  0  0
    3.3126   -3.9265    2.1657 C   0  0  1  0  0  0  0  0  0  0  0  0
    3.9263   -5.1990    2.1206 O   0  0  0  0  0  0  0  0  0  0  0  0
    3.0148   -3.5695    3.6287 C   0  0  0  0  0  0  0  0  0  0  0  0
    2.2021   -2.2517    3.7692 C   0  0  1  0  0  0  0  0  0  0  0  0
    0.6869   -2.5780    3.8171 C   0  0  0  0  0  0  0  0  0  0  0  0
    4.0848   -2.6253    7.1924 H   0  0  0  0  0  0  0  0  0  0  0  0
    3.1220   -3.9084    6.4498 H   0  0  0  0  0  0  0  0  0  0  0  0
    2.6698   -3.2682    8.0301 H   0  0  0  0  0  0  0  0  0  0  0  0
    3.7467   -1.4342    5.0149 H   0  0  0  0  0  0  0  0  0  0  0  0
    1.2397    0.2417    5.1046 H   0  0  0  0  0  0  0  0  0  0  0  0
    2.9299    0.7229    5.1451 H   0  0  0  0  0  0  0  0  0  0  0  0
    1.2239    0.5013    2.8598 H   0  0  0  0  0  0  0  0  0  0  0  0
    2.9357    0.8661    2.8234 H   0  0  0  0  0  0  0  0  0  0  0  0
    1.7371   -1.4519    1.7946 H   0  0  0  0  0  0  0  0  0  0  0  0
    4.6002   -1.1136    2.7371 H   0  0  0  0  0  0  0  0  0  0  0  0
    3.1348   -0.2659    0.2882 H   0  0  0  0  0  0  0  0  0  0  0  0
    4.6304    0.3861    0.9545 H   0  0  0  0  0  0  0  0  0  0  0  0
    5.9312   -1.3479    0.0456 H   0  0  0  0  0  0  0  0  0  0  0  0
    4.5923    0.1341   -1.7831 H   0  0  0  0  0  0  0  0  0  0  0  0
    5.7933   -1.0612   -2.1873 H   0  0  0  0  0  0  0  0  0  0  0  0
    3.1818   -1.6973   -4.6563 H   0  0  0  0  0  0  0  0  0  0  0  0
    4.8668   -1.2937   -4.4263 H   0  0  0  0  0  0  0  0  0  0  0  0
    3.6154   -0.1128   -4.0564 H   0  0  0  0  0  0  0  0  0  0  0  0
    2.2526   -2.4578   -0.2375 H   0  0  0  0  0  0  0  0  0  0  0  0
    2.7102   -4.0772   -0.6714 H   0  0  0  0  0  0  0  0  0  0  0  0
    5.0460   -4.9016   -0.3472 H   0  0  0  0  0  0  0  0  0  0  0  0
    6.3622   -3.7942    0.0351 H   0  0  0  0  0  0  0  0  0  0  0  0
    5.6308   -3.7777   -1.5633 H   0  0  0  0  0  0  0  0  0  0  0  0
    5.2325   -3.0249    1.9457 H   0  0  0  0  0  0  0  0  0  0  0  0
    2.3668   -4.0026    1.6359 H   0  0  0  0  0  0  0  0  0  0  0  0
    4.7426   -5.1586    2.5932 H   0  0  0  0  0  0  0  0  0  0  0  0
    2.4777   -4.3896    4.0993 H   0  0  0  0  0  0  0  0  0  0  0  0
    3.9610   -3.4916    4.1640 H   0  0  0  0  0  0  0  0  0  0  0  0
    0.3673   -3.0543    2.8934 H   0  0  0  0  0  0  0  0  0  0  0  0
    0.0812   -1.6795    3.9415 H   0  0  0  0  0  0  0  0  0  0  0  0
    0.4264   -3.2546    4.6322 H   0  0  0  0  0  0  0  0  0  0  0  0
  1  2  1  0
  1 25  1  0
  1 26  1  0
  1 27  1  0
  2  3  2  0
  2  4  1  0
  4 23  1  0
  4  5  1  0
  4 28  1  1
  5  6  1  0
  5 29  1  0
  5 30  1  0
  6  7  1  0
  6 31  1  0
  6 32  1  0
  7 23  1  0
  7  8  1  0
  7 33  1  6
  8 19  1  0
  8  9  1  0
  8 34  1  1
  9 10  1  0
  9 35  1  0
  9 36  1  0
 10 17  1  0
 10 11  1  0
 10 37  1  1
 11 12  1  0
 11 38  1  0
 11 39  1  0
 12 13  1  0
 12 14  1  0
 13 40  1  0
 13 41  1  0
 13 42  1  0
 14 15  2  0
 14 16  1  0
 16 17  1  0
 16 43  1  0
 16 44  1  0
 17 18  1  1
 17 19  1  0
 18 45  1  0
 18 46  1  0
 18 47  1  0
 19 20  1  0
 19 48  1  1
 20 21  1  0
 20 22  1  0
 20 49  1  6
 21 50  1  0
 22 23  1  0
 22 51  1  0
 22 52  1  0
 23 24  1  1
 24 53  1  0
 24 54  1  0
 24 55  1  0
M  END
>  <i_m_ct_stereo_status>  (232) 
1

>  <s_m_source_file>  (232) 
/var/tmp/pbs.5076255.sched01/tmpfes5ahby/80lk6pwr5_.sdf

>  <i_m_source_file_index>  (232) 
8

>  <i_lp_mmshare_version>  (232) 
48012

>  <i_f3d_flags>  (232) 
0

>  <s_epik_input>  (232) 
W0NIM11DKD1PKVtDQEhdKFtDSDJdW0NIMl0xKVtDQF0oW0NIM10pKFtDSDJdW0NAQEhdKFtDQEhdMjMpW09IXSlbQ0BASF0xW0NAQEhdMltDSDJdW0NAQEhdKFtDQEBdMzRbQ0gzXSlbQ0gyXU4oW0NIM10pQyg9TylbQ0gyXTQ=

>  <s_epik_cmdline>  (232) 
J2VwaWtfcHl0aG9uJywgJy1waHQnLCAnMi4wJywgJy1waCcsICc3LjAnLCAnLXRuJywgJzgnLCAnLW1hJywgJzIwMCcsICctaW1hZScsICc8aW5maWxlLm1hZT4nLCAnLW9tYWUnLCAnPG91dGZpbGUubWFlPic=

>  <r_lp_tautomer_probability>  (232) 
1

>  <r_epik_Ionization_Penalty>  (232) 
8.57292e-07

>  <r_epik_Ionization_Penalty_Charging>  (232) 
0

>  <r_epik_Ionization_Penalty_Neutral>  (232) 
8.57292e-07

>  <r_epik_State_Penalty>  (232) 
-0

>  <r_epik_Charging_Adjusted_Penalty>  (232) 
0

>  <i_epik_Tot_Q>  (232) 
0

>  <i_epik_Tot_abs_Q>  (232) 
0

>  <s_lp_Force_Field>  (232) 
OPLS3e

>  <r_lp_Energy>  (232) 
50.9207

>  <b_lp_Chiralities_Consistent>  (232) 
1

>  <s_lp_Variant>  (232) 
53:0-1

>  <s_i_glide_gridfile>  (232) 
pfpi4k_grid

>  <i_i_glide_lignum>  (232) 
8

>  <i_i_glide_rotatable_bonds>  (232) 
2

>  <r_i_docking_score>  (232) 
-2.50882

>  <r_i_glide_ligand_efficiency>  (232) 
-0.104534

>  <r_i_glide_ligand_efficiency_sa>  (232) 
-0.301528

>  <r_i_glide_ligand_efficiency_ln>  (232) 
-0.600475

>  <r_i_glide_gscore>  (232) 
-2.50882

>  <r_i_glide_lipo>  (232) 
-0.28973

>  <r_i_glide_hbond>  (232) 
0

>  <r_i_glide_metal>  (232) 
-0

>  <r_i_glide_rewards>  (232) 
-1.13547

>  <r_i_glide_evdw>  (232) 
-21.7023

>  <r_i_glide_ecoul>  (232) 
0.496873

>  <r_i_glide_erotb>  (232) 
0

>  <r_i_glide_esite>  (232) 
-0.0730368

>  <r_i_glide_emodel>  (232) 
-25.2651

>  <r_i_glide_energy>  (232) 
-21.2054

>  <r_i_glide_einternal>  (232) 
0.150624

>  <r_i_glide_intrahb_reward>  (232) 
-0

>  <i_i_glide_confnum>  (232) 
2

>  <i_i_glide_posenum>  (232) 
3

>  <r_i_glide_eff_state_penalty>  (232) 
0

>  <ligand_id>  (232) 
53

>  <original_smiles>  (232) 
CC(=O)C1CCC2C3CC4CN(C)C(=O)CC4(C)C3C(O)CC12C

>  <smiles>  (232) 
[H]OC1([H])C([H])([H])C2(C([H])([H])[H])C([H])(C(=O)C([H])([H])[H])C([H])([H])C([H])([H])C2([H])C2([H])C([H])([H])C3([H])C([H])([H])N(C([H])([H])[H])C(=O)C([H])([H])C3(C([H])([H])[H])C12[H]

$$$$
55:0:0
     RDKit          3D

 62 67  0  0  1  0  0  0  0  0999 V2000
    6.2191   -3.0410   -2.2629 C   0  0  0  0  0  0  0  0  0  0  0  0
    6.0924   -2.3529   -0.9129 C   0  0  2  0  0  0  0  0  0  0  0  0
    7.3161   -2.5585   -0.0050 C   0  0  0  0  0  0  0  0  0  0  0  0
    6.7847   -3.2409    1.2747 C   0  0  0  0  0  0  0  0  0  0  0  0
    5.4551   -3.9255    0.9099 C   0  0  2  0  0  0  0  0  0  0  0  0
    5.9363   -5.0507    0.2127 O   0  0  0  0  0  0  0  0  0  0  0  0
    4.9017   -2.8845   -0.0992 C   0  0  1  0  0  0  0  0  0  0  0  0
    4.2725   -1.6792    0.6318 C   0  0  0  0  0  0  0  0  0  0  0  0
    3.1869   -2.1331    1.5745 C   0  0  1  0  0  0  0  0  0  0  0  0
    2.2128   -2.6759    0.7241 O   0  0  0  0  0  0  0  0  0  0  0  0
    3.6644   -3.1327    2.6686 C   0  0  1  0  0  0  0  0  0  0  0  0
    4.4200   -2.3630    3.5803 O   0  0  0  0  0  0  0  0  0  0  0  0
    2.4617   -3.7189    3.4296 C   0  0  0  0  0  0  0  0  0  0  0  0
    2.4824   -5.2047    3.0996 C   0  0  1  0  0  0  0  0  0  0  0  0
    1.2517   -5.9251    3.2516 O   0  0  0  0  0  0  0  0  0  0  0  0
    1.1017   -7.1939    2.6589 C   0  0  2  0  0  0  0  0  0  0  0  0
    0.1727   -7.1789    1.5732 O   0  0  0  0  0  0  0  0  0  0  0  0
    0.6169   -8.3149    3.5934 C   0  0  1  0  0  0  0  0  0  0  0  0
   -0.7840   -8.3061    3.8177 O   0  0  0  0  0  0  0  0  0  0  0  0
    1.0554   -9.4682    2.9109 O   0  0  0  0  0  0  0  0  0  0  0  0
    2.1042   -9.1886    1.9468 C   0  0  0  0  0  0  0  0  0  0  0  0
    2.4997   -7.7595    2.2669 C   0  0  2  0  0  0  0  0  0  0  0  0
    3.3705   -8.0202    3.3767 O   0  0  0  0  0  0  0  0  0  0  0  0
    3.3504   -6.8684    1.3335 C   0  0  1  0  0  0  0  0  0  0  0  0
    4.5625   -7.6406    0.8441 C   0  0  0  0  0  0  0  0  0  0  0  0
    2.9195   -5.7122    0.4507 C   0  0  1  0  0  0  0  0  0  0  0  0
    1.6042   -5.5221    0.0832 O   0  0  0  0  0  0  0  0  0  0  0  0
    3.3693   -5.4016    1.8620 C   0  0  1  0  0  0  0  0  0  0  0  0
    4.5073   -4.3566    2.1216 C   0  0  1  0  0  0  0  0  0  0  0  0
    5.4420   -4.9457    3.2289 C   0  0  0  0  0  0  0  0  0  0  0  0
    6.3131   -4.1103   -2.1715 H   0  0  0  0  0  0  0  0  0  0  0  0
    7.1134   -2.6595   -2.7407 H   0  0  0  0  0  0  0  0  0  0  0  0
    5.3673   -2.8601   -2.9144 H   0  0  0  0  0  0  0  0  0  0  0  0
    5.9707   -1.2870   -1.1050 H   0  0  0  0  0  0  0  0  0  0  0  0
    8.0650   -3.1869   -0.4894 H   0  0  0  0  0  0  0  0  0  0  0  0
    7.8093   -1.6128    0.2405 H   0  0  0  0  0  0  0  0  0  0  0  0
    7.5320   -3.9262    1.6802 H   0  0  0  0  0  0  0  0  0  0  0  0
    6.5949   -2.4677    2.0140 H   0  0  0  0  0  0  0  0  0  0  0  0
    5.1988   -5.4800   -0.1862 H   0  0  0  0  0  0  0  0  0  0  0  0
    4.1750   -3.3200   -0.7863 H   0  0  0  0  0  0  0  0  0  0  0  0
    5.0286   -1.1086    1.1810 H   0  0  0  0  0  0  0  0  0  0  0  0
    3.8501   -0.9862   -0.1031 H   0  0  0  0  0  0  0  0  0  0  0  0
    2.7375   -1.2762    2.0413 H   0  0  0  0  0  0  0  0  0  0  0  0
    1.8057   -1.9666    0.2258 H   0  0  0  0  0  0  0  0  0  0  0  0
    3.8872   -1.6204    3.8357 H   0  0  0  0  0  0  0  0  0  0  0  0
    2.5344   -3.5877    4.5104 H   0  0  0  0  0  0  0  0  0  0  0  0
    1.5254   -3.2705    3.1284 H   0  0  0  0  0  0  0  0  0  0  0  0
    3.0329   -5.6347    3.9226 H   0  0  0  0  0  0  0  0  0  0  0  0
    0.1323   -8.0743    1.2363 H   0  0  0  0  0  0  0  0  0  0  0  0
    1.1124   -8.2920    4.5742 H   0  0  0  0  0  0  0  0  0  0  0  0
   -0.9983   -9.0502    4.3670 H   0  0  0  0  0  0  0  0  0  0  0  0
    2.8864   -9.9516    2.0124 H   0  0  0  0  0  0  0  0  0  0  0  0
    1.7566   -9.2234    0.9247 H   0  0  0  0  0  0  0  0  0  0  0  0
    2.9472   -8.6606    3.9313 H   0  0  0  0  0  0  0  0  0  0  0  0
    4.8075   -7.3197   -0.1547 H   0  0  0  0  0  0  0  0  0  0  0  0
    4.3767   -8.7149    0.7833 H   0  0  0  0  0  0  0  0  0  0  0  0
    5.4122   -7.4701    1.4973 H   0  0  0  0  0  0  0  0  0  0  0  0
    3.5401   -5.4366   -0.3974 H   0  0  0  0  0  0  0  0  0  0  0  0
    1.6165   -5.2371   -0.8223 H   0  0  0  0  0  0  0  0  0  0  0  0
    4.9660   -5.2507    4.1464 H   0  0  0  0  0  0  0  0  0  0  0  0
    6.1908   -4.2341    3.5691 H   0  0  0  0  0  0  0  0  0  0  0  0
    5.9846   -5.8065    2.8512 H   0  0  0  0  0  0  0  0  0  0  0  0
  1  2  1  0
  1 31  1  0
  1 32  1  0
  1 33  1  0
  2  7  1  0
  2  3  1  0
  2 34  1  6
  3  4  1  0
  3 35  1  0
  3 36  1  0
  4  5  1  0
  4 37  1  0
  4 38  1  0
  5 29  1  0
  5  6  1  6
  5  7  1  0
  6 39  1  0
  7  8  1  0
  7 40  1  6
  8  9  1  0
  8 41  1  0
  8 42  1  0
  9 10  1  0
  9 11  1  0
  9 43  1  1
 10 44  1  0
 11 29  1  0
 11 12  1  1
 11 13  1  0
 12 45  1  0
 13 14  1  0
 13 46  1  0
 13 47  1  0
 14 28  1  0
 14 15  1  0
 14 48  1  1
 15 16  1  0
 16 22  1  0
 16 17  1  6
 16 18  1  0
 17 49  1  0
 18 19  1  0
 18 20  1  0
 18 50  1  1
 19 51  1  0
 20 21  1  0
 21 22  1  0
 21 52  1  0
 21 53  1  0
 22 23  1  1
 22 24  1  0
 23 54  1  0
 24 28  1  0
 24 25  1  6
 24 26  1  0
 25 55  1  0
 25 56  1  0
 25 57  1  0
 26 27  1  0
 26 28  1  0
 26 58  1  6
 27 59  1  0
 28 29  1  6
 29 30  1  1
 30 60  1  0
 30 61  1  0
 30 62  1  0
M  END
>  <i_m_ct_stereo_status>  (233) 
1

>  <s_m_source_file>  (233) 
/var/tmp/pbs.5076255.sched01/tmpfes5ahby/80lk6pwr5_.sdf

>  <i_m_source_file_index>  (233) 
10

>  <i_lp_mmshare_version>  (233) 
48012

>  <i_f3d_flags>  (233) 
0

>  <s_epik_input>  (233) 
W0NIMl0xW0NIMl1bQ0BASF0oW0NIM10pW0NASF0oW0NIMl1bQ0BIXTJbT0hdKVtDQF0xKFtPSF0pW0NAQF0zKFtDSDNdKVtDQF0yKFtPSF0pW0NIMl1bQ0BIXShbQ0BAXTM0NSlPW0NAQF02KFtPSF0pW0NAXShbT0hdKShbQ0BAXTQoW0NIM10pW0NASF01W09IXSlbQ0gyXU9bQ0BASF02W09IXQ==

>  <s_epik_cmdline>  (233) 
J2VwaWtfcHl0aG9uJywgJy1waHQnLCAnMi4wJywgJy1waCcsICc3LjAnLCAnLXRuJywgJzgnLCAnLW1hJywgJzIwMCcsICctaW1hZScsICc8aW5maWxlLm1hZT4nLCAnLW9tYWUnLCAnPG91dGZpbGUubWFlPic=

>  <r_lp_tautomer_probability>  (233) 
1

>  <r_epik_Ionization_Penalty>  (233) 
1.69172e-05

>  <r_epik_Ionization_Penalty_Charging>  (233) 
0

>  <r_epik_Ionization_Penalty_Neutral>  (233) 
1.69172e-05

>  <r_epik_State_Penalty>  (233) 
-0

>  <r_epik_Charging_Adjusted_Penalty>  (233) 
0

>  <i_epik_Tot_Q>  (233) 
0

>  <i_epik_Tot_abs_Q>  (233) 
0

>  <s_epik_Chemistry_Notes>  (233) 
This compound contains an acetal/aminal-like group ( X-CH(R)-Y where X, Y are N, S, or O) that may be acid/base labile, releasing an aldehyde.

>  <s_lp_Force_Field>  (233) 
OPLS3e

>  <r_lp_Energy>  (233) 
91.8441

>  <b_lp_Chiralities_Consistent>  (233) 
1

>  <s_lp_Variant>  (233) 
55:0-1

>  <s_i_glide_gridfile>  (233) 
pfpi4k_grid

>  <i_i_glide_lignum>  (233) 
10

>  <i_i_glide_rotatable_bonds>  (233) 
7

>  <r_i_docking_score>  (233) 
-4.30795

>  <r_i_glide_ligand_efficiency>  (233) 
-0.143598

>  <r_i_glide_ligand_efficiency_sa>  (233) 
-0.446193

>  <r_i_glide_ligand_efficiency_ln>  (233) 
-0.978813

>  <r_i_glide_gscore>  (233) 
-4.30795

>  <r_i_glide_lipo>  (233) 
-0.542358

>  <r_i_glide_hbond>  (233) 
0

>  <r_i_glide_metal>  (233) 
-0

>  <r_i_glide_rewards>  (233) 
-0.487681

>  <r_i_glide_evdw>  (233) 
-26.6234

>  <r_i_glide_ecoul>  (233) 
-12.621

>  <r_i_glide_erotb>  (233) 
0

>  <r_i_glide_esite>  (233) 
-0.053587

>  <r_i_glide_emodel>  (233) 
-48.1905

>  <r_i_glide_energy>  (233) 
-39.2444

>  <r_i_glide_einternal>  (233) 
3.49613

>  <r_i_glide_intrahb_reward>  (233) 
-0

>  <i_i_glide_confnum>  (233) 
2

>  <i_i_glide_posenum>  (233) 
15

>  <r_i_glide_eff_state_penalty>  (233) 
0

>  <ligand_id>  (233) 
55

>  <original_smiles>  (233) 
CC1CCC2(O)C1CC(O)C1(O)CC3OC4(O)C(O)OCC4(O)C4(C)C(O)C34C12C

>  <smiles>  (233) 
[H]OC1([H])OC([H])([H])C2(O[H])C1(O[H])OC1([H])C([H])([H])C3(O[H])C([H])(O[H])C([H])([H])C4([H])C([H])(C([H])([H])[H])C([H])([H])C([H])([H])C4(O[H])C3(C([H])([H])[H])C13C([H])(O[H])C23C([H])([H])[H]

$$$$
55:0:1
     RDKit          3D

 62 67  0  0  1  0  0  0  0  0999 V2000
    6.2148   -3.0411   -2.2603 C   0  0  0  0  0  0  0  0  0  0  0  0
    6.0897   -2.3567   -0.9072 C   0  0  2  0  0  0  0  0  0  0  0  0
    7.3146   -2.5648   -0.0024 C   0  0  0  0  0  0  0  0  0  0  0  0
    6.7857   -3.2518    1.2750 C   0  0  0  0  0  0  0  0  0  0  0  0
    5.4516   -3.9315    0.9116 C   0  0  2  0  0  0  0  0  0  0  0  0
    5.9275   -5.0566    0.2110 O   0  0  0  0  0  0  0  0  0  0  0  0
    4.8979   -2.8867   -0.0919 C   0  0  1  0  0  0  0  0  0  0  0  0
    4.2703   -1.6822    0.6457 C   0  0  0  0  0  0  0  0  0  0  0  0
    3.1855   -2.1378    1.5922 C   0  0  1  0  0  0  0  0  0  0  0  0
    2.2114   -2.6753    0.7369 O   0  0  0  0  0  0  0  0  0  0  0  0
    3.6654   -3.1470    2.6756 C   0  0  1  0  0  0  0  0  0  0  0  0
    4.4332   -2.3912    3.5885 O   0  0  0  0  0  0  0  0  0  0  0  0
    2.4653   -3.7322    3.4424 C   0  0  0  0  0  0  0  0  0  0  0  0
    2.4829   -5.2163    3.1075 C   0  0  1  0  0  0  0  0  0  0  0  0
    1.2464   -5.9300    3.2510 O   0  0  0  0  0  0  0  0  0  0  0  0
    1.0988   -7.2002    2.6560 C   0  0  2  0  0  0  0  0  0  0  0  0
    0.1672   -7.1871    1.5726 O   0  0  0  0  0  0  0  0  0  0  0  0
    0.6150   -8.3261    3.5871 C   0  0  1  0  0  0  0  0  0  0  0  0
   -0.7816   -8.3029    3.8386 O   0  0  0  0  0  0  0  0  0  0  0  0
    1.0177   -9.4751    2.8774 O   0  0  0  0  0  0  0  0  0  0  0  0
    2.0874   -9.1969    1.9365 C   0  0  0  0  0  0  0  0  0  0  0  0
    2.4909   -7.7701    2.2699 C   0  0  2  0  0  0  0  0  0  0  0  0
    3.3467   -8.0379    3.3870 O   0  0  0  0  0  0  0  0  0  0  0  0
    3.3504   -6.8768    1.3343 C   0  0  1  0  0  0  0  0  0  0  0  0
    4.5593   -7.6489    0.8414 C   0  0  0  0  0  0  0  0  0  0  0  0
    2.9145   -5.7177    0.4553 C   0  0  1  0  0  0  0  0  0  0  0  0
    1.5976   -5.5216    0.0924 O   0  0  0  0  0  0  0  0  0  0  0  0
    3.3668   -5.4111    1.8669 C   0  0  1  0  0  0  0  0  0  0  0  0
    4.5088   -4.3683    2.1231 C   0  0  1  0  0  0  0  0  0  0  0  0
    5.4456   -4.9593    3.2267 C   0  0  0  0  0  0  0  0  0  0  0  0
    6.3113   -4.1118   -2.1724 H   0  0  0  0  0  0  0  0  0  0  0  0
    7.1057   -2.6607   -2.7454 H   0  0  0  0  0  0  0  0  0  0  0  0
    5.3601   -2.8619   -2.9088 H   0  0  0  0  0  0  0  0  0  0  0  0
    5.9687   -1.2908   -1.0994 H   0  0  0  0  0  0  0  0  0  0  0  0
    8.0629   -3.1913   -0.4887 H   0  0  0  0  0  0  0  0  0  0  0  0
    7.8088   -1.6196    0.2436 H   0  0  0  0  0  0  0  0  0  0  0  0
    7.5348   -3.9393    1.6771 H   0  0  0  0  0  0  0  0  0  0  0  0
    6.6047   -2.4783    2.0151 H   0  0  0  0  0  0  0  0  0  0  0  0
    5.1924   -5.4671   -0.2119 H   0  0  0  0  0  0  0  0  0  0  0  0
    4.1687   -3.3202   -0.7781 H   0  0  0  0  0  0  0  0  0  0  0  0
    5.0285   -1.1103    1.1888 H   0  0  0  0  0  0  0  0  0  0  0  0
    3.8463   -0.9897   -0.0873 H   0  0  0  0  0  0  0  0  0  0  0  0
    2.7397   -1.2826    2.0726 H   0  0  0  0  0  0  0  0  0  0  0  0
    1.8033   -1.9633    0.2437 H   0  0  0  0  0  0  0  0  0  0  0  0
    5.1028   -1.9266    3.1001 H   0  0  0  0  0  0  0  0  0  0  0  0
    2.5445   -3.5980    4.5228 H   0  0  0  0  0  0  0  0  0  0  0  0
    1.5288   -3.2800    3.1447 H   0  0  0  0  0  0  0  0  0  0  0  0
    3.0311   -5.6501    3.9309 H   0  0  0  0  0  0  0  0  0  0  0  0
    0.1183   -8.0839    1.2469 H   0  0  0  0  0  0  0  0  0  0  0  0
    1.1361   -8.3264    4.5558 H   0  0  0  0  0  0  0  0  0  0  0  0
   -0.9896   -9.0471    4.3862 H   0  0  0  0  0  0  0  0  0  0  0  0
    2.8632   -9.9647    2.0046 H   0  0  0  0  0  0  0  0  0  0  0  0
    1.7476   -9.2242    0.9131 H   0  0  0  0  0  0  0  0  0  0  0  0
    4.0696   -8.5714    3.0705 H   0  0  0  0  0  0  0  0  0  0  0  0
    4.8014   -7.3226   -0.1572 H   0  0  0  0  0  0  0  0  0  0  0  0
    4.3749   -8.7226    0.7673 H   0  0  0  0  0  0  0  0  0  0  0  0
    5.4183   -7.4775    1.4851 H   0  0  0  0  0  0  0  0  0  0  0  0
    3.5319   -5.4355   -0.3926 H   0  0  0  0  0  0  0  0  0  0  0  0
    1.5997   -5.2857   -0.8258 H   0  0  0  0  0  0  0  0  0  0  0  0
    4.9685   -5.2597    4.1457 H   0  0  0  0  0  0  0  0  0  0  0  0
    6.1952   -4.2517    3.5644 H   0  0  0  0  0  0  0  0  0  0  0  0
    5.9854   -5.8215    2.8490 H   0  0  0  0  0  0  0  0  0  0  0  0
  1  2  1  0
  1 31  1  0
  1 32  1  0
  1 33  1  0
  2  7  1  0
  2  3  1  0
  2 34  1  6
  3  4  1  0
  3 35  1  0
  3 36  1  0
  4  5  1  0
  4 37  1  0
  4 38  1  0
  5 29  1  0
  5  6  1  6
  5  7  1  0
  6 39  1  0
  7  8  1  0
  7 40  1  6
  8  9  1  0
  8 41  1  0
  8 42  1  0
  9 10  1  0
  9 11  1  0
  9 43  1  1
 10 44  1  0
 11 29  1  0
 11 12  1  1
 11 13  1  0
 12 45  1  0
 13 14  1  0
 13 46  1  0
 13 47  1  0
 14 28  1  0
 14 15  1  0
 14 48  1  1
 15 16  1  0
 16 22  1  0
 16 17  1  6
 16 18  1  0
 17 49  1  0
 18 19  1  0
 18 20  1  0
 18 50  1  1
 19 51  1  0
 20 21  1  0
 21 22  1  0
 21 52  1  0
 21 53  1  0
 22 23  1  1
 22 24  1  0
 23 54  1  0
 24 28  1  0
 24 25  1  6
 24 26  1  0
 25 55  1  0
 25 56  1  0
 25 57  1  0
 26 27  1  0
 26 28  1  0
 26 58  1  6
 27 59  1  0
 28 29  1  6
 29 30  1  1
 30 60  1  0
 30 61  1  0
 30 62  1  0
M  END
>  <i_m_ct_stereo_status>  (234) 
1

>  <s_m_source_file>  (234) 
/var/tmp/pbs.5076255.sched01/tmpfes5ahby/80lk6pwr5_.sdf

>  <i_m_source_file_index>  (234) 
10

>  <i_lp_mmshare_version>  (234) 
48012

>  <i_f3d_flags>  (234) 
0

>  <s_epik_input>  (234) 
W0NIMl0xW0NIMl1bQ0BASF0oW0NIM10pW0NASF0oW0NIMl1bQ0BIXTJbT0hdKVtDQF0xKFtPSF0pW0NAQF0zKFtDSDNdKVtDQF0yKFtPSF0pW0NIMl1bQ0BIXShbQ0BAXTM0NSlPW0NAQF02KFtPSF0pW0NAXShbT0hdKShbQ0BAXTQoW0NIM10pW0NASF01W09IXSlbQ0gyXU9bQ0BASF02W09IXQ==

>  <s_epik_cmdline>  (234) 
J2VwaWtfcHl0aG9uJywgJy1waHQnLCAnMi4wJywgJy1waCcsICc3LjAnLCAnLXRuJywgJzgnLCAnLW1hJywgJzIwMCcsICctaW1hZScsICc8aW5maWxlLm1hZT4nLCAnLW9tYWUnLCAnPG91dGZpbGUubWFlPic=

>  <r_lp_tautomer_probability>  (234) 
1

>  <r_epik_Ionization_Penalty>  (234) 
1.69172e-05

>  <r_epik_Ionization_Penalty_Charging>  (234) 
0

>  <r_epik_Ionization_Penalty_Neutral>  (234) 
1.69172e-05

>  <r_epik_State_Penalty>  (234) 
-0

>  <r_epik_Charging_Adjusted_Penalty>  (234) 
0

>  <i_epik_Tot_Q>  (234) 
0

>  <i_epik_Tot_abs_Q>  (234) 
0

>  <s_epik_Chemistry_Notes>  (234) 
This compound contains an acetal/aminal-like group ( X-CH(R)-Y where X, Y are N, S, or O) that may be acid/base labile, releasing an aldehyde.

>  <s_lp_Force_Field>  (234) 
OPLS3e

>  <r_lp_Energy>  (234) 
91.8441

>  <b_lp_Chiralities_Consistent>  (234) 
1

>  <s_lp_Variant>  (234) 
55:0-1

>  <s_i_glide_gridfile>  (234) 
pfpi4k_grid

>  <i_i_glide_lignum>  (234) 
10

>  <i_i_glide_rotatable_bonds>  (234) 
7

>  <r_i_docking_score>  (234) 
-4.22123

>  <r_i_glide_ligand_efficiency>  (234) 
-0.140708

>  <r_i_glide_ligand_efficiency_sa>  (234) 
-0.437211

>  <r_i_glide_ligand_efficiency_ln>  (234) 
-0.959109

>  <r_i_glide_gscore>  (234) 
-4.22123

>  <r_i_glide_lipo>  (234) 
-0.5451

>  <r_i_glide_hbond>  (234) 
0

>  <r_i_glide_metal>  (234) 
-0

>  <r_i_glide_rewards>  (234) 
-0.487681

>  <r_i_glide_evdw>  (234) 
-26.5778

>  <r_i_glide_ecoul>  (234) 
-12.0395

>  <r_i_glide_erotb>  (234) 
0

>  <r_i_glide_esite>  (234) 
-0.053629

>  <r_i_glide_emodel>  (234) 
-47.1115

>  <r_i_glide_energy>  (234) 
-38.6173

>  <r_i_glide_einternal>  (234) 
3.36372

>  <r_i_glide_intrahb_reward>  (234) 
-0

>  <i_i_glide_confnum>  (234) 
2

>  <i_i_glide_posenum>  (234) 
2

>  <r_i_glide_eff_state_penalty>  (234) 
0

>  <ligand_id>  (234) 
55

>  <original_smiles>  (234) 
CC1CCC2(O)C1CC(O)C1(O)CC3OC4(O)C(O)OCC4(O)C4(C)C(O)C34C12C

>  <smiles>  (234) 
[H]OC1([H])OC([H])([H])C2(O[H])C1(O[H])OC1([H])C([H])([H])C3(O[H])C([H])(O[H])C([H])([H])C4([H])C([H])(C([H])([H])[H])C([H])([H])C([H])([H])C4(O[H])C3(C([H])([H])[H])C13C([H])(O[H])C23C([H])([H])[H]

$$$$
55:0:2
     RDKit          3D

 62 67  0  0  1  0  0  0  0  0999 V2000
    1.6236   -5.1295    3.5115 C   0  0  0  0  0  0  0  0  0  0  0  0
    2.8613   -4.2558    3.7667 C   0  0  2  0  0  0  0  0  0  0  0  0
    3.3226   -4.2990    5.2282 C   0  0  0  0  0  0  0  0  0  0  0  0
    3.3073   -2.8512    5.7429 C   0  0  0  0  0  0  0  0  0  0  0  0
    2.3412   -2.0777    4.8177 C   0  0  2  0  0  0  0  0  0  0  0  0
    1.0851   -2.4987    5.3054 O   0  0  0  0  0  0  0  0  0  0  0  0
    2.6384   -2.7584    3.4524 C   0  0  1  0  0  0  0  0  0  0  0  0
    3.9268   -2.1887    2.8201 C   0  0  0  0  0  0  0  0  0  0  0  0
    3.8561   -0.6800    2.6411 C   0  0  1  0  0  0  0  0  0  0  0  0
    2.9255   -0.4310    1.6035 O   0  0  0  0  0  0  0  0  0  0  0  0
    3.6094    0.0782    3.9824 C   0  0  1  0  0  0  0  0  0  0  0  0
    4.8294    0.0266    4.6979 O   0  0  0  0  0  0  0  0  0  0  0  0
    3.3048    1.5640    3.6876 C   0  0  0  0  0  0  0  0  0  0  0  0
    1.8875    1.7575    4.1719 C   0  0  1  0  0  0  0  0  0  0  0  0
    1.1855    2.8604    3.5889 O   0  0  0  0  0  0  0  0  0  0  0  0
   -0.2175    2.9107    3.7117 C   0  0  2  0  0  0  0  0  0  0  0  0
   -0.8253    2.5825    2.4861 O   0  0  0  0  0  0  0  0  0  0  0  0
   -0.7960    4.2478    4.2258 C   0  0  1  0  0  0  0  0  0  0  0  0
   -0.8497    5.2914    3.2794 O   0  0  0  0  0  0  0  0  0  0  0  0
   -2.0688    3.8752    4.7018 O   0  0  0  0  0  0  0  0  0  0  0  0
   -2.1718    2.4380    4.8811 C   0  0  0  0  0  0  0  0  0  0  0  0
   -0.7150    1.9538    4.8088 C   0  0  2  0  0  0  0  0  0  0  0  0
   -0.2946    2.2819    6.1326 O   0  0  0  0  0  0  0  0  0  0  0  0
   -0.2983    0.4676    4.6057 C   0  0  1  0  0  0  0  0  0  0  0  0
   -1.0283   -0.4063    5.6084 C   0  0  0  0  0  0  0  0  0  0  0  0
    0.2191   -0.2471    3.3654 C   0  0  1  0  0  0  0  0  0  0  0  0
    0.3120    0.3023    2.0969 O   0  0  0  0  0  0  0  0  0  0  0  0
    1.2326    0.3711    4.3046 C   0  0  1  0  0  0  0  0  0  0  0  0
    2.4220   -0.4814    4.8700 C   0  0  1  0  0  0  0  0  0  0  0  0
    2.6150   -0.0873    6.3749 C   0  0  0  0  0  0  0  0  0  0  0  0
    0.7736   -4.8321    4.1247 H   0  0  0  0  0  0  0  0  0  0  0  0
    1.8378   -6.1729    3.7323 H   0  0  0  0  0  0  0  0  0  0  0  0
    1.3232   -5.0726    2.4678 H   0  0  0  0  0  0  0  0  0  0  0  0
    3.6635   -4.6418    3.1394 H   0  0  0  0  0  0  0  0  0  0  0  0
    2.6503   -4.9147    5.8262 H   0  0  0  0  0  0  0  0  0  0  0  0
    4.3222   -4.7223    5.3221 H   0  0  0  0  0  0  0  0  0  0  0  0
    3.0091   -2.8025    6.7950 H   0  0  0  0  0  0  0  0  0  0  0  0
    4.3191   -2.4519    5.6734 H   0  0  0  0  0  0  0  0  0  0  0  0
    0.4270   -2.2008    4.6959 H   0  0  0  0  0  0  0  0  0  0  0  0
    1.8212   -2.6464    2.7361 H   0  0  0  0  0  0  0  0  0  0  0  0
    4.7915   -2.4373    3.4337 H   0  0  0  0  0  0  0  0  0  0  0  0
    4.1029   -2.6570    1.8498 H   0  0  0  0  0  0  0  0  0  0  0  0
    4.8033   -0.3386    2.2296 H   0  0  0  0  0  0  0  0  0  0  0  0
    2.0280   -0.6387    1.8655 H   0  0  0  0  0  0  0  0  0  0  0  0
    5.0696   -0.8835    4.8078 H   0  0  0  0  0  0  0  0  0  0  0  0
    3.9843    2.2387    4.2089 H   0  0  0  0  0  0  0  0  0  0  0  0
    3.4090    1.8000    2.6322 H   0  0  0  0  0  0  0  0  0  0  0  0
    2.0238    2.1312    5.1766 H   0  0  0  0  0  0  0  0  0  0  0  0
   -0.5395    3.2053    1.8074 H   0  0  0  0  0  0  0  0  0  0  0  0
   -0.2387    4.6220    5.0799 H   0  0  0  0  0  0  0  0  0  0  0  0
   -0.5742    4.9868    2.4110 H   0  0  0  0  0  0  0  0  0  0  0  0
   -2.6678    2.2165    5.8383 H   0  0  0  0  0  0  0  0  0  0  0  0
   -2.7688    1.9947    4.0726 H   0  0  0  0  0  0  0  0  0  0  0  0
    0.6473    2.2332    6.1504 H   0  0  0  0  0  0  0  0  0  0  0  0
   -1.2154   -1.3869    5.1747 H   0  0  0  0  0  0  0  0  0  0  0  0
   -2.0047    0.0132    5.8698 H   0  0  0  0  0  0  0  0  0  0  0  0
   -0.4375   -0.5176    6.5216 H   0  0  0  0  0  0  0  0  0  0  0  0
    0.0880   -1.3227    3.2973 H   0  0  0  0  0  0  0  0  0  0  0  0
    0.2139    1.2559    2.1546 H   0  0  0  0  0  0  0  0  0  0  0  0
    2.7417    0.9702    6.5842 H   0  0  0  0  0  0  0  0  0  0  0  0
    3.5037   -0.5311    6.8175 H   0  0  0  0  0  0  0  0  0  0  0  0
    1.7569   -0.4183    6.9497 H   0  0  0  0  0  0  0  0  0  0  0  0
  1  2  1  0
  1 31  1  0
  1 32  1  0
  1 33  1  0
  2  7  1  0
  2  3  1  0
  2 34  1  6
  3  4  1  0
  3 35  1  0
  3 36  1  0
  4  5  1  0
  4 37  1  0
  4 38  1  0
  5 29  1  0
  5  6  1  1
  5  7  1  0
  6 39  1  0
  7  8  1  0
  7 40  1  6
  8  9  1  0
  8 41  1  0
  8 42  1  0
  9 10  1  0
  9 11  1  0
  9 43  1  6
 10 44  1  0
 11 29  1  0
 11 12  1  1
 11 13  1  0
 12 45  1  0
 13 14  1  0
 13 46  1  0
 13 47  1  0
 14 28  1  0
 14 15  1  0
 14 48  1  1
 15 16  1  0
 16 22  1  0
 16 17  1  6
 16 18  1  0
 17 49  1  0
 18 19  1  0
 18 20  1  0
 18 50  1  1
 19 51  1  0
 20 21  1  0
 21 22  1  0
 21 52  1  0
 21 53  1  0
 22 23  1  1
 22 24  1  0
 23 54  1  0
 24 28  1  0
 24 25  1  1
 24 26  1  0
 25 55  1  0
 25 56  1  0
 25 57  1  0
 26 27  1  0
 26 28  1  0
 26 58  1  6
 27 59  1  0
 28 29  1  1
 29 30  1  1
 30 60  1  0
 30 61  1  0
 30 62  1  0
M  END
>  <i_m_ct_stereo_status>  (235) 
1

>  <s_m_source_file>  (235) 
/var/tmp/pbs.5076255.sched01/tmpfes5ahby/80lk6pwr5_.sdf

>  <i_m_source_file_index>  (235) 
10

>  <i_lp_mmshare_version>  (235) 
48012

>  <i_f3d_flags>  (235) 
0

>  <s_epik_input>  (235) 
W0NIMl0xW0NIMl1bQ0BASF0oW0NIM10pW0NASF0oW0NIMl1bQ0BIXTJbT0hdKVtDQF0xKFtPSF0pW0NAQF0zKFtDSDNdKVtDQF0yKFtPSF0pW0NIMl1bQ0BIXShbQ0BAXTM0NSlPW0NAQF02KFtPSF0pW0NAXShbT0hdKShbQ0BAXTQoW0NIM10pW0NASF01W09IXSlbQ0gyXU9bQ0BASF02W09IXQ==

>  <s_epik_cmdline>  (235) 
J2VwaWtfcHl0aG9uJywgJy1waHQnLCAnMi4wJywgJy1waCcsICc3LjAnLCAnLXRuJywgJzgnLCAnLW1hJywgJzIwMCcsICctaW1hZScsICc8aW5maWxlLm1hZT4nLCAnLW9tYWUnLCAnPG91dGZpbGUubWFlPic=

>  <r_lp_tautomer_probability>  (235) 
1

>  <r_epik_Ionization_Penalty>  (235) 
1.69172e-05

>  <r_epik_Ionization_Penalty_Charging>  (235) 
0

>  <r_epik_Ionization_Penalty_Neutral>  (235) 
1.69172e-05

>  <r_epik_State_Penalty>  (235) 
-0

>  <r_epik_Charging_Adjusted_Penalty>  (235) 
0

>  <i_epik_Tot_Q>  (235) 
0

>  <i_epik_Tot_abs_Q>  (235) 
0

>  <s_epik_Chemistry_Notes>  (235) 
This compound contains an acetal/aminal-like group ( X-CH(R)-Y where X, Y are N, S, or O) that may be acid/base labile, releasing an aldehyde.

>  <s_lp_Force_Field>  (235) 
OPLS3e

>  <r_lp_Energy>  (235) 
91.8441

>  <b_lp_Chiralities_Consistent>  (235) 
1

>  <s_lp_Variant>  (235) 
55:0-1

>  <s_i_glide_gridfile>  (235) 
pfpi4k_grid

>  <i_i_glide_lignum>  (235) 
10

>  <i_i_glide_rotatable_bonds>  (235) 
7

>  <r_i_docking_score>  (235) 
-3.89483

>  <r_i_glide_ligand_efficiency>  (235) 
-0.129828

>  <r_i_glide_ligand_efficiency_sa>  (235) 
-0.403405

>  <r_i_glide_ligand_efficiency_ln>  (235) 
-0.884948

>  <r_i_glide_gscore>  (235) 
-3.89483

>  <r_i_glide_lipo>  (235) 
-0.0238442

>  <r_i_glide_hbond>  (235) 
0

>  <r_i_glide_metal>  (235) 
-0

>  <r_i_glide_rewards>  (235) 
-0.987681

>  <r_i_glide_evdw>  (235) 
-21.3122

>  <r_i_glide_ecoul>  (235) 
-11.2309

>  <r_i_glide_erotb>  (235) 
0

>  <r_i_glide_esite>  (235) 
-0.133062

>  <r_i_glide_emodel>  (235) 
-46.4924

>  <r_i_glide_energy>  (235) 
-32.5431

>  <r_i_glide_einternal>  (235) 
1.17461

>  <r_i_glide_intrahb_reward>  (235) 
-0.5

>  <i_i_glide_confnum>  (235) 
1

>  <i_i_glide_posenum>  (235) 
13

>  <r_i_glide_eff_state_penalty>  (235) 
0

>  <ligand_id>  (235) 
55

>  <original_smiles>  (235) 
CC1CCC2(O)C1CC(O)C1(O)CC3OC4(O)C(O)OCC4(O)C4(C)C(O)C34C12C

>  <smiles>  (235) 
[H]OC1([H])OC([H])([H])C2(O[H])C1(O[H])OC1([H])C([H])([H])C3(O[H])C([H])(O[H])C([H])([H])C4([H])C([H])(C([H])([H])[H])C([H])([H])C([H])([H])C4(O[H])C3(C([H])([H])[H])C13C([H])(O[H])C23C([H])([H])[H]

$$$$
56:0:0
     RDKit          3D

 29 31  0  0  1  0  0  0  0  0999 V2000
    2.1980   -3.0129   -2.4157 N   0  0  0  0  0  0  0  0  0  0  0  0
    3.5881   -3.3775   -2.0695 C   0  0  2  0  0  0  0  0  0  0  0  0
    3.7016   -3.8492   -0.5946 C   0  0  1  0  0  0  0  0  0  0  0  0
    5.1467   -4.3316   -0.3266 C   0  0  0  0  0  0  0  0  0  0  0  0
    6.1296   -3.1657   -0.5745 C   0  0  2  0  0  0  0  0  0  0  0  0
    5.7951   -1.9961    0.3727 C   0  0  0  0  0  0  0  0  0  0  0  0
    4.3548   -1.5172    0.1021 C   0  0  2  0  0  0  0  0  0  0  0  0
    3.3781   -2.6809    0.3691 C   0  0  0  0  0  0  0  0  0  0  0  0
    4.2395   -1.0551   -1.3652 C   0  0  0  0  0  0  0  0  0  0  0  0
    4.5719   -2.2167   -2.3153 C   0  0  1  0  0  0  0  0  0  0  0  0
    6.0136   -2.6987   -2.0400 C   0  0  0  0  0  0  0  0  0  0  0  0
    1.8768   -2.2458   -1.8232 H   0  0  0  0  0  0  0  0  0  0  0  0
    1.5848   -3.8059   -2.2818 H   0  0  0  0  0  0  0  0  0  0  0  0
    3.8777   -4.1924   -2.7398 H   0  0  0  0  0  0  0  0  0  0  0  0
    3.0146   -4.6775   -0.4144 H   0  0  0  0  0  0  0  0  0  0  0  0
    5.2401   -4.6975    0.6954 H   0  0  0  0  0  0  0  0  0  0  0  0
    5.3845   -5.1771   -0.9796 H   0  0  0  0  0  0  0  0  0  0  0  0
    7.1521   -3.4974   -0.3876 H   0  0  0  0  0  0  0  0  0  0  0  0
    5.8943   -2.3129    1.4117 H   0  0  0  0  0  0  0  0  0  0  0  0
    6.5002   -1.1768    0.2285 H   0  0  0  0  0  0  0  0  0  0  0  0
    4.1157   -0.6841    0.7641 H   0  0  0  0  0  0  0  0  0  0  0  0
    2.3475   -2.3433    0.2509 H   0  0  0  0  0  0  0  0  0  0  0  0
    3.4633   -3.0144    1.4043 H   0  0  0  0  0  0  0  0  0  0  0  0
    3.2440   -0.6558   -1.5599 H   0  0  0  0  0  0  0  0  0  0  0  0
    4.9373   -0.2458   -1.5513 H   0  0  0  0  0  0  0  0  0  0  0  0
    4.4998   -1.8817   -3.3504 H   0  0  0  0  0  0  0  0  0  0  0  0
    6.7202   -1.8945   -2.2233 H   0  0  0  0  0  0  0  0  0  0  0  0
    6.2834   -3.5105   -2.7211 H   0  0  0  0  0  0  0  0  0  0  0  0
    2.1285   -2.7222   -3.3788 H   0  0  0  0  0  0  0  0  0  0  0  0
  1  2  1  0
  1 12  1  0
  1 13  1  0
  1 29  1  0
  2 10  1  0
  2  3  1  0
  2 14  1  6
  3  8  1  0
  3  4  1  0
  3 15  1  6
  4  5  1  0
  4 16  1  0
  4 17  1  0
  5 11  1  0
  5  6  1  0
  5 18  1  1
  6  7  1  0
  6 19  1  0
  6 20  1  0
  7  8  1  0
  7  9  1  0
  7 21  1  1
  8 22  1  0
  8 23  1  0
  9 10  1  0
  9 24  1  0
  9 25  1  0
 10 11  1  0
 10 26  1  6
 11 27  1  0
 11 28  1  0
M  CHG  1   1   1
M  END
>  <i_m_ct_stereo_status>  (236) 
1

>  <s_m_source_file>  (236) 
/var/tmp/pbs.5076255.sched01/tmpfes5ahby/80lk6pwr5_.sdf

>  <i_m_source_file_index>  (236) 
11

>  <i_lp_mmshare_version>  (236) 
48012

>  <i_f3d_flags>  (236) 
0

>  <s_epik_input>  (236) 
W05IMl1bQ0BIXShbQ0BASF0xMilbQ0BIXTNbQ0gyXVtDQEBIXShbQ0gyXTIpW0NIMl1bQ0BASF0oW0NIMl0xKVtDSDJdMw==

>  <s_epik_cmdline>  (236) 
J2VwaWtfcHl0aG9uJywgJy1waHQnLCAnMi4wJywgJy1waCcsICc3LjAnLCAnLXRuJywgJzgnLCAnLW1hJywgJzIwMCcsICctaW1hZScsICc8aW5maWxlLm1hZT4nLCAnLW9tYWUnLCAnPG91dGZpbGUubWFlPic=

>  <r_lp_tautomer_probability>  (236) 
1

>  <r_epik_Ionization_Penalty>  (236) 
0.000164672

>  <r_epik_Ionization_Penalty_Charging>  (236) 
0.000164672

>  <r_epik_Ionization_Penalty_Neutral>  (236) 
0

>  <r_epik_State_Penalty>  (236) 
-0

>  <r_epik_Charging_Adjusted_Penalty>  (236) 
0.000164672

>  <i_epik_Tot_Q>  (236) 
1

>  <i_epik_Tot_abs_Q>  (236) 
1

>  <s_lp_Force_Field>  (236) 
OPLS3e

>  <r_lp_Energy>  (236) 
6.10956

>  <b_lp_Chiralities_Consistent>  (236) 
1

>  <s_lp_Variant>  (236) 
56:0-1

>  <s_i_glide_gridfile>  (236) 
pfpi4k_grid

>  <i_i_glide_lignum>  (236) 
11

>  <i_i_glide_rotatable_bonds>  (236) 
0

>  <r_i_docking_score>  (236) 
-4.34857

>  <r_i_glide_ligand_efficiency>  (236) 
-0.395325

>  <r_i_glide_ligand_efficiency_sa>  (236) 
-0.879194

>  <r_i_glide_ligand_efficiency_ln>  (236) 
-1.27978

>  <r_i_glide_gscore>  (236) 
-4.34857

>  <r_i_glide_lipo>  (236) 
-0.248137

>  <r_i_glide_hbond>  (236) 
-0.2

>  <r_i_glide_metal>  (236) 
-0

>  <r_i_glide_rewards>  (236) 
-2.25

>  <r_i_glide_evdw>  (236) 
-14.1397

>  <r_i_glide_ecoul>  (236) 
-6.28968

>  <r_i_glide_erotb>  (236) 
0

>  <r_i_glide_esite>  (236) 
0

>  <r_i_glide_emodel>  (236) 
-27.6883

>  <r_i_glide_energy>  (236) 
-20.4293

>  <r_i_glide_einternal>  (236) 
0

>  <r_i_glide_intrahb_reward>  (236) 
-0

>  <i_i_glide_confnum>  (236) 
2

>  <i_i_glide_posenum>  (236) 
28

>  <r_i_glide_eff_state_penalty>  (236) 
0

>  <ligand_id>  (236) 
56

>  <original_smiles>  (236) 
NC1C2CC3CC(C2)CC1C3

>  <smiles>  (236) 
[H]C1([H])C2([H])C([H])([H])C3([H])C([H])([H])C1([H])C([H])([H])C([H])(C2([H])[H])C3([H])[N+]([H])([H])[H]

$$$$
56:0:1
     RDKit          3D

 29 31  0  0  1  0  0  0  0  0999 V2000
    4.2170   -5.4198   -0.1986 N   0  0  0  0  0  0  0  0  0  0  0  0
    4.5815   -4.0408    0.1846 C   0  0  2  0  0  0  0  0  0  0  0  0
    3.4018   -3.0580   -0.0224 C   0  0  1  0  0  0  0  0  0  0  0  0
    3.8055   -1.6579    0.4976 C   0  0  0  0  0  0  0  0  0  0  0  0
    5.0322   -1.1537   -0.2890 C   0  0  2  0  0  0  0  0  0  0  0  0
    4.6777   -1.0645   -1.7881 C   0  0  0  0  0  0  0  0  0  0  0  0
    4.2894   -2.4623   -2.3110 C   0  0  2  0  0  0  0  0  0  0  0  0
    3.0534   -2.9522   -1.5291 C   0  0  0  0  0  0  0  0  0  0  0  0
    5.4696   -3.4361   -2.1113 C   0  0  0  0  0  0  0  0  0  0  0  0
    5.8124   -3.5316   -0.6048 C   0  0  1  0  0  0  0  0  0  0  0  0
    6.2133   -2.1313   -0.0856 C   0  0  0  0  0  0  0  0  0  0  0  0
    3.9609   -5.4512   -1.1842 H   0  0  0  0  0  0  0  0  0  0  0  0
    3.4313   -5.7369    0.3536 H   0  0  0  0  0  0  0  0  0  0  0  0
    4.8334   -4.0664    1.2493 H   0  0  0  0  0  0  0  0  0  0  0  0
    2.5287   -3.3960    0.5337 H   0  0  0  0  0  0  0  0  0  0  0  0
    2.9755   -0.9581    0.3856 H   0  0  0  0  0  0  0  0  0  0  0  0
    4.0294   -1.6916    1.5669 H   0  0  0  0  0  0  0  0  0  0  0  0
    5.3159   -0.1647    0.0778 H   0  0  0  0  0  0  0  0  0  0  0  0
    3.8517   -0.3735   -1.9455 H   0  0  0  0  0  0  0  0  0  0  0  0
    5.5287   -0.6674   -2.3378 H   0  0  0  0  0  0  0  0  0  0  0  0
    4.0463   -2.4006   -3.3722 H   0  0  0  0  0  0  0  0  0  0  0  0
    2.7045   -3.9038   -1.9270 H   0  0  0  0  0  0  0  0  0  0  0  0
    2.2276   -2.2585   -1.6854 H   0  0  0  0  0  0  0  0  0  0  0  0
    5.2253   -4.4137   -2.5279 H   0  0  0  0  0  0  0  0  0  0  0  0
    6.3382   -3.0842   -2.6691 H   0  0  0  0  0  0  0  0  0  0  0  0
    6.6550   -4.2091   -0.4547 H   0  0  0  0  0  0  0  0  0  0  0  0
    7.0963   -1.7803   -0.6200 H   0  0  0  0  0  0  0  0  0  0  0  0
    6.4874   -2.1734    0.9716 H   0  0  0  0  0  0  0  0  0  0  0  0
    4.9970   -6.0414   -0.0424 H   0  0  0  0  0  0  0  0  0  0  0  0
  1  2  1  0
  1 12  1  0
  1 13  1  0
  1 29  1  0
  2 10  1  0
  2  3  1  0
  2 14  1  1
  3  8  1  0
  3  4  1  0
  3 15  1  1
  4  5  1  0
  4 16  1  0
  4 17  1  0
  5 11  1  0
  5  6  1  0
  5 18  1  1
  6  7  1  0
  6 19  1  0
  6 20  1  0
  7  8  1  0
  7  9  1  0
  7 21  1  6
  8 22  1  0
  8 23  1  0
  9 10  1  0
  9 24  1  0
  9 25  1  0
 10 11  1  0
 10 26  1  6
 11 27  1  0
 11 28  1  0
M  CHG  1   1   1
M  END
>  <i_m_ct_stereo_status>  (237) 
1

>  <s_m_source_file>  (237) 
/var/tmp/pbs.5076255.sched01/tmpfes5ahby/80lk6pwr5_.sdf

>  <i_m_source_file_index>  (237) 
11

>  <i_lp_mmshare_version>  (237) 
48012

>  <i_f3d_flags>  (237) 
0

>  <s_epik_input>  (237) 
W05IMl1bQ0BIXShbQ0BASF0xMilbQ0BIXTNbQ0gyXVtDQEBIXShbQ0gyXTIpW0NIMl1bQ0BASF0oW0NIMl0xKVtDSDJdMw==

>  <s_epik_cmdline>  (237) 
J2VwaWtfcHl0aG9uJywgJy1waHQnLCAnMi4wJywgJy1waCcsICc3LjAnLCAnLXRuJywgJzgnLCAnLW1hJywgJzIwMCcsICctaW1hZScsICc8aW5maWxlLm1hZT4nLCAnLW9tYWUnLCAnPG91dGZpbGUubWFlPic=

>  <r_lp_tautomer_probability>  (237) 
1

>  <r_epik_Ionization_Penalty>  (237) 
0.000164672

>  <r_epik_Ionization_Penalty_Charging>  (237) 
0.000164672

>  <r_epik_Ionization_Penalty_Neutral>  (237) 
0

>  <r_epik_State_Penalty>  (237) 
-0

>  <r_epik_Charging_Adjusted_Penalty>  (237) 
0.000164672

>  <i_epik_Tot_Q>  (237) 
1

>  <i_epik_Tot_abs_Q>  (237) 
1

>  <s_lp_Force_Field>  (237) 
OPLS3e

>  <r_lp_Energy>  (237) 
6.10956

>  <b_lp_Chiralities_Consistent>  (237) 
1

>  <s_lp_Variant>  (237) 
56:0-1

>  <s_i_glide_gridfile>  (237) 
pfpi4k_grid

>  <i_i_glide_lignum>  (237) 
11

>  <i_i_glide_rotatable_bonds>  (237) 
0

>  <r_i_docking_score>  (237) 
-4.05147

>  <r_i_glide_ligand_efficiency>  (237) 
-0.368315

>  <r_i_glide_ligand_efficiency_sa>  (237) 
-0.819126

>  <r_i_glide_ligand_efficiency_ln>  (237) 
-1.19235

>  <r_i_glide_gscore>  (237) 
-4.05147

>  <r_i_glide_lipo>  (237) 
-0.316209

>  <r_i_glide_hbond>  (237) 
0

>  <r_i_glide_metal>  (237) 
-0

>  <r_i_glide_rewards>  (237) 
-2.25

>  <r_i_glide_evdw>  (237) 
-15.3827

>  <r_i_glide_ecoul>  (237) 
-4.58863

>  <r_i_glide_erotb>  (237) 
0

>  <r_i_glide_esite>  (237) 
-0.0278317

>  <r_i_glide_emodel>  (237) 
-26.7354

>  <r_i_glide_energy>  (237) 
-19.9713

>  <r_i_glide_einternal>  (237) 
0

>  <r_i_glide_intrahb_reward>  (237) 
-0

>  <i_i_glide_confnum>  (237) 
1

>  <i_i_glide_posenum>  (237) 
9

>  <r_i_glide_eff_state_penalty>  (237) 
0

>  <ligand_id>  (237) 
56

>  <original_smiles>  (237) 
NC1C2CC3CC(C2)CC1C3

>  <smiles>  (237) 
[H]C1([H])C2([H])C([H])([H])C3([H])C([H])([H])C1([H])C([H])([H])C([H])(C2([H])[H])C3([H])[N+]([H])([H])[H]

$$$$
56:0:2
     RDKit          3D

 29 31  0  0  1  0  0  0  0  0999 V2000
    3.0405   -0.3066   -3.3329 N   0  0  0  0  0  0  0  0  0  0  0  0
    4.1458   -1.2721   -3.1276 C   0  0  2  0  0  0  0  0  0  0  0  0
    3.6610   -2.7274   -3.3052 C   0  0  1  0  0  0  0  0  0  0  0  0
    4.8830   -3.6702   -3.1627 C   0  0  0  0  0  0  0  0  0  0  0  0
    5.4777   -3.5305   -1.7444 C   0  0  2  0  0  0  0  0  0  0  0  0
    4.4265   -3.8656   -0.6745 C   0  0  0  0  0  0  0  0  0  0  0  0
    3.2445   -2.8977   -0.8099 C   0  0  2  0  0  0  0  0  0  0  0  0
    2.6139   -3.0541   -2.2144 C   0  0  0  0  0  0  0  0  0  0  0  0
    3.7730   -1.4551   -0.6133 C   0  0  0  0  0  0  0  0  0  0  0  0
    4.7924   -1.1266   -1.7201 C   0  0  1  0  0  0  0  0  0  0  0  0
    5.9809   -2.0943   -1.5602 C   0  0  0  0  0  0  0  0  0  0  0  0
    2.3370   -0.4961   -2.6269 H   0  0  0  0  0  0  0  0  0  0  0  0
    2.6215   -0.4260   -4.2454 H   0  0  0  0  0  0  0  0  0  0  0  0
    4.8982   -1.0654   -3.8880 H   0  0  0  0  0  0  0  0  0  0  0  0
    3.2150   -2.8655   -4.2901 H   0  0  0  0  0  0  0  0  0  0  0  0
    4.6200   -4.7136   -3.3427 H   0  0  0  0  0  0  0  0  0  0  0  0
    5.6404   -3.4353   -3.9134 H   0  0  0  0  0  0  0  0  0  0  0  0
    6.3036   -4.2195   -1.6100 H   0  0  0  0  0  0  0  0  0  0  0  0
    4.0951   -4.8988   -0.7782 H   0  0  0  0  0  0  0  0  0  0  0  0
    4.8718   -3.7846    0.3172 H   0  0  0  0  0  0  0  0  0  0  0  0
    2.4988   -3.1186   -0.0432 H   0  0  0  0  0  0  0  0  0  0  0  0
    1.7462   -2.4083   -2.3187 H   0  0  0  0  0  0  0  0  0  0  0  0
    2.2145   -4.0594   -2.3429 H   0  0  0  0  0  0  0  0  0  0  0  0
    2.9632   -0.7326   -0.6354 H   0  0  0  0  0  0  0  0  0  0  0  0
    4.2240   -1.3519    0.3759 H   0  0  0  0  0  0  0  0  0  0  0  0
    5.1514   -0.1098   -1.5922 H   0  0  0  0  0  0  0  0  0  0  0  0
    6.4392   -1.9759   -0.5775 H   0  0  0  0  0  0  0  0  0  0  0  0
    6.7535   -1.8874   -2.2988 H   0  0  0  0  0  0  0  0  0  0  0  0
    3.3322    0.6558   -3.2256 H   0  0  0  0  0  0  0  0  0  0  0  0
  1  2  1  0
  1 12  1  0
  1 13  1  0
  1 29  1  0
  2 10  1  0
  2  3  1  0
  2 14  1  6
  3  8  1  0
  3  4  1  0
  3 15  1  6
  4  5  1  0
  4 16  1  0
  4 17  1  0
  5 11  1  0
  5  6  1  0
  5 18  1  6
  6  7  1  0
  6 19  1  0
  6 20  1  0
  7  8  1  0
  7  9  1  0
  7 21  1  1
  8 22  1  0
  8 23  1  0
  9 10  1  0
  9 24  1  0
  9 25  1  0
 10 11  1  0
 10 26  1  1
 11 27  1  0
 11 28  1  0
M  CHG  1   1   1
M  END
>  <i_m_ct_stereo_status>  (238) 
1

>  <s_m_source_file>  (238) 
/var/tmp/pbs.5076255.sched01/tmpfes5ahby/80lk6pwr5_.sdf

>  <i_m_source_file_index>  (238) 
11

>  <i_lp_mmshare_version>  (238) 
48012

>  <i_f3d_flags>  (238) 
0

>  <s_epik_input>  (238) 
W05IMl1bQ0BIXShbQ0BASF0xMilbQ0BIXTNbQ0gyXVtDQEBIXShbQ0gyXTIpW0NIMl1bQ0BASF0oW0NIMl0xKVtDSDJdMw==

>  <s_epik_cmdline>  (238) 
J2VwaWtfcHl0aG9uJywgJy1waHQnLCAnMi4wJywgJy1waCcsICc3LjAnLCAnLXRuJywgJzgnLCAnLW1hJywgJzIwMCcsICctaW1hZScsICc8aW5maWxlLm1hZT4nLCAnLW9tYWUnLCAnPG91dGZpbGUubWFlPic=

>  <r_lp_tautomer_probability>  (238) 
1

>  <r_epik_Ionization_Penalty>  (238) 
0.000164672

>  <r_epik_Ionization_Penalty_Charging>  (238) 
0.000164672

>  <r_epik_Ionization_Penalty_Neutral>  (238) 
0

>  <r_epik_State_Penalty>  (238) 
-0

>  <r_epik_Charging_Adjusted_Penalty>  (238) 
0.000164672

>  <i_epik_Tot_Q>  (238) 
1

>  <i_epik_Tot_abs_Q>  (238) 
1

>  <s_lp_Force_Field>  (238) 
OPLS3e

>  <r_lp_Energy>  (238) 
6.10956

>  <b_lp_Chiralities_Consistent>  (238) 
1

>  <s_lp_Variant>  (238) 
56:0-1

>  <s_i_glide_gridfile>  (238) 
pfpi4k_grid

>  <i_i_glide_lignum>  (238) 
11

>  <i_i_glide_rotatable_bonds>  (238) 
0

>  <r_i_docking_score>  (238) 
-3.92319

>  <r_i_glide_ligand_efficiency>  (238) 
-0.356654

>  <r_i_glide_ligand_efficiency_sa>  (238) 
-0.79319

>  <r_i_glide_ligand_efficiency_ln>  (238) 
-1.15459

>  <r_i_glide_gscore>  (238) 
-3.92319

>  <r_i_glide_lipo>  (238) 
-0.407022

>  <r_i_glide_hbond>  (238) 
0

>  <r_i_glide_metal>  (238) 
-0

>  <r_i_glide_rewards>  (238) 
-2.25

>  <r_i_glide_evdw>  (238) 
-14.8574

>  <r_i_glide_ecoul>  (238) 
-3.48864

>  <r_i_glide_erotb>  (238) 
0

>  <r_i_glide_esite>  (238) 
0

>  <r_i_glide_emodel>  (238) 
-24.7727

>  <r_i_glide_energy>  (238) 
-18.3461

>  <r_i_glide_einternal>  (238) 
0

>  <r_i_glide_intrahb_reward>  (238) 
-0

>  <i_i_glide_confnum>  (238) 
1

>  <i_i_glide_posenum>  (238) 
7

>  <r_i_glide_eff_state_penalty>  (238) 
0

>  <ligand_id>  (238) 
56

>  <original_smiles>  (238) 
NC1C2CC3CC(C2)CC1C3

>  <smiles>  (238) 
[H]C1([H])C2([H])C([H])([H])C3([H])C([H])([H])C1([H])C([H])([H])C([H])(C2([H])[H])C3([H])[N+]([H])([H])[H]

$$$$
57:0:0
     RDKit          3D

 23 24  0  0  1  0  0  0  0  0999 V2000
   -1.2306   -7.1673    4.1395 C   0  0  0  0  0  0  0  0  0  0  0  0
   -1.0071   -7.7585    2.7409 C   0  0  0  0  0  0  0  0  0  0  0  0
   -1.3270   -9.2568    2.7018 C   0  0  0  0  0  0  0  0  0  0  0  0
    0.3698   -7.4601    2.2244 C   0  0  0  0  0  0  0  0  0  0  0  0
    1.5065   -8.2280    2.2924 C   0  0  0  0  0  0  0  0  0  0  0  0
    2.5049   -7.4962    1.6816 N   0  0  0  0  0  0  0  0  0  0  0  0
    3.7916   -7.8957    1.5234 N   0  0  0  0  0  0  0  0  0  0  0  0
    4.5260   -6.9750    0.9042 C   0  0  0  0  0  0  0  0  0  0  0  0
    4.0921   -5.7043    0.4505 C   0  0  0  0  0  0  0  0  0  0  0  0
    2.7809   -5.3465    0.6319 C   0  0  0  0  0  0  0  0  0  0  0  0
    1.9140   -6.2722    1.2687 C   0  0  0  0  0  0  0  0  0  0  0  0
    0.6164   -6.2561    1.5727 N   0  0  0  0  0  0  0  0  0  0  0  0
   -1.0669   -6.0904    4.1552 H   0  0  0  0  0  0  0  0  0  0  0  0
   -0.5568   -7.6110    4.8735 H   0  0  0  0  0  0  0  0  0  0  0  0
   -2.2515   -7.3434    4.4726 H   0  0  0  0  0  0  0  0  0  0  0  0
   -1.7238   -7.2750    2.0800 H   0  0  0  0  0  0  0  0  0  0  0  0
   -1.2209   -9.6393    1.6863 H   0  0  0  0  0  0  0  0  0  0  0  0
   -2.3476   -9.4562    3.0294 H   0  0  0  0  0  0  0  0  0  0  0  0
   -0.6516   -9.8175    3.3491 H   0  0  0  0  0  0  0  0  0  0  0  0
    1.7210   -9.2160    2.6851 H   0  0  0  0  0  0  0  0  0  0  0  0
    5.5620   -7.2490    0.7412 H   0  0  0  0  0  0  0  0  0  0  0  0
    4.7764   -5.0363   -0.0619 H   0  0  0  0  0  0  0  0  0  0  0  0
    2.4110   -4.3905    0.2765 H   0  0  0  0  0  0  0  0  0  0  0  0
  1  2  1  0
  1 13  1  0
  1 14  1  0
  1 15  1  0
  2  3  1  0
  2  4  1  0
  2 16  1  0
  3 17  1  0
  3 18  1  0
  3 19  1  0
  4 12  1  0
  4  5  2  0
  5  6  1  0
  5 20  1  0
  6 11  1  0
  6  7  1  0
  7  8  2  0
  8  9  1  0
  8 21  1  0
  9 10  2  0
  9 22  1  0
 10 11  1  0
 10 23  1  0
 11 12  2  0
M  END
>  <i_m_ct_stereo_status>  (239) 
1

>  <s_m_source_file>  (239) 
/var/tmp/pbs.5076255.sched01/tmpfes5ahby/80lk6pwr5_.sdf

>  <i_m_source_file_index>  (239) 
12

>  <i_lp_mmshare_version>  (239) 
48012

>  <i_f3d_flags>  (239) 
0

>  <s_epik_input>  (239) 
W0NIM11bQ0hdKFtDSDNdKWMoW2NIXTEpbmMobjEyKVtjSF1bY0hdW2NIXW4y

>  <s_epik_cmdline>  (239) 
J2VwaWtfcHl0aG9uJywgJy1waHQnLCAnMi4wJywgJy1waCcsICc3LjAnLCAnLXRuJywgJzgnLCAnLW1hJywgJzIwMCcsICctaW1hZScsICc8aW5maWxlLm1hZT4nLCAnLW9tYWUnLCAnPG91dGZpbGUubWFlPic=

>  <r_lp_tautomer_probability>  (239) 
1

>  <r_epik_Ionization_Penalty>  (239) 
0.0102078

>  <r_epik_Ionization_Penalty_Charging>  (239) 
0

>  <r_epik_Ionization_Penalty_Neutral>  (239) 
0.0102078

>  <r_epik_State_Penalty>  (239) 
0.00779394

>  <r_epik_Charging_Adjusted_Penalty>  (239) 
0.00779394

>  <i_epik_Tot_Q>  (239) 
0

>  <i_epik_Tot_abs_Q>  (239) 
0

>  <s_lp_Force_Field>  (239) 
OPLS3e

>  <r_lp_Energy>  (239) 
12.6133

>  <b_lp_Chiralities_Consistent>  (239) 
1

>  <s_lp_Variant>  (239) 
57:0-1

>  <s_i_glide_gridfile>  (239) 
pfpi4k_grid

>  <i_i_glide_lignum>  (239) 
12

>  <i_i_glide_rotatable_bonds>  (239) 
1

>  <r_i_docking_score>  (239) 
-4.02209

>  <r_i_glide_ligand_efficiency>  (239) 
-0.335174

>  <r_i_glide_ligand_efficiency_sa>  (239) 
-0.767357

>  <r_i_glide_ligand_efficiency_ln>  (239) 
-1.15415

>  <r_i_glide_gscore>  (239) 
-4.02209

>  <r_i_glide_lipo>  (239) 
-0.261204

>  <r_i_glide_hbond>  (239) 
-0.16

>  <r_i_glide_metal>  (239) 
-0

>  <r_i_glide_rewards>  (239) 
-2.25

>  <r_i_glide_evdw>  (239) 
-16.737

>  <r_i_glide_ecoul>  (239) 
-3.12454

>  <r_i_glide_erotb>  (239) 
0

>  <r_i_glide_esite>  (239) 
-0.045355

>  <r_i_glide_emodel>  (239) 
-24.661

>  <r_i_glide_energy>  (239) 
-19.8616

>  <r_i_glide_einternal>  (239) 
1.39001

>  <r_i_glide_intrahb_reward>  (239) 
-0

>  <i_i_glide_confnum>  (239) 
2

>  <i_i_glide_posenum>  (239) 
33

>  <r_i_glide_eff_state_penalty>  (239) 
0

>  <ligand_id>  (239) 
57

>  <original_smiles>  (239) 
CC(C)c1cn2ncccc2n1

>  <smiles>  (239) 
[H]c1nn2c([H])c(C([H])(C([H])([H])[H])C([H])([H])[H])nc2c([H])c1[H]

$$$$
57:0:1
     RDKit          3D

 23 24  0  0  1  0  0  0  0  0999 V2000
   -0.6832   -8.4879    4.6504 C   0  0  0  0  0  0  0  0  0  0  0  0
   -0.8610   -8.0151    3.2018 C   0  0  0  0  0  0  0  0  0  0  0  0
   -1.5755   -9.0630    2.3394 C   0  0  0  0  0  0  0  0  0  0  0  0
    0.4383   -7.5819    2.5853 C   0  0  0  0  0  0  0  0  0  0  0  0
    1.5601   -8.3277    2.3373 C   0  0  0  0  0  0  0  0  0  0  0  0
    2.4850   -7.4727    1.7692 N   0  0  0  0  0  0  0  0  0  0  0  0
    3.7377   -7.8137    1.3708 N   0  0  0  0  0  0  0  0  0  0  0  0
    4.3967   -6.7752    0.8651 C   0  0  0  0  0  0  0  0  0  0  0  0
    3.9198   -5.4487    0.7338 C   0  0  0  0  0  0  0  0  0  0  0  0
    2.6465   -5.1553    1.1548 C   0  0  0  0  0  0  0  0  0  0  0  0
    1.8606   -6.2041    1.6983 C   0  0  0  0  0  0  0  0  0  0  0  0
    0.6154   -6.2639    2.1694 N   0  0  0  0  0  0  0  0  0  0  0  0
   -0.2365   -7.7105    5.2698 H   0  0  0  0  0  0  0  0  0  0  0  0
   -0.0474   -9.3732    4.7036 H   0  0  0  0  0  0  0  0  0  0  0  0
   -1.6462   -8.7403    5.0946 H   0  0  0  0  0  0  0  0  0  0  0  0
   -1.5220   -7.1508    3.2473 H   0  0  0  0  0  0  0  0  0  0  0  0
   -1.7472   -8.6833    1.3328 H   0  0  0  0  0  0  0  0  0  0  0  0
   -2.5420   -9.3327    2.7657 H   0  0  0  0  0  0  0  0  0  0  0  0
   -0.9819   -9.9732    2.2508 H   0  0  0  0  0  0  0  0  0  0  0  0
    1.8043   -9.3699    2.4935 H   0  0  0  0  0  0  0  0  0  0  0  0
    5.4034   -6.9942    0.5217 H   0  0  0  0  0  0  0  0  0  0  0  0
    4.5443   -4.6773    0.2977 H   0  0  0  0  0  0  0  0  0  0  0  0
    2.2456   -4.1520    1.0726 H   0  0  0  0  0  0  0  0  0  0  0  0
  1  2  1  0
  1 13  1  0
  1 14  1  0
  1 15  1  0
  2  3  1  0
  2  4  1  0
  2 16  1  0
  3 17  1  0
  3 18  1  0
  3 19  1  0
  4 12  1  0
  4  5  2  0
  5  6  1  0
  5 20  1  0
  6 11  1  0
  6  7  1  0
  7  8  2  0
  8  9  1  0
  8 21  1  0
  9 10  2  0
  9 22  1  0
 10 11  1  0
 10 23  1  0
 11 12  2  0
M  END
>  <i_m_ct_stereo_status>  (240) 
1

>  <s_m_source_file>  (240) 
/var/tmp/pbs.5076255.sched01/tmpfes5ahby/80lk6pwr5_.sdf

>  <i_m_source_file_index>  (240) 
12

>  <i_lp_mmshare_version>  (240) 
48012

>  <i_f3d_flags>  (240) 
0

>  <s_epik_input>  (240) 
W0NIM11bQ0hdKFtDSDNdKWMoW2NIXTEpbmMobjEyKVtjSF1bY0hdW2NIXW4y

>  <s_epik_cmdline>  (240) 
J2VwaWtfcHl0aG9uJywgJy1waHQnLCAnMi4wJywgJy1waCcsICc3LjAnLCAnLXRuJywgJzgnLCAnLW1hJywgJzIwMCcsICctaW1hZScsICc8aW5maWxlLm1hZT4nLCAnLW9tYWUnLCAnPG91dGZpbGUubWFlPic=

>  <r_lp_tautomer_probability>  (240) 
1

>  <r_epik_Ionization_Penalty>  (240) 
0.0102078

>  <r_epik_Ionization_Penalty_Charging>  (240) 
0

>  <r_epik_Ionization_Penalty_Neutral>  (240) 
0.0102078

>  <r_epik_State_Penalty>  (240) 
0.00779394

>  <r_epik_Charging_Adjusted_Penalty>  (240) 
0.00779394

>  <i_epik_Tot_Q>  (240) 
0

>  <i_epik_Tot_abs_Q>  (240) 
0

>  <s_lp_Force_Field>  (240) 
OPLS3e

>  <r_lp_Energy>  (240) 
12.6133

>  <b_lp_Chiralities_Consistent>  (240) 
1

>  <s_lp_Variant>  (240) 
57:0-1

>  <s_i_glide_gridfile>  (240) 
pfpi4k_grid

>  <i_i_glide_lignum>  (240) 
12

>  <i_i_glide_rotatable_bonds>  (240) 
1

>  <r_i_docking_score>  (240) 
-3.91689

>  <r_i_glide_ligand_efficiency>  (240) 
-0.326407

>  <r_i_glide_ligand_efficiency_sa>  (240) 
-0.747286

>  <r_i_glide_ligand_efficiency_ln>  (240) 
-1.12396

>  <r_i_glide_gscore>  (240) 
-3.91689

>  <r_i_glide_lipo>  (240) 
-0.396281

>  <r_i_glide_hbond>  (240) 
-0.0806856

>  <r_i_glide_metal>  (240) 
-0

>  <r_i_glide_rewards>  (240) 
-2.25

>  <r_i_glide_evdw>  (240) 
-16.4207

>  <r_i_glide_ecoul>  (240) 
-2.17147

>  <r_i_glide_erotb>  (240) 
0

>  <r_i_glide_esite>  (240) 
-0.0431663

>  <r_i_glide_emodel>  (240) 
-23.0916

>  <r_i_glide_energy>  (240) 
-18.5922

>  <r_i_glide_einternal>  (240) 
1.71898

>  <r_i_glide_intrahb_reward>  (240) 
-0

>  <i_i_glide_confnum>  (240) 
2

>  <i_i_glide_posenum>  (240) 
28

>  <r_i_glide_eff_state_penalty>  (240) 
0

>  <ligand_id>  (240) 
57

>  <original_smiles>  (240) 
CC(C)c1cn2ncccc2n1

>  <smiles>  (240) 
[H]c1nn2c([H])c(C([H])(C([H])([H])[H])C([H])([H])[H])nc2c([H])c1[H]

$$$$
57:0:2
     RDKit          3D

 23 24  0  0  1  0  0  0  0  0999 V2000
   -2.8799    3.8144   10.0986 C   0  0  0  0  0  0  0  0  0  0  0  0
   -2.3700    2.4985    9.4963 C   0  0  0  0  0  0  0  0  0  0  0  0
   -1.1512    1.9656   10.2634 C   0  0  0  0  0  0  0  0  0  0  0  0
   -2.0894    2.6097    8.0235 C   0  0  0  0  0  0  0  0  0  0  0  0
   -1.7919    3.7257    7.2864 C   0  0  0  0  0  0  0  0  0  0  0  0
   -1.6251    3.3077    5.9787 N   0  0  0  0  0  0  0  0  0  0  0  0
   -1.3393    4.1141    4.9192 N   0  0  0  0  0  0  0  0  0  0  0  0
   -1.2171    3.4212    3.7876 C   0  0  0  0  0  0  0  0  0  0  0  0
   -1.3820    2.0241    3.6334 C   0  0  0  0  0  0  0  0  0  0  0  0
   -1.6824    1.2590    4.7334 C   0  0  0  0  0  0  0  0  0  0  0  0
   -1.8146    1.9055    5.9875 C   0  0  0  0  0  0  0  0  0  0  0  0
   -2.1095    1.4753    7.2145 N   0  0  0  0  0  0  0  0  0  0  0  0
   -3.7833    4.1441    9.5854 H   0  0  0  0  0  0  0  0  0  0  0  0
   -2.1331    4.6042   10.0165 H   0  0  0  0  0  0  0  0  0  0  0  0
   -3.1274    3.6940   11.1556 H   0  0  0  0  0  0  0  0  0  0  0  0
   -3.1730    1.7797    9.6386 H   0  0  0  0  0  0  0  0  0  0  0  0
   -0.8382    0.9927    9.8834 H   0  0  0  0  0  0  0  0  0  0  0  0
   -1.3867    1.8344   11.3201 H   0  0  0  0  0  0  0  0  0  0  0  0
   -0.3013    2.6451   10.1865 H   0  0  0  0  0  0  0  0  0  0  0  0
   -1.6811    4.7657    7.5493 H   0  0  0  0  0  0  0  0  0  0  0  0
   -0.9675    4.0081    2.9054 H   0  0  0  0  0  0  0  0  0  0  0  0
   -1.2769    1.5671    2.6550 H   0  0  0  0  0  0  0  0  0  0  0  0
   -1.8349    0.1898    4.6504 H   0  0  0  0  0  0  0  0  0  0  0  0
  1  2  1  0
  1 13  1  0
  1 14  1  0
  1 15  1  0
  2  3  1  0
  2  4  1  0
  2 16  1  0
  3 17  1  0
  3 18  1  0
  3 19  1  0
  4 12  1  0
  4  5  2  0
  5  6  1  0
  5 20  1  0
  6 11  1  0
  6  7  1  0
  7  8  2  0
  8  9  1  0
  8 21  1  0
  9 10  2  0
  9 22  1  0
 10 11  1  0
 10 23  1  0
 11 12  2  0
M  END
>  <i_m_ct_stereo_status>  (241) 
1

>  <s_m_source_file>  (241) 
/var/tmp/pbs.5076255.sched01/tmpfes5ahby/80lk6pwr5_.sdf

>  <i_m_source_file_index>  (241) 
12

>  <i_lp_mmshare_version>  (241) 
48012

>  <i_f3d_flags>  (241) 
0

>  <s_epik_input>  (241) 
W0NIM11bQ0hdKFtDSDNdKWMoW2NIXTEpbmMobjEyKVtjSF1bY0hdW2NIXW4y

>  <s_epik_cmdline>  (241) 
J2VwaWtfcHl0aG9uJywgJy1waHQnLCAnMi4wJywgJy1waCcsICc3LjAnLCAnLXRuJywgJzgnLCAnLW1hJywgJzIwMCcsICctaW1hZScsICc8aW5maWxlLm1hZT4nLCAnLW9tYWUnLCAnPG91dGZpbGUubWFlPic=

>  <r_lp_tautomer_probability>  (241) 
1

>  <r_epik_Ionization_Penalty>  (241) 
0.0102078

>  <r_epik_Ionization_Penalty_Charging>  (241) 
0

>  <r_epik_Ionization_Penalty_Neutral>  (241) 
0.0102078

>  <r_epik_State_Penalty>  (241) 
0.00779394

>  <r_epik_Charging_Adjusted_Penalty>  (241) 
0.00779394

>  <i_epik_Tot_Q>  (241) 
0

>  <i_epik_Tot_abs_Q>  (241) 
0

>  <s_lp_Force_Field>  (241) 
OPLS3e

>  <r_lp_Energy>  (241) 
12.6133

>  <b_lp_Chiralities_Consistent>  (241) 
1

>  <s_lp_Variant>  (241) 
57:0-1

>  <s_i_glide_gridfile>  (241) 
pfpi4k_grid

>  <i_i_glide_lignum>  (241) 
12

>  <i_i_glide_rotatable_bonds>  (241) 
1

>  <r_i_docking_score>  (241) 
-3.81229

>  <r_i_glide_ligand_efficiency>  (241) 
-0.317691

>  <r_i_glide_ligand_efficiency_sa>  (241) 
-0.72733

>  <r_i_glide_ligand_efficiency_ln>  (241) 
-1.09394

>  <r_i_glide_gscore>  (241) 
-3.81229

>  <r_i_glide_lipo>  (241) 
-0.0511998

>  <r_i_glide_hbond>  (241) 
-0.0848241

>  <r_i_glide_metal>  (241) 
-0

>  <r_i_glide_rewards>  (241) 
-2.276

>  <r_i_glide_evdw>  (241) 
-14.1653

>  <r_i_glide_ecoul>  (241) 
-4.52628

>  <r_i_glide_erotb>  (241) 
0

>  <r_i_glide_esite>  (241) 
-0.0130561

>  <r_i_glide_emodel>  (241) 
-23.2061

>  <r_i_glide_energy>  (241) 
-18.6916

>  <r_i_glide_einternal>  (241) 
1.39255

>  <r_i_glide_intrahb_reward>  (241) 
-0

>  <i_i_glide_confnum>  (241) 
2

>  <i_i_glide_posenum>  (241) 
1

>  <r_i_glide_eff_state_penalty>  (241) 
0

>  <ligand_id>  (241) 
57

>  <original_smiles>  (241) 
CC(C)c1cn2ncccc2n1

>  <smiles>  (241) 
[H]c1nn2c([H])c(C([H])(C([H])([H])[H])C([H])([H])[H])nc2c([H])c1[H]

$$$$
57:1:0
     RDKit          3D

 24 25  0  0  1  0  0  0  0  0999 V2000
    4.6920   -4.9594    1.4264 C   0  0  0  0  0  0  0  0  0  0  0  0
    5.7099   -4.6382    0.3196 C   0  0  0  0  0  0  0  0  0  0  0  0
    7.0672   -4.2322    0.9170 C   0  0  0  0  0  0  0  0  0  0  0  0
    5.1544   -3.6349   -0.6708 C   0  0  0  0  0  0  0  0  0  0  0  0
    5.4812   -2.2959   -0.7942 C   0  0  0  0  0  0  0  0  0  0  0  0
    4.6941   -1.8529   -1.8380 N   0  0  0  0  0  0  0  0  0  0  0  0
    4.7281   -0.5563   -2.2887 N   0  0  0  0  0  0  0  0  0  0  0  0
    3.8594   -0.3788   -3.2922 C   0  0  0  0  0  0  0  0  0  0  0  0
    3.0174   -1.3483   -3.8871 C   0  0  0  0  0  0  0  0  0  0  0  0
    3.0467   -2.6261   -3.3847 C   0  0  0  0  0  0  0  0  0  0  0  0
    3.9306   -2.8068   -2.3330 C   0  0  0  0  0  0  0  0  0  0  0  0
    4.1875   -3.9058   -1.6403 N   0  0  0  0  0  0  0  0  0  0  0  0
    3.7558   -5.3322    1.0089 H   0  0  0  0  0  0  0  0  0  0  0  0
    4.4644   -4.0783    2.0265 H   0  0  0  0  0  0  0  0  0  0  0  0
    5.0680   -5.7300    2.1001 H   0  0  0  0  0  0  0  0  0  0  0  0
    5.8776   -5.5722   -0.2175 H   0  0  0  0  0  0  0  0  0  0  0  0
    7.8122   -4.0916    0.1356 H   0  0  0  0  0  0  0  0  0  0  0  0
    7.4466   -5.0041    1.5860 H   0  0  0  0  0  0  0  0  0  0  0  0
    6.9916   -3.3112    1.4914 H   0  0  0  0  0  0  0  0  0  0  0  0
    6.1578   -1.6568   -0.2483 H   0  0  0  0  0  0  0  0  0  0  0  0
    3.8193    0.6321   -3.6841 H   0  0  0  0  0  0  0  0  0  0  0  0
    2.3617   -1.0563   -4.7061 H   0  0  0  0  0  0  0  0  0  0  0  0
    2.4272   -3.4401   -3.7516 H   0  0  0  0  0  0  0  0  0  0  0  0
    3.7523   -4.8139   -1.8215 H   0  0  0  0  0  0  0  0  0  0  0  0
  1  2  1  0
  1 13  1  0
  1 14  1  0
  1 15  1  0
  2  3  1  0
  2  4  1  0
  2 16  1  0
  3 17  1  0
  3 18  1  0
  3 19  1  0
  4 12  1  0
  4  5  2  0
  5  6  1  0
  5 20  1  0
  6 11  1  0
  6  7  1  0
  7  8  2  0
  8  9  1  0
  8 21  1  0
  9 10  2  0
  9 22  1  0
 10 11  1  0
 10 23  1  0
 11 12  2  0
 12 24  1  0
M  CHG  1  12   1
M  END
>  <i_m_ct_stereo_status>  (242) 
1

>  <s_m_source_file>  (242) 
/var/tmp/pbs.5076255.sched01/tmpfes5ahby/80lk6pwr5_.sdf

>  <i_m_source_file_index>  (242) 
13

>  <i_lp_mmshare_version>  (242) 
48012

>  <i_f3d_flags>  (242) 
0

>  <s_epik_input>  (242) 
W0NIM11bQ0hdKFtDSDNdKWMoW2NIXTEpbmMobjEyKVtjSF1bY0hdW2NIXW4y

>  <s_epik_cmdline>  (242) 
J2VwaWtfcHl0aG9uJywgJy1waHQnLCAnMi4wJywgJy1waCcsICc3LjAnLCAnLXRuJywgJzgnLCAnLW1hJywgJzIwMCcsICctaW1hZScsICc8aW5maWxlLm1hZT4nLCAnLW9tYWUnLCAnPG91dGZpbGUubWFlPic=

>  <r_lp_tautomer_probability>  (242) 
1

>  <r_epik_Ionization_Penalty>  (242) 
2.41129

>  <r_epik_Ionization_Penalty_Charging>  (242) 
2.41129

>  <r_epik_Ionization_Penalty_Neutral>  (242) 
5.17874e-09

>  <r_epik_State_Penalty>  (242) 
2.56994

>  <r_epik_Charging_Adjusted_Penalty>  (242) 
4.98122

>  <i_epik_Tot_Q>  (242) 
1

>  <i_epik_Tot_abs_Q>  (242) 
1

>  <s_lp_Force_Field>  (242) 
OPLS3e

>  <r_lp_Energy>  (242) 
17.0625

>  <b_lp_Chiralities_Consistent>  (242) 
1

>  <s_lp_Variant>  (242) 
57:0-2

>  <s_i_glide_gridfile>  (242) 
pfpi4k_grid

>  <i_i_glide_lignum>  (242) 
13

>  <i_i_glide_rotatable_bonds>  (242) 
1

>  <r_i_docking_score>  (242) 
-4.98755

>  <r_i_glide_ligand_efficiency>  (242) 
-0.415629

>  <r_i_glide_ligand_efficiency_sa>  (242) 
-0.951552

>  <r_i_glide_ligand_efficiency_ln>  (242) 
-1.43118

>  <r_i_glide_gscore>  (242) 
-4.98755

>  <r_i_glide_lipo>  (242) 
-0.786525

>  <r_i_glide_hbond>  (242) 
0

>  <r_i_glide_metal>  (242) 
-0

>  <r_i_glide_rewards>  (242) 
-2.25

>  <r_i_glide_evdw>  (242) 
-16.7335

>  <r_i_glide_ecoul>  (242) 
-6.87543

>  <r_i_glide_erotb>  (242) 
0

>  <r_i_glide_esite>  (242) 
-0.0830326

>  <r_i_glide_emodel>  (242) 
-31.3055

>  <r_i_glide_energy>  (242) 
-23.6089

>  <r_i_glide_einternal>  (242) 
0.0706277

>  <r_i_glide_intrahb_reward>  (242) 
-0

>  <i_i_glide_confnum>  (242) 
1

>  <i_i_glide_posenum>  (242) 
1

>  <r_i_glide_eff_state_penalty>  (242) 
0

>  <ligand_id>  (242) 
57

>  <original_smiles>  (242) 
CC(C)c1cn2ncccc2n1

>  <smiles>  (242) 
[H]c1nn2c([H])c(C([H])(C([H])([H])[H])C([H])([H])[H])[n+]([H])c2c([H])c1[H]

$$$$
57:1:1
     RDKit          3D

 24 25  0  0  1  0  0  0  0  0999 V2000
    2.5161   -3.3439   -4.0725 C   0  0  0  0  0  0  0  0  0  0  0  0
    2.8514   -2.1689   -3.1422 C   0  0  0  0  0  0  0  0  0  0  0  0
    3.0844   -0.8819   -3.9563 C   0  0  0  0  0  0  0  0  0  0  0  0
    3.9921   -2.5253   -2.2156 C   0  0  0  0  0  0  0  0  0  0  0  0
    5.0655   -1.7269   -1.8595 C   0  0  0  0  0  0  0  0  0  0  0  0
    5.8088   -2.5118   -1.0058 N   0  0  0  0  0  0  0  0  0  0  0  0
    6.9938   -2.0811   -0.4436 N   0  0  0  0  0  0  0  0  0  0  0  0
    7.5086   -3.0353    0.3422 C   0  0  0  0  0  0  0  0  0  0  0  0
    6.9711   -4.3254    0.6050 C   0  0  0  0  0  0  0  0  0  0  0  0
    5.7871   -4.6714    0.0031 C   0  0  0  0  0  0  0  0  0  0  0  0
    5.2475   -3.6952   -0.8136 C   0  0  0  0  0  0  0  0  0  0  0  0
    4.1358   -3.7410   -1.5361 N   0  0  0  0  0  0  0  0  0  0  0  0
    2.2474   -4.2402   -3.5144 H   0  0  0  0  0  0  0  0  0  0  0  0
    3.3645   -3.5792   -4.7156 H   0  0  0  0  0  0  0  0  0  0  0  0
    1.6526   -3.1265   -4.6996 H   0  0  0  0  0  0  0  0  0  0  0  0
    1.9700   -1.9999   -2.5279 H   0  0  0  0  0  0  0  0  0  0  0  0
    3.2205   -0.0169   -3.3098 H   0  0  0  0  0  0  0  0  0  0  0  0
    2.2295   -0.6629   -4.5956 H   0  0  0  0  0  0  0  0  0  0  0  0
    3.9543   -0.9712   -4.6033 H   0  0  0  0  0  0  0  0  0  0  0  0
    5.3357   -0.7190   -2.1285 H   0  0  0  0  0  0  0  0  0  0  0  0
    8.4452   -2.7714    0.8228 H   0  0  0  0  0  0  0  0  0  0  0  0
    7.4886   -5.0189    1.2610 H   0  0  0  0  0  0  0  0  0  0  0  0
    5.3014   -5.6344    0.1193 H   0  0  0  0  0  0  0  0  0  0  0  0
    3.5165   -4.5418   -1.6317 H   0  0  0  0  0  0  0  0  0  0  0  0
  1  2  1  0
  1 13  1  0
  1 14  1  0
  1 15  1  0
  2  3  1  0
  2  4  1  0
  2 16  1  0
  3 17  1  0
  3 18  1  0
  3 19  1  0
  4 12  1  0
  4  5  2  0
  5  6  1  0
  5 20  1  0
  6 11  1  0
  6  7  1  0
  7  8  2  0
  8  9  1  0
  8 21  1  0
  9 10  2  0
  9 22  1  0
 10 11  1  0
 10 23  1  0
 11 12  2  0
 12 24  1  0
M  CHG  1  12   1
M  END
>  <i_m_ct_stereo_status>  (243) 
1

>  <s_m_source_file>  (243) 
/var/tmp/pbs.5076255.sched01/tmpfes5ahby/80lk6pwr5_.sdf

>  <i_m_source_file_index>  (243) 
13

>  <i_lp_mmshare_version>  (243) 
48012

>  <i_f3d_flags>  (243) 
0

>  <s_epik_input>  (243) 
W0NIM11bQ0hdKFtDSDNdKWMoW2NIXTEpbmMobjEyKVtjSF1bY0hdW2NIXW4y

>  <s_epik_cmdline>  (243) 
J2VwaWtfcHl0aG9uJywgJy1waHQnLCAnMi4wJywgJy1waCcsICc3LjAnLCAnLXRuJywgJzgnLCAnLW1hJywgJzIwMCcsICctaW1hZScsICc8aW5maWxlLm1hZT4nLCAnLW9tYWUnLCAnPG91dGZpbGUubWFlPic=

>  <r_lp_tautomer_probability>  (243) 
1

>  <r_epik_Ionization_Penalty>  (243) 
2.41129

>  <r_epik_Ionization_Penalty_Charging>  (243) 
2.41129

>  <r_epik_Ionization_Penalty_Neutral>  (243) 
5.17874e-09

>  <r_epik_State_Penalty>  (243) 
2.56994

>  <r_epik_Charging_Adjusted_Penalty>  (243) 
4.98122

>  <i_epik_Tot_Q>  (243) 
1

>  <i_epik_Tot_abs_Q>  (243) 
1

>  <s_lp_Force_Field>  (243) 
OPLS3e

>  <r_lp_Energy>  (243) 
17.0625

>  <b_lp_Chiralities_Consistent>  (243) 
1

>  <s_lp_Variant>  (243) 
57:0-2

>  <s_i_glide_gridfile>  (243) 
pfpi4k_grid

>  <i_i_glide_lignum>  (243) 
13

>  <i_i_glide_rotatable_bonds>  (243) 
1

>  <r_i_docking_score>  (243) 
-4.77913

>  <r_i_glide_ligand_efficiency>  (243) 
-0.398261

>  <r_i_glide_ligand_efficiency_sa>  (243) 
-0.911789

>  <r_i_glide_ligand_efficiency_ln>  (243) 
-1.37138

>  <r_i_glide_gscore>  (243) 
-4.77913

>  <r_i_glide_lipo>  (243) 
-0.662724

>  <r_i_glide_hbond>  (243) 
-0.145627

>  <r_i_glide_metal>  (243) 
-0

>  <r_i_glide_rewards>  (243) 
-2.32341

>  <r_i_glide_evdw>  (243) 
-17.4302

>  <r_i_glide_ecoul>  (243) 
-4.81589

>  <r_i_glide_erotb>  (243) 
0

>  <r_i_glide_esite>  (243) 
-0.0534674

>  <r_i_glide_emodel>  (243) 
-29.3579

>  <r_i_glide_energy>  (243) 
-22.2461

>  <r_i_glide_einternal>  (243) 
0.563356

>  <r_i_glide_intrahb_reward>  (243) 
-0

>  <i_i_glide_confnum>  (243) 
1

>  <i_i_glide_posenum>  (243) 
39

>  <r_i_glide_eff_state_penalty>  (243) 
0

>  <ligand_id>  (243) 
57

>  <original_smiles>  (243) 
CC(C)c1cn2ncccc2n1

>  <smiles>  (243) 
[H]c1nn2c([H])c(C([H])(C([H])([H])[H])C([H])([H])[H])[n+]([H])c2c([H])c1[H]

$$$$
57:1:2
     RDKit          3D

 24 25  0  0  1  0  0  0  0  0999 V2000
    5.2466   -3.7025    1.7998 C   0  0  0  0  0  0  0  0  0  0  0  0
    4.5220   -4.2847    0.5725 C   0  0  0  0  0  0  0  0  0  0  0  0
    5.2626   -5.5277    0.0496 C   0  0  0  0  0  0  0  0  0  0  0  0
    4.2427   -3.2839   -0.5386 C   0  0  0  0  0  0  0  0  0  0  0  0
    4.7532   -2.0059   -0.6394 C   0  0  0  0  0  0  0  0  0  0  0  0
    4.2323   -1.5498   -1.8253 N   0  0  0  0  0  0  0  0  0  0  0  0
    4.5439   -0.3035   -2.3188 N   0  0  0  0  0  0  0  0  0  0  0  0
    3.8580   -0.0862   -3.4519 C   0  0  0  0  0  0  0  0  0  0  0  0
    3.0353   -0.9856   -4.1614 C   0  0  0  0  0  0  0  0  0  0  0  0
    2.8189   -2.2245   -3.6183 C   0  0  0  0  0  0  0  0  0  0  0  0
    3.4559   -2.4162   -2.4152 C   0  0  0  0  0  0  0  0  0  0  0  0
    3.4318   -3.5014   -1.6595 N   0  0  0  0  0  0  0  0  0  0  0  0
    4.6748   -2.8844    2.2334 H   0  0  0  0  0  0  0  0  0  0  0  0
    6.2354   -3.3383    1.5362 H   0  0  0  0  0  0  0  0  0  0  0  0
    5.3699   -4.4588    2.5786 H   0  0  0  0  0  0  0  0  0  0  0  0
    3.5600   -4.6437    0.9306 H   0  0  0  0  0  0  0  0  0  0  0  0
    4.7201   -6.0043   -0.7665 H   0  0  0  0  0  0  0  0  0  0  0  0
    5.3918   -6.2876    0.8238 H   0  0  0  0  0  0  0  0  0  0  0  0
    6.2512   -5.2617   -0.3228 H   0  0  0  0  0  0  0  0  0  0  0  0
    5.3953   -1.4100   -0.0199 H   0  0  0  0  0  0  0  0  0  0  0  0
    3.9789    0.9057   -3.8801 H   0  0  0  0  0  0  0  0  0  0  0  0
    2.5612   -0.6510   -5.0808 H   0  0  0  0  0  0  0  0  0  0  0  0
    2.1795   -2.9834   -4.0491 H   0  0  0  0  0  0  0  0  0  0  0  0
    3.0042   -4.3883   -1.8927 H   0  0  0  0  0  0  0  0  0  0  0  0
  1  2  1  0
  1 13  1  0
  1 14  1  0
  1 15  1  0
  2  3  1  0
  2  4  1  0
  2 16  1  0
  3 17  1  0
  3 18  1  0
  3 19  1  0
  4 12  1  0
  4  5  2  0
  5  6  1  0
  5 20  1  0
  6 11  1  0
  6  7  1  0
  7  8  2  0
  8  9  1  0
  8 21  1  0
  9 10  2  0
  9 22  1  0
 10 11  1  0
 10 23  1  0
 11 12  2  0
 12 24  1  0
M  CHG  1  12   1
M  END
>  <i_m_ct_stereo_status>  (244) 
1

>  <s_m_source_file>  (244) 
/var/tmp/pbs.5076255.sched01/tmpfes5ahby/80lk6pwr5_.sdf

>  <i_m_source_file_index>  (244) 
13

>  <i_lp_mmshare_version>  (244) 
48012

>  <i_f3d_flags>  (244) 
0

>  <s_epik_input>  (244) 
W0NIM11bQ0hdKFtDSDNdKWMoW2NIXTEpbmMobjEyKVtjSF1bY0hdW2NIXW4y

>  <s_epik_cmdline>  (244) 
J2VwaWtfcHl0aG9uJywgJy1waHQnLCAnMi4wJywgJy1waCcsICc3LjAnLCAnLXRuJywgJzgnLCAnLW1hJywgJzIwMCcsICctaW1hZScsICc8aW5maWxlLm1hZT4nLCAnLW9tYWUnLCAnPG91dGZpbGUubWFlPic=

>  <r_lp_tautomer_probability>  (244) 
1

>  <r_epik_Ionization_Penalty>  (244) 
2.41129

>  <r_epik_Ionization_Penalty_Charging>  (244) 
2.41129

>  <r_epik_Ionization_Penalty_Neutral>  (244) 
5.17874e-09

>  <r_epik_State_Penalty>  (244) 
2.56994

>  <r_epik_Charging_Adjusted_Penalty>  (244) 
4.98122

>  <i_epik_Tot_Q>  (244) 
1

>  <i_epik_Tot_abs_Q>  (244) 
1

>  <s_lp_Force_Field>  (244) 
OPLS3e

>  <r_lp_Energy>  (244) 
17.0625

>  <b_lp_Chiralities_Consistent>  (244) 
1

>  <s_lp_Variant>  (244) 
57:0-2

>  <s_i_glide_gridfile>  (244) 
pfpi4k_grid

>  <i_i_glide_lignum>  (244) 
13

>  <i_i_glide_rotatable_bonds>  (244) 
1

>  <r_i_docking_score>  (244) 
-4.56201

>  <r_i_glide_ligand_efficiency>  (244) 
-0.380167

>  <r_i_glide_ligand_efficiency_sa>  (244) 
-0.870366

>  <r_i_glide_ligand_efficiency_ln>  (244) 
-1.30908

>  <r_i_glide_gscore>  (244) 
-4.56201

>  <r_i_glide_lipo>  (244) 
-0.656824

>  <r_i_glide_hbond>  (244) 
0

>  <r_i_glide_metal>  (244) 
-0

>  <r_i_glide_rewards>  (244) 
-2.25

>  <r_i_glide_evdw>  (244) 
-15.0589

>  <r_i_glide_ecoul>  (244) 
-5.59513

>  <r_i_glide_erotb>  (244) 
0

>  <r_i_glide_esite>  (244) 
-0.0629727

>  <r_i_glide_emodel>  (244) 
-27.719

>  <r_i_glide_energy>  (244) 
-20.654

>  <r_i_glide_einternal>  (244) 
0.00173532

>  <r_i_glide_intrahb_reward>  (244) 
-0

>  <i_i_glide_confnum>  (244) 
2

>  <i_i_glide_posenum>  (244) 
10

>  <r_i_glide_eff_state_penalty>  (244) 
0

>  <ligand_id>  (244) 
57

>  <original_smiles>  (244) 
CC(C)c1cn2ncccc2n1

>  <smiles>  (244) 
[H]c1nn2c([H])c(C([H])(C([H])([H])[H])C([H])([H])[H])[n+]([H])c2c([H])c1[H]

$$$$
58:0:0
     RDKit          3D

 42 46  0  0  1  0  0  0  0  0999 V2000
  -10.0081  -13.1106   -9.9143 C   0  0  0  0  0  0  0  0  0  0  0  0
   -9.4626  -11.8122   -9.2986 C   0  0  0  0  0  0  0  0  0  0  0  0
   -8.0604  -12.1683   -8.7808 C   0  0  0  0  0  0  0  0  0  0  0  0
   -9.6277  -10.5192  -10.1384 C   0  0  2  0  0  0  0  0  0  0  0  0
   -8.7475   -9.3445   -9.7415 C   0  0  0  0  0  0  0  0  0  0  0  0
   -9.4877   -8.8900   -8.4649 C   0  0  1  0  0  0  0  0  0  0  0  0
   -8.8905   -7.6552   -7.8031 C   0  0  0  0  0  0  0  0  0  0  0  0
   -9.4957   -6.3908   -7.9592 C   0  0  0  0  0  0  0  0  0  0  0  0
   -8.9609   -5.2674   -7.3103 C   0  0  0  0  0  0  0  0  0  0  0  0
   -7.8208   -5.3776   -6.4912 C   0  0  0  0  0  0  0  0  0  0  0  0
   -7.3353   -4.2739   -5.8840 N   0  0  0  0  0  0  0  0  0  0  0  0
   -6.2270   -4.3819   -5.1265 C   0  0  0  0  0  0  0  0  0  0  0  0
   -5.5538   -5.5951   -4.9184 C   0  0  0  0  0  0  0  0  0  0  0  0
   -6.0629   -6.7595   -5.5219 C   0  0  0  0  0  0  0  0  0  0  0  0
   -7.2080   -6.6495   -6.3369 C   0  0  0  0  0  0  0  0  0  0  0  0
   -7.7403   -7.7805   -6.9934 C   0  0  0  0  0  0  0  0  0  0  0  0
  -10.9459   -8.8227   -8.9288 C   0  0  0  0  0  0  0  0  0  0  0  0
  -10.9713  -10.2432   -9.4163 C   0  0  1  0  0  0  0  0  0  0  0  0
  -12.3321  -10.6010  -10.0306 C   0  0  0  0  0  0  0  0  0  0  0  0
  -10.3431  -11.0550   -8.2848 C   0  0  2  0  0  0  0  0  0  0  0  0
   -9.5840  -10.0358   -7.5887 O   0  0  0  0  0  0  0  0  0  0  0  0
   -9.2597  -13.5879  -10.5488 H   0  0  0  0  0  0  0  0  0  0  0  0
  -10.8722  -12.9508  -10.5530 H   0  0  0  0  0  0  0  0  0  0  0  0
  -10.2895  -13.8297   -9.1433 H   0  0  0  0  0  0  0  0  0  0  0  0
   -7.6226  -11.3586   -8.1927 H   0  0  0  0  0  0  0  0  0  0  0  0
   -7.3712  -12.3748   -9.6014 H   0  0  0  0  0  0  0  0  0  0  0  0
   -8.0877  -13.0372   -8.1183 H   0  0  0  0  0  0  0  0  0  0  0  0
   -9.7163  -10.7038  -11.2108 H   0  0  0  0  0  0  0  0  0  0  0  0
   -7.7071   -9.6079   -9.5604 H   0  0  0  0  0  0  0  0  0  0  0  0
   -8.7673   -8.5546  -10.4916 H   0  0  0  0  0  0  0  0  0  0  0  0
  -10.3956   -6.2722   -8.5469 H   0  0  0  0  0  0  0  0  0  0  0  0
   -9.4390   -4.3068   -7.4202 H   0  0  0  0  0  0  0  0  0  0  0  0
   -5.8522   -3.4633   -4.6916 H   0  0  0  0  0  0  0  0  0  0  0  0
   -4.6653   -5.6222   -4.3162 H   0  0  0  0  0  0  0  0  0  0  0  0
   -5.5665   -7.7073   -5.3806 H   0  0  0  0  0  0  0  0  0  0  0  0
   -7.2925   -8.7506   -6.8542 H   0  0  0  0  0  0  0  0  0  0  0  0
  -11.6508   -8.6386   -8.1122 H   0  0  0  0  0  0  0  0  0  0  0  0
  -11.1206   -8.1038   -9.7291 H   0  0  0  0  0  0  0  0  0  0  0  0
  -13.1581  -10.2818   -9.3930 H   0  0  0  0  0  0  0  0  0  0  0  0
  -12.4749  -11.6660  -10.1869 H   0  0  0  0  0  0  0  0  0  0  0  0
  -12.4765  -10.1134  -10.9956 H   0  0  0  0  0  0  0  0  0  0  0  0
  -11.0270  -11.6552   -7.6836 H   0  0  0  0  0  0  0  0  0  0  0  0
  1  2  1  0
  1 22  1  0
  1 23  1  0
  1 24  1  0
  2 20  1  0
  2  3  1  0
  2  4  1  0
  3 25  1  0
  3 26  1  0
  3 27  1  0
  4 18  1  0
  4  5  1  0
  4 28  1  6
  5  6  1  0
  5 29  1  0
  5 30  1  0
  6 21  1  0
  6  7  1  1
  6 17  1  0
  7 16  1  0
  7  8  2  0
  8  9  1  0
  8 31  1  0
  9 10  2  0
  9 32  1  0
 10 15  1  0
 10 11  1  0
 11 12  2  0
 12 13  1  0
 12 33  1  0
 13 14  2  0
 13 34  1  0
 14 15  1  0
 14 35  1  0
 15 16  2  0
 16 36  1  0
 17 18  1  0
 17 37  1  0
 17 38  1  0
 18 19  1  6
 18 20  1  0
 19 39  1  0
 19 40  1  0
 19 41  1  0
 20 21  1  0
 20 42  1  1
M  END
>  <i_m_ct_stereo_status>  (245) 
1

>  <s_m_source_file>  (245) 
/var/tmp/pbs.5076255.sched01/tmpfes5ahby/80lk6pwr5_.sdf

>  <i_m_source_file_index>  (245) 
14

>  <i_lp_mmshare_version>  (245) 
48012

>  <i_f3d_flags>  (245) 
0

>  <s_epik_input>  (245) 
W0NIM11DMShbQ0gzXSlbQ0BASF0oTzIpW0NAXShbQ0gyXTMpKFtDSDNdKVtDQEhdMVtDSDJdW0NAXTIzYyhbY0hdW2NIXTQpW2NIXWMoYzQ1KVtjSF1bY0hdW2NIXW41

>  <s_epik_cmdline>  (245) 
J2VwaWtfcHl0aG9uJywgJy1waHQnLCAnMi4wJywgJy1waCcsICc3LjAnLCAnLXRuJywgJzgnLCAnLW1hJywgJzIwMCcsICctaW1hZScsICc8aW5maWxlLm1hZT4nLCAnLW9tYWUnLCAnPG91dGZpbGUubWFlPic=

>  <r_epik_Ionization_Penalty>  (245) 
0.0120527

>  <r_epik_Ionization_Penalty_Charging>  (245) 
0

>  <r_epik_Ionization_Penalty_Neutral>  (245) 
0.0120527

>  <r_epik_State_Penalty>  (245) 
0.00930927

>  <r_epik_Charging_Adjusted_Penalty>  (245) 
0.00930927

>  <i_epik_Tot_Q>  (245) 
0

>  <i_epik_Tot_abs_Q>  (245) 
0

>  <s_lp_Force_Field>  (245) 
OPLS3e

>  <r_lp_Energy>  (245) 
60.8634

>  <b_lp_Chiralities_Consistent>  (245) 
1

>  <s_lp_Variant>  (245) 
58:0-1

>  <s_i_glide_gridfile>  (245) 
pfpi4k_grid

>  <i_i_glide_lignum>  (245) 
14

>  <i_i_glide_rotatable_bonds>  (245) 
1

>  <r_i_docking_score>  (245) 
-4.56208

>  <r_i_glide_ligand_efficiency>  (245) 
-0.217242

>  <r_i_glide_ligand_efficiency_sa>  (245) 
-0.599354

>  <r_i_glide_ligand_efficiency_ln>  (245) 
-1.12797

>  <r_i_glide_gscore>  (245) 
-4.56208

>  <r_i_glide_lipo>  (245) 
-1.91866

>  <r_i_glide_hbond>  (245) 
0

>  <r_i_glide_metal>  (245) 
-0

>  <r_i_glide_rewards>  (245) 
-1.87639

>  <r_i_glide_evdw>  (245) 
-22.0867

>  <r_i_glide_ecoul>  (245) 
0.707644

>  <r_i_glide_erotb>  (245) 
0.231157

>  <r_i_glide_esite>  (245) 
0

>  <r_i_glide_emodel>  (245) 
-27.8019

>  <r_i_glide_energy>  (245) 
-21.379

>  <r_i_glide_einternal>  (245) 
0.494591

>  <r_i_glide_intrahb_reward>  (245) 
-0

>  <i_i_glide_confnum>  (245) 
1

>  <i_i_glide_posenum>  (245) 
7

>  <r_i_glide_eff_state_penalty>  (245) 
0

>  <ligand_id>  (245) 
58

>  <original_smiles>  (245) 
CC1(C)C2CC3(c4ccc5ncccc5c4)CC2(C)C1O3

>  <smiles>  (245) 
[H]c1nc2c([H])c([H])c(C34OC5([H])C(C([H])([H])[H])(C([H])([H])[H])C([H])(C3([H])[H])C5(C([H])([H])[H])C4([H])[H])c([H])c2c([H])c1[H]

$$$$
58:0:1
     RDKit          3D

 42 46  0  0  1  0  0  0  0  0999 V2000
    7.5556   -4.1683    0.9546 C   0  0  0  0  0  0  0  0  0  0  0  0
    6.2310   -4.8501    1.3524 C   0  0  0  0  0  0  0  0  0  0  0  0
    5.2544   -3.7027    1.6088 C   0  0  0  0  0  0  0  0  0  0  0  0
    5.7862   -5.9829    0.4297 C   0  0  2  0  0  0  0  0  0  0  0  0
    4.3435   -6.4065    0.4968 C   0  0  0  0  0  0  0  0  0  0  0  0
    4.3909   -7.2091    1.8200 C   0  0  1  0  0  0  0  0  0  0  0  0
    3.0689   -7.8485    2.2074 C   0  0  0  0  0  0  0  0  0  0  0  0
    2.8888   -9.2443    2.1471 C   0  0  0  0  0  0  0  0  0  0  0  0
    1.6649   -9.8026    2.5087 C   0  0  0  0  0  0  0  0  0  0  0  0
    0.5794   -8.9854    2.8773 C   0  0  0  0  0  0  0  0  0  0  0  0
   -0.6139   -9.5277    3.1462 N   0  0  0  0  0  0  0  0  0  0  0  0
   -1.6207   -8.7308    3.5517 C   0  0  0  0  0  0  0  0  0  0  0  0
   -1.5008   -7.3507    3.7251 C   0  0  0  0  0  0  0  0  0  0  0  0
   -0.2636   -6.7558    3.4282 C   0  0  0  0  0  0  0  0  0  0  0  0
    0.7790   -7.5716    2.9764 C   0  0  0  0  0  0  0  0  0  0  0  0
    2.0074   -7.0132    2.6306 C   0  0  0  0  0  0  0  0  0  0  0  0
    5.6115   -8.1257    1.6275 C   0  0  0  0  0  0  0  0  0  0  0  0
    6.5423   -6.9929    1.3333 C   0  0  1  0  0  0  0  0  0  0  0  0
    7.9662   -7.5281    1.0769 C   0  0  0  0  0  0  0  0  0  0  0  0
    6.2540   -5.9553    2.4225 C   0  0  2  0  0  0  0  0  0  0  0  0
    4.9089   -6.3182    2.8371 O   0  0  0  0  0  0  0  0  0  0  0  0
    7.3849   -3.3299    0.2729 H   0  0  0  0  0  0  0  0  0  0  0  0
    8.2538   -4.8301    0.4609 H   0  0  0  0  0  0  0  0  0  0  0  0
    8.0689   -3.7960    1.8295 H   0  0  0  0  0  0  0  0  0  0  0  0
    4.2958   -4.0664    1.9970 H   0  0  0  0  0  0  0  0  0  0  0  0
    5.0341   -3.1570    0.6862 H   0  0  0  0  0  0  0  0  0  0  0  0
    5.6417   -2.9977    2.3552 H   0  0  0  0  0  0  0  0  0  0  0  0
    6.1812   -5.7919   -0.5426 H   0  0  0  0  0  0  0  0  0  0  0  0
    3.6307   -5.5822    0.4841 H   0  0  0  0  0  0  0  0  0  0  0  0
    4.1238   -7.0633   -0.3365 H   0  0  0  0  0  0  0  0  0  0  0  0
    3.6838   -9.9252    1.8329 H   0  0  0  0  0  0  0  0  0  0  0  0
    1.5236  -10.8740    2.5060 H   0  0  0  0  0  0  0  0  0  0  0  0
   -2.5396   -9.2509    3.8015 H   0  0  0  0  0  0  0  0  0  0  0  0
   -2.3530   -6.8029    4.0993 H   0  0  0  0  0  0  0  0  0  0  0  0
   -0.1047   -5.6897    3.5665 H   0  0  0  0  0  0  0  0  0  0  0  0
    2.1668   -5.9459    2.6861 H   0  0  0  0  0  0  0  0  0  0  0  0
    5.8529   -8.6824    2.5354 H   0  0  0  0  0  0  0  0  0  0  0  0
    5.4968   -8.8211    0.7995 H   0  0  0  0  0  0  0  0  0  0  0  0
    8.2702   -8.2437    1.8406 H   0  0  0  0  0  0  0  0  0  0  0  0
    8.7126   -6.7484    1.0922 H   0  0  0  0  0  0  0  0  0  0  0  0
    8.1026   -8.0617    0.1355 H   0  0  0  0  0  0  0  0  0  0  0  0
    7.0240   -5.8449    3.1820 H   0  0  0  0  0  0  0  0  0  0  0  0
  1  2  1  0
  1 22  1  0
  1 23  1  0
  1 24  1  0
  2 20  1  0
  2  3  1  0
  2  4  1  0
  3 25  1  0
  3 26  1  0
  3 27  1  0
  4 18  1  0
  4  5  1  0
  4 28  1  6
  5  6  1  0
  5 29  1  0
  5 30  1  0
  6 21  1  0
  6  7  1  1
  6 17  1  0
  7 16  1  0
  7  8  2  0
  8  9  1  0
  8 31  1  0
  9 10  2  0
  9 32  1  0
 10 15  1  0
 10 11  1  0
 11 12  2  0
 12 13  1  0
 12 33  1  0
 13 14  2  0
 13 34  1  0
 14 15  1  0
 14 35  1  0
 15 16  2  0
 16 36  1  0
 17 18  1  0
 17 37  1  0
 17 38  1  0
 18 19  1  6
 18 20  1  0
 19 39  1  0
 19 40  1  0
 19 41  1  0
 20 21  1  0
 20 42  1  1
M  END
>  <i_m_ct_stereo_status>  (246) 
1

>  <s_m_source_file>  (246) 
/var/tmp/pbs.5076255.sched01/tmpfes5ahby/80lk6pwr5_.sdf

>  <i_m_source_file_index>  (246) 
14

>  <i_lp_mmshare_version>  (246) 
48012

>  <i_f3d_flags>  (246) 
0

>  <s_epik_input>  (246) 
W0NIM11DMShbQ0gzXSlbQ0BASF0oTzIpW0NAXShbQ0gyXTMpKFtDSDNdKVtDQEhdMVtDSDJdW0NAXTIzYyhbY0hdW2NIXTQpW2NIXWMoYzQ1KVtjSF1bY0hdW2NIXW41

>  <s_epik_cmdline>  (246) 
J2VwaWtfcHl0aG9uJywgJy1waHQnLCAnMi4wJywgJy1waCcsICc3LjAnLCAnLXRuJywgJzgnLCAnLW1hJywgJzIwMCcsICctaW1hZScsICc8aW5maWxlLm1hZT4nLCAnLW9tYWUnLCAnPG91dGZpbGUubWFlPic=

>  <r_epik_Ionization_Penalty>  (246) 
0.0120527

>  <r_epik_Ionization_Penalty_Charging>  (246) 
0

>  <r_epik_Ionization_Penalty_Neutral>  (246) 
0.0120527

>  <r_epik_State_Penalty>  (246) 
0.00930927

>  <r_epik_Charging_Adjusted_Penalty>  (246) 
0.00930927

>  <i_epik_Tot_Q>  (246) 
0

>  <i_epik_Tot_abs_Q>  (246) 
0

>  <s_lp_Force_Field>  (246) 
OPLS3e

>  <r_lp_Energy>  (246) 
60.8634

>  <b_lp_Chiralities_Consistent>  (246) 
1

>  <s_lp_Variant>  (246) 
58:0-1

>  <s_i_glide_gridfile>  (246) 
pfpi4k_grid

>  <i_i_glide_lignum>  (246) 
14

>  <i_i_glide_rotatable_bonds>  (246) 
1

>  <r_i_docking_score>  (246) 
-2.95559

>  <r_i_glide_ligand_efficiency>  (246) 
-0.140742

>  <r_i_glide_ligand_efficiency_sa>  (246) 
-0.388297

>  <r_i_glide_ligand_efficiency_ln>  (246) 
-0.730762

>  <r_i_glide_gscore>  (246) 
-2.95559

>  <r_i_glide_lipo>  (246) 
-0.821403

>  <r_i_glide_hbond>  (246) 
0

>  <r_i_glide_metal>  (246) 
-0

>  <r_i_glide_rewards>  (246) 
-1.50425

>  <r_i_glide_evdw>  (246) 
-17.4018

>  <r_i_glide_ecoul>  (246) 
0.0600236

>  <r_i_glide_erotb>  (246) 
0.231157

>  <r_i_glide_esite>  (246) 
0

>  <r_i_glide_emodel>  (246) 
-21.146

>  <r_i_glide_energy>  (246) 
-17.3418

>  <r_i_glide_einternal>  (246) 
0.659061

>  <r_i_glide_intrahb_reward>  (246) 
-0

>  <i_i_glide_confnum>  (246) 
3

>  <i_i_glide_posenum>  (246) 
4

>  <r_i_glide_eff_state_penalty>  (246) 
0

>  <ligand_id>  (246) 
58

>  <original_smiles>  (246) 
CC1(C)C2CC3(c4ccc5ncccc5c4)CC2(C)C1O3

>  <smiles>  (246) 
[H]c1nc2c([H])c([H])c(C34OC5([H])C(C([H])([H])[H])(C([H])([H])[H])C([H])(C3([H])[H])C5(C([H])([H])[H])C4([H])[H])c([H])c2c([H])c1[H]

$$$$
58:0:2
     RDKit          3D

 42 46  0  0  1  0  0  0  0  0999 V2000
   -0.7663   -9.7729    2.4769 C   0  0  0  0  0  0  0  0  0  0  0  0
   -0.3951   -8.3246    2.8110 C   0  0  0  0  0  0  0  0  0  0  0  0
   -1.6929   -7.6968    3.3490 C   0  0  0  0  0  0  0  0  0  0  0  0
    0.9158   -8.1098    3.6071 C   0  0  2  0  0  0  0  0  0  0  0  0
    1.0644   -6.7622    4.2785 C   0  0  0  0  0  0  0  0  0  0  0  0
    1.3955   -5.8789    3.0437 C   0  0  1  0  0  0  0  0  0  0  0  0
    1.6692   -4.4009    3.3264 C   0  0  0  0  0  0  0  0  0  0  0  0
    1.3169   -3.8345    4.5737 C   0  0  0  0  0  0  0  0  0  0  0  0
    1.5362   -2.4726    4.8237 C   0  0  0  0  0  0  0  0  0  0  0  0
    2.1102   -1.6409    3.8489 C   0  0  0  0  0  0  0  0  0  0  0  0
    2.3153   -0.3370    4.1329 N   0  0  0  0  0  0  0  0  0  0  0  0
    2.8654    0.4519    3.1887 C   0  0  0  0  0  0  0  0  0  0  0  0
    3.2385   -0.0144    1.9162 C   0  0  0  0  0  0  0  0  0  0  0  0
    3.0215   -1.3722    1.6094 C   0  0  0  0  0  0  0  0  0  0  0  0
    2.4588   -2.2049    2.5936 C   0  0  0  0  0  0  0  0  0  0  0  0
    2.2429   -3.5767    2.3375 C   0  0  0  0  0  0  0  0  0  0  0  0
    2.5095   -6.6815    2.3682 C   0  0  0  0  0  0  0  0  0  0  0  0
    1.6919   -7.9435    2.2788 C   0  0  1  0  0  0  0  0  0  0  0  0
    2.4882   -9.0962    1.6549 C   0  0  0  0  0  0  0  0  0  0  0  0
    0.3320   -7.4957    1.7368 C   0  0  2  0  0  0  0  0  0  0  0  0
    0.3422   -6.0888    2.0745 O   0  0  0  0  0  0  0  0  0  0  0  0
   -1.3453  -10.2265    3.2755 H   0  0  0  0  0  0  0  0  0  0  0  0
    0.0938  -10.4210    2.3361 H   0  0  0  0  0  0  0  0  0  0  0  0
   -1.3860   -9.8316    1.5847 H   0  0  0  0  0  0  0  0  0  0  0  0
   -1.5951   -6.6232    3.5018 H   0  0  0  0  0  0  0  0  0  0  0  0
   -1.9743   -8.1254    4.3128 H   0  0  0  0  0  0  0  0  0  0  0  0
   -2.5251   -7.8303    2.6523 H   0  0  0  0  0  0  0  0  0  0  0  0
    1.2062   -8.9723    4.2091 H   0  0  0  0  0  0  0  0  0  0  0  0
    0.1666   -6.4558    4.8106 H   0  0  0  0  0  0  0  0  0  0  0  0
    1.8942   -6.7574    4.9857 H   0  0  0  0  0  0  0  0  0  0  0  0
    0.8574   -4.4270    5.3497 H   0  0  0  0  0  0  0  0  0  0  0  0
    1.2638   -2.0659    5.7836 H   0  0  0  0  0  0  0  0  0  0  0  0
    3.0102    1.4908    3.4589 H   0  0  0  0  0  0  0  0  0  0  0  0
    3.6705    0.6565    1.1896 H   0  0  0  0  0  0  0  0  0  0  0  0
    3.2838   -1.7626    0.6383 H   0  0  0  0  0  0  0  0  0  0  0  0
    2.4929   -3.9805    1.3685 H   0  0  0  0  0  0  0  0  0  0  0  0
    2.7947   -6.3038    1.3829 H   0  0  0  0  0  0  0  0  0  0  0  0
    3.4020   -6.7871    2.9862 H   0  0  0  0  0  0  0  0  0  0  0  0
    3.0235   -8.7847    0.7599 H   0  0  0  0  0  0  0  0  0  0  0  0
    1.8635   -9.9312    1.3537 H   0  0  0  0  0  0  0  0  0  0  0  0
    3.2442   -9.4831    2.3401 H   0  0  0  0  0  0  0  0  0  0  0  0
    0.1116   -7.7452    0.6998 H   0  0  0  0  0  0  0  0  0  0  0  0
  1  2  1  0
  1 22  1  0
  1 23  1  0
  1 24  1  0
  2 20  1  0
  2  3  1  0
  2  4  1  0
  3 25  1  0
  3 26  1  0
  3 27  1  0
  4 18  1  0
  4  5  1  0
  4 28  1  1
  5  6  1  0
  5 29  1  0
  5 30  1  0
  6 21  1  0
  6  7  1  1
  6 17  1  0
  7 16  1  0
  7  8  2  0
  8  9  1  0
  8 31  1  0
  9 10  2  0
  9 32  1  0
 10 15  1  0
 10 11  1  0
 11 12  2  0
 12 13  1  0
 12 33  1  0
 13 14  2  0
 13 34  1  0
 14 15  1  0
 14 35  1  0
 15 16  2  0
 16 36  1  0
 17 18  1  0
 17 37  1  0
 17 38  1  0
 18 19  1  6
 18 20  1  0
 19 39  1  0
 19 40  1  0
 19 41  1  0
 20 21  1  0
 20 42  1  6
M  END
>  <i_m_ct_stereo_status>  (247) 
1

>  <s_m_source_file>  (247) 
/var/tmp/pbs.5076255.sched01/tmpfes5ahby/80lk6pwr5_.sdf

>  <i_m_source_file_index>  (247) 
14

>  <i_lp_mmshare_version>  (247) 
48012

>  <i_f3d_flags>  (247) 
0

>  <s_epik_input>  (247) 
W0NIM11DMShbQ0gzXSlbQ0BASF0oTzIpW0NAXShbQ0gyXTMpKFtDSDNdKVtDQEhdMVtDSDJdW0NAXTIzYyhbY0hdW2NIXTQpW2NIXWMoYzQ1KVtjSF1bY0hdW2NIXW41

>  <s_epik_cmdline>  (247) 
J2VwaWtfcHl0aG9uJywgJy1waHQnLCAnMi4wJywgJy1waCcsICc3LjAnLCAnLXRuJywgJzgnLCAnLW1hJywgJzIwMCcsICctaW1hZScsICc8aW5maWxlLm1hZT4nLCAnLW9tYWUnLCAnPG91dGZpbGUubWFlPic=

>  <r_epik_Ionization_Penalty>  (247) 
0.0120527

>  <r_epik_Ionization_Penalty_Charging>  (247) 
0

>  <r_epik_Ionization_Penalty_Neutral>  (247) 
0.0120527

>  <r_epik_State_Penalty>  (247) 
0.00930927

>  <r_epik_Charging_Adjusted_Penalty>  (247) 
0.00930927

>  <i_epik_Tot_Q>  (247) 
0

>  <i_epik_Tot_abs_Q>  (247) 
0

>  <s_lp_Force_Field>  (247) 
OPLS3e

>  <r_lp_Energy>  (247) 
60.8634

>  <b_lp_Chiralities_Consistent>  (247) 
1

>  <s_lp_Variant>  (247) 
58:0-1

>  <s_i_glide_gridfile>  (247) 
pfpi4k_grid

>  <i_i_glide_lignum>  (247) 
14

>  <i_i_glide_rotatable_bonds>  (247) 
1

>  <r_i_docking_score>  (247) 
-2.92767

>  <r_i_glide_ligand_efficiency>  (247) 
-0.139413

>  <r_i_glide_ligand_efficiency_sa>  (247) 
-0.384629

>  <r_i_glide_ligand_efficiency_ln>  (247) 
-0.72386

>  <r_i_glide_gscore>  (247) 
-2.92767

>  <r_i_glide_lipo>  (247) 
-0.120823

>  <r_i_glide_hbond>  (247) 
-0.242297

>  <r_i_glide_metal>  (247) 
-0

>  <r_i_glide_rewards>  (247) 
-1.50425

>  <r_i_glide_evdw>  (247) 
-17.8376

>  <r_i_glide_ecoul>  (247) 
-2.66383

>  <r_i_glide_erotb>  (247) 
0.231157

>  <r_i_glide_esite>  (247) 
0

>  <r_i_glide_emodel>  (247) 
-24.0464

>  <r_i_glide_energy>  (247) 
-20.5014

>  <r_i_glide_einternal>  (247) 
1.26537

>  <r_i_glide_intrahb_reward>  (247) 
-0

>  <i_i_glide_confnum>  (247) 
1

>  <i_i_glide_posenum>  (247) 
18

>  <r_i_glide_eff_state_penalty>  (247) 
0

>  <ligand_id>  (247) 
58

>  <original_smiles>  (247) 
CC1(C)C2CC3(c4ccc5ncccc5c4)CC2(C)C1O3

>  <smiles>  (247) 
[H]c1nc2c([H])c([H])c(C34OC5([H])C(C([H])([H])[H])(C([H])([H])[H])C([H])(C3([H])[H])C5(C([H])([H])[H])C4([H])[H])c([H])c2c([H])c1[H]

$$$$
58:1:0
     RDKit          3D

 43 47  0  0  1  0  0  0  0  0999 V2000
  -10.2520  -13.1823  -10.0213 C   0  0  0  0  0  0  0  0  0  0  0  0
   -9.6584  -11.9114   -9.3930 C   0  0  0  0  0  0  0  0  0  0  0  0
   -8.2605  -12.3205   -8.8984 C   0  0  0  0  0  0  0  0  0  0  0  0
   -9.7914  -10.5999  -10.2088 C   0  0  2  0  0  0  0  0  0  0  0  0
   -8.8691   -9.4599   -9.8056 C   0  0  0  0  0  0  0  0  0  0  0  0
   -9.5789   -9.0041   -8.5132 C   0  0  1  0  0  0  0  0  0  0  0  0
   -8.9343   -7.8019   -7.8357 C   0  0  0  0  0  0  0  0  0  0  0  0
   -9.4972   -6.5133   -7.9625 C   0  0  0  0  0  0  0  0  0  0  0  0
   -8.9212   -5.4142   -7.2997 C   0  0  0  0  0  0  0  0  0  0  0  0
   -7.7764   -5.6075   -6.5020 C   0  0  0  0  0  0  0  0  0  0  0  0
   -7.2146   -4.5587   -5.8672 N   0  0  0  0  0  0  0  0  0  0  0  0
   -6.1087   -4.6669   -5.1027 C   0  0  0  0  0  0  0  0  0  0  0  0
   -5.5042   -5.9261   -4.9332 C   0  0  0  0  0  0  0  0  0  0  0  0
   -6.0548   -7.0575   -5.5650 C   0  0  0  0  0  0  0  0  0  0  0  0
   -7.2009   -6.8950   -6.3701 C   0  0  0  0  0  0  0  0  0  0  0  0
   -7.7810   -7.9921   -7.0409 C   0  0  0  0  0  0  0  0  0  0  0  0
  -11.0390   -8.8796   -8.9555 C   0  0  0  0  0  0  0  0  0  0  0  0
  -11.1164  -10.2917   -9.4660 C   0  0  1  0  0  0  0  0  0  0  0  0
  -12.4957  -10.5943  -10.0685 C   0  0  0  0  0  0  0  0  0  0  0  0
  -10.5008  -11.1420   -8.3558 C   0  0  2  0  0  0  0  0  0  0  0  0
   -9.7017  -10.1592   -7.6530 O   0  0  0  0  0  0  0  0  0  0  0  0
   -9.5312  -13.6665  -10.6823 H   0  0  0  0  0  0  0  0  0  0  0  0
  -11.1259  -12.9885  -10.6360 H   0  0  0  0  0  0  0  0  0  0  0  0
  -10.5348  -13.9095   -9.2587 H   0  0  0  0  0  0  0  0  0  0  0  0
   -7.7905  -11.5362   -8.3041 H   0  0  0  0  0  0  0  0  0  0  0  0
   -7.5899  -12.5367   -9.7320 H   0  0  0  0  0  0  0  0  0  0  0  0
   -8.3085  -13.1998   -8.2501 H   0  0  0  0  0  0  0  0  0  0  0  0
   -9.8990  -10.7640  -11.2830 H   0  0  0  0  0  0  0  0  0  0  0  0
   -7.8361   -9.7617   -9.6420 H   0  0  0  0  0  0  0  0  0  0  0  0
   -8.8715   -8.6596  -10.5430 H   0  0  0  0  0  0  0  0  0  0  0  0
  -10.3981   -6.3516   -8.5399 H   0  0  0  0  0  0  0  0  0  0  0  0
   -9.3729   -4.4389   -7.3912 H   0  0  0  0  0  0  0  0  0  0  0  0
   -5.7422   -3.7504   -4.6569 H   0  0  0  0  0  0  0  0  0  0  0  0
   -4.6247   -6.0415   -4.3257 H   0  0  0  0  0  0  0  0  0  0  0  0
   -5.5894   -8.0260   -5.4352 H   0  0  0  0  0  0  0  0  0  0  0  0
   -7.3752   -8.9824   -6.9252 H   0  0  0  0  0  0  0  0  0  0  0  0
  -11.7298   -8.6902   -8.1277 H   0  0  0  0  0  0  0  0  0  0  0  0
  -11.2015   -8.1445   -9.7431 H   0  0  0  0  0  0  0  0  0  0  0  0
  -13.3028  -10.2669   -9.4114 H   0  0  0  0  0  0  0  0  0  0  0  0
  -12.6739  -11.6506  -10.2503 H   0  0  0  0  0  0  0  0  0  0  0  0
  -12.6391  -10.0786  -11.0193 H   0  0  0  0  0  0  0  0  0  0  0  0
  -11.1968  -11.7306   -7.7573 H   0  0  0  0  0  0  0  0  0  0  0  0
   -7.6400   -3.6440   -5.9807 H   0  0  0  0  0  0  0  0  0  0  0  0
  1  2  1  0
  1 22  1  0
  1 23  1  0
  1 24  1  0
  2 20  1  0
  2  3  1  0
  2  4  1  0
  3 25  1  0
  3 26  1  0
  3 27  1  0
  4 18  1  0
  4  5  1  0
  4 28  1  6
  5  6  1  0
  5 29  1  0
  5 30  1  0
  6 21  1  0
  6  7  1  1
  6 17  1  0
  7 16  1  0
  7  8  2  0
  8  9  1  0
  8 31  1  0
  9 10  2  0
  9 32  1  0
 10 15  1  0
 10 11  1  0
 11 12  2  0
 11 43  1  0
 12 13  1  0
 12 33  1  0
 13 14  2  0
 13 34  1  0
 14 15  1  0
 14 35  1  0
 15 16  2  0
 16 36  1  0
 17 18  1  0
 17 37  1  0
 17 38  1  0
 18 19  1  6
 18 20  1  0
 19 39  1  0
 19 40  1  0
 19 41  1  0
 20 21  1  0
 20 42  1  1
M  CHG  1  11   1
M  END
>  <i_m_ct_stereo_status>  (248) 
1

>  <s_m_source_file>  (248) 
/var/tmp/pbs.5076255.sched01/tmpfes5ahby/80lk6pwr5_.sdf

>  <i_m_source_file_index>  (248) 
15

>  <i_lp_mmshare_version>  (248) 
48012

>  <i_f3d_flags>  (248) 
0

>  <s_epik_input>  (248) 
W0NIM11DMShbQ0gzXSlbQ0BASF0oTzIpW0NAXShbQ0gyXTMpKFtDSDNdKVtDQEhdMVtDSDJdW0NAXTIzYyhbY0hdW2NIXTQpW2NIXWMoYzQ1KVtjSF1bY0hdW2NIXW41

>  <s_epik_cmdline>  (248) 
J2VwaWtfcHl0aG9uJywgJy1waHQnLCAnMi4wJywgJy1waCcsICc3LjAnLCAnLXRuJywgJzgnLCAnLW1hJywgJzIwMCcsICctaW1hZScsICc8aW5maWxlLm1hZT4nLCAnLW9tYWUnLCAnPG91dGZpbGUubWFlPic=

>  <r_epik_Ionization_Penalty>  (248) 
2.31377

>  <r_epik_Ionization_Penalty_Charging>  (248) 
2.31377

>  <r_epik_Ionization_Penalty_Neutral>  (248) 
3.09985e-11

>  <r_epik_State_Penalty>  (248) 
2.46543

>  <r_epik_Charging_Adjusted_Penalty>  (248) 
4.7792

>  <i_epik_Tot_Q>  (248) 
1

>  <i_epik_Tot_abs_Q>  (248) 
1

>  <s_lp_Force_Field>  (248) 
OPLS3e

>  <r_lp_Energy>  (248) 
63.694

>  <b_lp_Chiralities_Consistent>  (248) 
1

>  <s_lp_Variant>  (248) 
58:0-2

>  <s_i_glide_gridfile>  (248) 
pfpi4k_grid

>  <i_i_glide_lignum>  (248) 
15

>  <i_i_glide_rotatable_bonds>  (248) 
1

>  <r_i_docking_score>  (248) 
-4.30834

>  <r_i_glide_ligand_efficiency>  (248) 
-0.205159

>  <r_i_glide_ligand_efficiency_sa>  (248) 
-0.566018

>  <r_i_glide_ligand_efficiency_ln>  (248) 
-1.06523

>  <r_i_glide_gscore>  (248) 
-4.30834

>  <r_i_glide_lipo>  (248) 
-1.84851

>  <r_i_glide_hbond>  (248) 
0

>  <r_i_glide_metal>  (248) 
-0

>  <r_i_glide_rewards>  (248) 
-1.75666

>  <r_i_glide_evdw>  (248) 
-21.2685

>  <r_i_glide_ecoul>  (248) 
0.870281

>  <r_i_glide_erotb>  (248) 
0.229716

>  <r_i_glide_esite>  (248) 
0

>  <r_i_glide_emodel>  (248) 
-24.6899

>  <r_i_glide_energy>  (248) 
-20.3982

>  <r_i_glide_einternal>  (248) 
0.493831

>  <r_i_glide_intrahb_reward>  (248) 
-0

>  <i_i_glide_confnum>  (248) 
1

>  <i_i_glide_posenum>  (248) 
6

>  <r_i_glide_eff_state_penalty>  (248) 
0

>  <ligand_id>  (248) 
58

>  <original_smiles>  (248) 
CC1(C)C2CC3(c4ccc5ncccc5c4)CC2(C)C1O3

>  <smiles>  (248) 
[H]c1c(C23OC4([H])C(C([H])([H])[H])(C([H])([H])[H])C([H])(C2([H])[H])C4(C([H])([H])[H])C3([H])[H])c([H])c2c([H])c([H])c([H])[n+]([H])c2c1[H]

$$$$
59:0:0
     RDKit          3D

 44 47  0  0  1  0  0  0  0  0999 V2000
    5.5967   -0.5204    1.8366 C   0  0  0  0  0  0  0  0  0  0  0  0
    4.1909   -0.1145    2.3076 C   0  0  0  0  0  0  0  0  0  0  0  0
    3.0155   -0.4576    1.3594 C   0  0  2  0  0  0  0  0  0  0  0  0
    1.7383    0.3266    1.7345 C   0  0  0  0  0  0  0  0  0  0  0  0
    2.7506   -1.9373    1.3382 C   0  0  0  0  0  0  0  0  0  0  0  0
    2.2468   -2.5962    2.3690 N   0  0  0  0  0  0  0  0  0  0  0  0
    2.2873   -3.9136    1.9853 N   0  0  0  0  0  0  0  0  0  0  0  0
    2.6961   -4.0386    0.7750 N   0  0  0  0  0  0  0  0  0  0  0  0
    3.0660   -2.8097    0.3347 N   0  0  0  0  0  0  0  0  0  0  0  0
    3.6803   -2.6375   -0.9942 C   0  0  1  0  0  0  0  0  0  0  0  0
    5.0629   -2.0099   -0.8959 C   0  0  0  0  0  0  0  0  0  0  0  0
    5.6619   -1.7972   -2.2781 C   0  0  2  0  0  0  0  0  0  0  0  0
    4.7130   -0.8677   -3.0910 C   0  0  0  0  0  0  0  0  0  0  0  0
    3.3671   -1.5445   -3.2657 C   0  0  1  0  0  0  0  0  0  0  0  0
    3.5287   -2.8895   -3.9530 C   0  0  0  0  0  0  0  0  0  0  0  0
    4.4656   -3.7474   -3.1297 C   0  0  1  0  0  0  0  0  0  0  0  0
    4.6109   -4.8653   -3.9458 O   0  0  0  0  0  0  0  0  0  0  0  0
    5.8529   -3.1535   -2.9609 C   0  0  0  0  0  0  0  0  0  0  0  0
    3.8726   -3.9686   -1.7194 C   0  0  0  0  0  0  0  0  0  0  0  0
    2.7725   -1.7890   -1.9039 C   0  0  0  0  0  0  0  0  0  0  0  0
    6.3602   -0.3333    2.5844 H   0  0  0  0  0  0  0  0  0  0  0  0
    5.9093    0.0335    0.9443 H   0  0  0  0  0  0  0  0  0  0  0  0
    5.6231   -1.5916    1.6411 H   0  0  0  0  0  0  0  0  0  0  0  0
    4.0086   -0.5559    3.2843 H   0  0  0  0  0  0  0  0  0  0  0  0
    4.2037    0.9497    2.4597 H   0  0  0  0  0  0  0  0  0  0  0  0
    3.2820   -0.0904    0.3783 H   0  0  0  0  0  0  0  0  0  0  0  0
    0.9030    0.0888    1.0836 H   0  0  0  0  0  0  0  0  0  0  0  0
    1.8815    1.4037    1.6491 H   0  0  0  0  0  0  0  0  0  0  0  0
    1.4225    0.0968    2.7512 H   0  0  0  0  0  0  0  0  0  0  0  0
    4.9313   -1.0271   -0.4953 H   0  0  0  0  0  0  0  0  0  0  0  0
    5.7153   -2.6225   -0.2640 H   0  0  0  0  0  0  0  0  0  0  0  0
    6.6202   -1.3483   -2.0975 H   0  0  0  0  0  0  0  0  0  0  0  0
    4.6339    0.1052   -2.6039 H   0  0  0  0  0  0  0  0  0  0  0  0
    4.9795   -0.6881   -4.1182 H   0  0  0  0  0  0  0  0  0  0  0  0
    2.7303   -0.8912   -3.8613 H   0  0  0  0  0  0  0  0  0  0  0  0
    2.5561   -3.3766   -4.0530 H   0  0  0  0  0  0  0  0  0  0  0  0
    3.9200   -2.7678   -4.9513 H   0  0  0  0  0  0  0  0  0  0  0  0
    4.0609   -5.5370   -3.5137 H   0  0  0  0  0  0  0  0  0  0  0  0
    6.3455   -3.0664   -3.9201 H   0  0  0  0  0  0  0  0  0  0  0  0
    6.5120   -3.7823   -2.3584 H   0  0  0  0  0  0  0  0  0  0  0  0
    4.4705   -4.6698   -1.1271 H   0  0  0  0  0  0  0  0  0  0  0  0
    2.8289   -4.2494   -1.7375 H   0  0  0  0  0  0  0  0  0  0  0  0
    1.7989   -2.2825   -2.0209 H   0  0  0  0  0  0  0  0  0  0  0  0
    2.6802   -0.7942   -1.4717 H   0  0  0  0  0  0  0  0  0  0  0  0
  1  2  1  0
  1 21  1  0
  1 22  1  0
  1 23  1  0
  2  3  1  0
  2 24  1  0
  2 25  1  0
  3  4  1  0
  3  5  1  0
  3 26  1  6
  4 27  1  0
  4 28  1  0
  4 29  1  0
  5  9  1  0
  5  6  2  0
  6  7  1  0
  7  8  2  0
  8  9  1  0
 10  9  1  1
 10 19  1  0
 10 20  1  0
 10 11  1  0
 11 12  1  0
 11 30  1  0
 11 31  1  0
 12 18  1  0
 12 13  1  0
 12 32  1  1
 13 14  1  0
 13 33  1  0
 13 34  1  0
 14 15  1  0
 14 20  1  0
 14 35  1  6
 15 16  1  0
 15 36  1  0
 15 37  1  0
 16 17  1  6
 16 18  1  0
 16 19  1  0
 17 38  1  0
 18 39  1  0
 18 40  1  0
 19 41  1  0
 19 42  1  0
 20 43  1  0
 20 44  1  0
M  END
>  <i_m_ct_stereo_status>  (249) 
1

>  <s_m_source_file>  (249) 
/var/tmp/pbs.5076255.sched01/tmpfes5ahby/80lk6pwr5_.sdf

>  <i_m_source_file_index>  (249) 
16

>  <i_lp_mmshare_version>  (249) 
48012

>  <i_f3d_flags>  (249) 
0

>  <s_epik_input>  (249) 
W0NIM11bQ0gyXVtDQEhdKFtDSDNdKWMxbm5ubjFbQ0BAXTIzW0NIMl1bQ0BASF00W0NIMl1bQ0BIXShbQ0gyXTMpW0NIMl1bQ0BAXShbT0hdKShbQ0gyXTQpW0NIMl0y

>  <s_epik_cmdline>  (249) 
J2VwaWtfcHl0aG9uJywgJy1waHQnLCAnMi4wJywgJy1waCcsICc3LjAnLCAnLXRuJywgJzgnLCAnLW1hJywgJzIwMCcsICctaW1hZScsICc8aW5maWxlLm1hZT4nLCAnLW9tYWUnLCAnPG91dGZpbGUubWFlPic=

>  <r_lp_tautomer_probability>  (249) 
1

>  <r_epik_Ionization_Penalty>  (249) 
3.79788e-07

>  <r_epik_Ionization_Penalty_Charging>  (249) 
0

>  <r_epik_Ionization_Penalty_Neutral>  (249) 
3.79788e-07

>  <r_epik_State_Penalty>  (249) 
-0

>  <r_epik_Charging_Adjusted_Penalty>  (249) 
0

>  <i_epik_Tot_Q>  (249) 
0

>  <i_epik_Tot_abs_Q>  (249) 
0

>  <s_lp_Force_Field>  (249) 
OPLS3e

>  <r_lp_Energy>  (249) 
-1.24887

>  <b_lp_Chiralities_Consistent>  (249) 
1

>  <s_lp_Variant>  (249) 
59:0-1

>  <s_i_glide_gridfile>  (249) 
pfpi4k_grid

>  <i_i_glide_lignum>  (249) 
16

>  <i_i_glide_rotatable_bonds>  (249) 
4

>  <r_i_docking_score>  (249) 
-2.65306

>  <r_i_glide_ligand_efficiency>  (249) 
-0.132653

>  <r_i_glide_ligand_efficiency_sa>  (249) 
-0.360075

>  <r_i_glide_ligand_efficiency_ln>  (249) 
-0.663973

>  <r_i_glide_gscore>  (249) 
-2.65306

>  <r_i_glide_lipo>  (249) 
-0.448685

>  <r_i_glide_hbond>  (249) 
-0.278689

>  <r_i_glide_metal>  (249) 
-0

>  <r_i_glide_rewards>  (249) 
-1.5247

>  <r_i_glide_evdw>  (249) 
1.38141

>  <r_i_glide_ecoul>  (249) 
-6.79631

>  <r_i_glide_erotb>  (249) 
0.471054

>  <r_i_glide_esite>  (249) 
-0.122544

>  <r_i_glide_emodel>  (249) 
-5.98159

>  <r_i_glide_energy>  (249) 
-5.4149

>  <r_i_glide_einternal>  (249) 
1.18773

>  <r_i_glide_intrahb_reward>  (249) 
-0

>  <i_i_glide_confnum>  (249) 
3

>  <i_i_glide_posenum>  (249) 
1

>  <r_i_glide_eff_state_penalty>  (249) 
0

>  <ligand_id>  (249) 
59

>  <original_smiles>  (249) 
CCC(C)c1nnnn1C12CC3CC(CC(O)(C3)C1)C2

>  <smiles>  (249) 
[H]OC12C([H])([H])C3([H])C([H])([H])C([H])(C1([H])[H])C([H])([H])C(n1nnnc1C([H])(C([H])([H])[H])C([H])([H])C([H])([H])[H])(C3([H])[H])C2([H])[H]

$$$$
61:0:0
     RDKit          3D

 58 62  0  0  1  0  0  0  0  0999 V2000
    7.8635   -3.5612    1.0863 C   0  0  0  0  0  0  0  0  0  0  0  0
    6.4661   -2.8930    1.3142 C   0  0  2  0  0  0  0  0  0  0  0  0
    6.5924   -1.3539    1.6437 C   0  0  0  0  0  0  0  0  0  0  0  0
    5.2259   -0.6237    1.6624 C   0  0  0  0  0  0  0  0  0  0  0  0
    4.3444   -0.8900    0.4474 C   0  0  0  0  0  0  0  0  0  0  0  0
    4.2049   -2.4036    0.1126 C   0  0  2  0  0  0  0  0  0  0  0  0
    3.2681   -3.0680    1.2216 C   0  0  0  0  0  0  0  0  0  0  0  0
    3.5400   -4.5400    1.6428 C   0  0  0  0  0  0  0  0  0  0  0  0
    4.9394   -4.8503    2.1758 C   0  0  0  0  0  0  0  0  0  0  0  0
    5.7722   -3.6301    2.5152 C   0  0  0  0  0  0  0  0  0  0  0  0
    2.6243   -4.8412    2.6483 O   0  0  0  0  0  0  0  0  0  0  0  0
    2.1903   -6.1660    2.4207 C   0  0  0  0  0  0  0  0  0  0  0  0
    2.9681   -6.6278    1.1922 C   0  0  0  0  0  0  0  0  0  0  0  0
    3.2903   -5.3950    0.5966 O   0  0  0  0  0  0  0  0  0  0  0  0
    5.6338   -3.0405    0.0043 C   0  0  1  0  0  0  0  0  0  0  0  0
    6.3943   -2.5363   -1.2753 C   0  0  0  0  0  0  0  0  0  0  0  0
    5.6638   -2.8861   -2.5514 C   0  0  0  0  0  0  0  0  0  0  0  0
    4.2693   -2.2747   -2.5649 C   0  0  2  0  0  0  0  0  0  0  0  0
    4.2778   -0.8436   -3.1205 C   0  0  0  0  0  0  0  0  0  0  0  0
    3.4835   -2.4582   -1.2238 C   0  0  1  0  0  0  0  0  0  0  0  0
    3.0388   -3.7906   -1.7871 C   0  0  0  0  0  0  0  0  0  0  0  0
    3.2135   -3.1773   -3.1741 C   0  0  1  0  0  0  0  0  0  0  0  0
    1.9838   -2.5568   -3.7944 C   0  0  0  0  0  0  0  0  0  0  0  0
    3.7533   -4.0451   -4.1682 O   0  0  0  0  0  0  0  0  0  0  0  0
    8.4974   -2.9236    0.4659 H   0  0  0  0  0  0  0  0  0  0  0  0
    7.7565   -4.5266    0.5818 H   0  0  0  0  0  0  0  0  0  0  0  0
    8.4300   -3.8298    1.9828 H   0  0  0  0  0  0  0  0  0  0  0  0
    7.0001   -1.2073    2.6562 H   0  0  0  0  0  0  0  0  0  0  0  0
    7.1970   -0.8552    0.8675 H   0  0  0  0  0  0  0  0  0  0  0  0
    4.6998   -0.8974    2.5709 H   0  0  0  0  0  0  0  0  0  0  0  0
    5.3963    0.4450    1.7335 H   0  0  0  0  0  0  0  0  0  0  0  0
    3.3579   -0.4401    0.5966 H   0  0  0  0  0  0  0  0  0  0  0  0
    4.7922   -0.3716   -0.3983 H   0  0  0  0  0  0  0  0  0  0  0  0
    3.2662   -2.4635    2.1248 H   0  0  0  0  0  0  0  0  0  0  0  0
    2.2321   -2.9948    0.8910 H   0  0  0  0  0  0  0  0  0  0  0  0
    4.8189   -5.3901    3.1046 H   0  0  0  0  0  0  0  0  0  0  0  0
    5.5144   -5.5004    1.5206 H   0  0  0  0  0  0  0  0  0  0  0  0
    6.5076   -4.1900    3.1047 H   0  0  0  0  0  0  0  0  0  0  0  0
    5.2228   -2.9557    3.1760 H   0  0  0  0  0  0  0  0  0  0  0  0
    2.3628   -6.8071    3.2854 H   0  0  0  0  0  0  0  0  0  0  0  0
    1.1240   -6.1528    2.1981 H   0  0  0  0  0  0  0  0  0  0  0  0
    3.8565   -7.2089    1.4751 H   0  0  0  0  0  0  0  0  0  0  0  0
    2.3474   -7.2106    0.5234 H   0  0  0  0  0  0  0  0  0  0  0  0
    5.5210   -4.1119   -0.1911 H   0  0  0  0  0  0  0  0  0  0  0  0
    6.5551   -1.4613   -1.2248 H   0  0  0  0  0  0  0  0  0  0  0  0
    7.3597   -3.0149   -1.3719 H   0  0  0  0  0  0  0  0  0  0  0  0
    6.2458   -2.6862   -3.4650 H   0  0  0  0  0  0  0  0  0  0  0  0
    5.5990   -3.9860   -2.5816 H   0  0  0  0  0  0  0  0  0  0  0  0
    3.3084   -0.3640   -3.0134 H   0  0  0  0  0  0  0  0  0  0  0  0
    4.5073   -0.8818   -4.1894 H   0  0  0  0  0  0  0  0  0  0  0  0
    5.0183   -0.2330   -2.6194 H   0  0  0  0  0  0  0  0  0  0  0  0
    2.6241   -1.7915   -1.1957 H   0  0  0  0  0  0  0  0  0  0  0  0
    3.7352   -4.5539   -1.4867 H   0  0  0  0  0  0  0  0  0  0  0  0
    2.0082   -4.0566   -1.5121 H   0  0  0  0  0  0  0  0  0  0  0  0
    1.5046   -2.0305   -2.9831 H   0  0  0  0  0  0  0  0  0  0  0  0
    1.2585   -3.2621   -4.1977 H   0  0  0  0  0  0  0  0  0  0  0  0
    2.2324   -1.8679   -4.5973 H   0  0  0  0  0  0  0  0  0  0  0  0
    3.5019   -4.8902   -3.8342 H   0  0  0  0  0  0  0  0  0  0  0  0
  2  1  1  6
  1 25  1  0
  1 26  1  0
  1 27  1  0
  2 10  1  0
  2 15  1  0
  2  3  1  0
  3  4  1  0
  3 28  1  0
  3 29  1  0
  4  5  1  0
  4 30  1  0
  4 31  1  0
  6  5  1  1
  5 32  1  0
  5 33  1  0
  6 20  1  0
  6  7  1  0
  6 15  1  0
  7  8  1  0
  7 34  1  0
  7 35  1  0
  8 14  1  0
  8  9  1  0
  8 11  1  0
  9 10  1  0
  9 36  1  0
  9 37  1  0
 10 38  1  0
 10 39  1  0
 11 12  1  0
 12 13  1  0
 12 40  1  0
 12 41  1  0
 13 14  1  0
 13 42  1  0
 13 43  1  0
 15 16  1  0
 15 44  1  6
 16 17  1  0
 16 45  1  0
 16 46  1  0
 17 18  1  0
 17 47  1  0
 17 48  1  0
 18 22  1  0
 18 19  1  6
 18 20  1  0
 19 49  1  0
 19 50  1  0
 19 51  1  0
 20 21  1  0
 20 52  1  1
 21 22  1  0
 21 53  1  0
 21 54  1  0
 22 23  1  0
 22 24  1  6
 23 55  1  0
 23 56  1  0
 23 57  1  0
 24 58  1  0
M  END
>  <i_m_ct_stereo_status>  (250) 
1

>  <s_m_source_file>  (250) 
/var/tmp/pbs.5076255.sched01/tmpfes5ahby/80lk6pwr5_.sdf

>  <i_m_source_file_index>  (250) 
18

>  <i_lp_mmshare_version>  (250) 
48012

>  <i_f3d_flags>  (250) 
0

>  <s_epik_input>  (250) 
TzFbQ0gyXVtDSDJdT0MxKFtDSDJdMilbQ0gyXVtDSDJdW0NAXShbQ0gzXSkoW0NIMl1bQ0gyXVtDSDJdMylbQ0BASF0oW0NAQF0yMzQpW0NIMl1bQ0gyXVtDQF01KFtDSDNdKVtDQEhdNFtDSDJdW0NAXTUoW0NIM10pW09IXQ==

>  <s_epik_cmdline>  (250) 
J2VwaWtfcHl0aG9uJywgJy1waHQnLCAnMi4wJywgJy1waCcsICc3LjAnLCAnLXRuJywgJzgnLCAnLW1hJywgJzIwMCcsICctaW1hZScsICc8aW5maWxlLm1hZT4nLCAnLW9tYWUnLCAnPG91dGZpbGUubWFlPic=

>  <r_lp_tautomer_probability>  (250) 
1

>  <r_epik_Ionization_Penalty>  (250) 
2.74093e-06

>  <r_epik_Ionization_Penalty_Charging>  (250) 
0

>  <r_epik_Ionization_Penalty_Neutral>  (250) 
2.74093e-06

>  <r_epik_State_Penalty>  (250) 
-0

>  <r_epik_Charging_Adjusted_Penalty>  (250) 
0

>  <i_epik_Tot_Q>  (250) 
0

>  <i_epik_Tot_abs_Q>  (250) 
0

>  <s_lp_Force_Field>  (250) 
OPLS3e

>  <r_lp_Energy>  (250) 
48.784

>  <b_lp_Chiralities_Consistent>  (250) 
1

>  <s_lp_Variant>  (250) 
61:0-1

>  <s_i_glide_gridfile>  (250) 
pfpi4k_grid

>  <i_i_glide_lignum>  (250) 
18

>  <i_i_glide_rotatable_bonds>  (250) 
1

>  <r_i_docking_score>  (250) 
-3.52429

>  <r_i_glide_ligand_efficiency>  (250) 
-0.146845

>  <r_i_glide_ligand_efficiency_sa>  (250) 
-0.423576

>  <r_i_glide_ligand_efficiency_ln>  (250) 
-0.843525

>  <r_i_glide_gscore>  (250) 
-3.52429

>  <r_i_glide_lipo>  (250) 
-1.20764

>  <r_i_glide_hbond>  (250) 
-0.32

>  <r_i_glide_metal>  (250) 
-0

>  <r_i_glide_rewards>  (250) 
-1.13697

>  <r_i_glide_evdw>  (250) 
-3.22535

>  <r_i_glide_ecoul>  (250) 
-4.65613

>  <r_i_glide_erotb>  (250) 
0

>  <r_i_glide_esite>  (250) 
0

>  <r_i_glide_emodel>  (250) 
-10.1441

>  <r_i_glide_energy>  (250) 
-7.88148

>  <r_i_glide_einternal>  (250) 
1.22294

>  <r_i_glide_intrahb_reward>  (250) 
-0

>  <i_i_glide_confnum>  (250) 
1

>  <i_i_glide_posenum>  (250) 
2

>  <r_i_glide_eff_state_penalty>  (250) 
0

>  <ligand_id>  (250) 
61

>  <original_smiles>  (250) 
CC12CCCC3(CC4(CC1)OCCO4)C2CCC1(C)C3CC1(C)O

>  <smiles>  (250) 
[H]OC1(C([H])([H])[H])C([H])([H])C2([H])C34C([H])([H])C([H])([H])C([H])([H])C(C([H])([H])[H])(C([H])([H])C([H])([H])C5(OC([H])([H])C([H])([H])O5)C3([H])[H])C4([H])C([H])([H])C([H])([H])C21C([H])([H])[H]

$$$$
61:0:1
     RDKit          3D

 58 62  0  0  1  0  0  0  0  0999 V2000
    6.3047   -7.5297    3.3223 C   0  0  0  0  0  0  0  0  0  0  0  0
    5.2829   -6.3894    3.5638 C   0  0  2  0  0  0  0  0  0  0  0  0
    5.8744   -5.4178    4.6109 C   0  0  0  0  0  0  0  0  0  0  0  0
    5.0048   -4.1681    4.8357 C   0  0  0  0  0  0  0  0  0  0  0  0
    4.6074   -3.4749    3.5161 C   0  0  0  0  0  0  0  0  0  0  0  0
    3.9987   -4.4180    2.4318 C   0  0  2  0  0  0  0  0  0  0  0  0
    2.5664   -4.8415    2.9231 C   0  0  0  0  0  0  0  0  0  0  0  0
    2.0707   -6.2854    2.5911 C   0  0  0  0  0  0  0  0  0  0  0  0
    2.9374   -7.4740    3.1420 C   0  0  0  0  0  0  0  0  0  0  0  0
    3.9918   -7.0326    4.1621 C   0  0  0  0  0  0  0  0  0  0  0  0
    0.7914   -6.3980    3.1360 O   0  0  0  0  0  0  0  0  0  0  0  0
   -0.0062   -7.1167    2.2102 C   0  0  0  0  0  0  0  0  0  0  0  0
    0.9349   -7.4275    1.0544 C   0  0  0  0  0  0  0  0  0  0  0  0
    1.9230   -6.4395    1.2253 O   0  0  0  0  0  0  0  0  0  0  0  0
    5.0066   -5.6022    2.2302 C   0  0  1  0  0  0  0  0  0  0  0  0
    6.3034   -5.1309    1.5030 C   0  0  0  0  0  0  0  0  0  0  0  0
    6.0354   -4.5048    0.1295 C   0  0  0  0  0  0  0  0  0  0  0  0
    5.0450   -3.3308    0.1925 C   0  0  2  0  0  0  0  0  0  0  0  0
    5.8565   -2.0517    0.4429 C   0  0  0  0  0  0  0  0  0  0  0  0
    3.8444   -3.5963    1.1254 C   0  0  1  0  0  0  0  0  0  0  0  0
    3.1327   -4.1489   -0.1133 C   0  0  0  0  0  0  0  0  0  0  0  0
    4.0130   -3.2440   -0.9714 C   0  0  1  0  0  0  0  0  0  0  0  0
    3.4241   -1.8793   -1.3488 C   0  0  0  0  0  0  0  0  0  0  0  0
    4.4345   -3.8325   -2.1870 O   0  0  0  0  0  0  0  0  0  0  0  0
    7.3036   -7.1431    3.1249 H   0  0  0  0  0  0  0  0  0  0  0  0
    6.0165   -8.1555    2.4774 H   0  0  0  0  0  0  0  0  0  0  0  0
    6.4091   -8.1757    4.1933 H   0  0  0  0  0  0  0  0  0  0  0  0
    6.0241   -5.9364    5.5583 H   0  0  0  0  0  0  0  0  0  0  0  0
    6.8651   -5.0977    4.2939 H   0  0  0  0  0  0  0  0  0  0  0  0
    4.1170   -4.4215    5.4115 H   0  0  0  0  0  0  0  0  0  0  0  0
    5.5504   -3.4652    5.4636 H   0  0  0  0  0  0  0  0  0  0  0  0
    3.9110   -2.6664    3.7384 H   0  0  0  0  0  0  0  0  0  0  0  0
    5.4942   -2.9853    3.1258 H   0  0  0  0  0  0  0  0  0  0  0  0
    2.4505   -4.7013    3.9958 H   0  0  0  0  0  0  0  0  0  0  0  0
    1.8343   -4.1487    2.5100 H   0  0  0  0  0  0  0  0  0  0  0  0
    2.2594   -8.1730    3.6280 H   0  0  0  0  0  0  0  0  0  0  0  0
    3.4010   -8.0289    2.3274 H   0  0  0  0  0  0  0  0  0  0  0  0
    4.2783   -7.9204    4.7264 H   0  0  0  0  0  0  0  0  0  0  0  0
    3.5141   -6.4171    4.9203 H   0  0  0  0  0  0  0  0  0  0  0  0
   -0.4286   -8.0169    2.6606 H   0  0  0  0  0  0  0  0  0  0  0  0
   -0.8295   -6.4899    1.8666 H   0  0  0  0  0  0  0  0  0  0  0  0
    1.3662   -8.4241    1.1578 H   0  0  0  0  0  0  0  0  0  0  0  0
    0.4460   -7.3591    0.0843 H   0  0  0  0  0  0  0  0  0  0  0  0
    4.5628   -6.2992    1.5200 H   0  0  0  0  0  0  0  0  0  0  0  0
    6.8638   -4.4178    2.1011 H   0  0  0  0  0  0  0  0  0  0  0  0
    6.9748   -5.9675    1.3248 H   0  0  0  0  0  0  0  0  0  0  0  0
    6.9760   -4.1978   -0.3291 H   0  0  0  0  0  0  0  0  0  0  0  0
    5.6465   -5.3014   -0.5104 H   0  0  0  0  0  0  0  0  0  0  0  0
    5.2040   -1.2020    0.6490 H   0  0  0  0  0  0  0  0  0  0  0  0
    6.4521   -1.7923   -0.4327 H   0  0  0  0  0  0  0  0  0  0  0  0
    6.5376   -2.1459    1.2877 H   0  0  0  0  0  0  0  0  0  0  0  0
    3.3718   -2.6382    1.3589 H   0  0  0  0  0  0  0  0  0  0  0  0
    3.3154   -5.2040   -0.3035 H   0  0  0  0  0  0  0  0  0  0  0  0
    2.0735   -3.9106   -0.1465 H   0  0  0  0  0  0  0  0  0  0  0  0
    3.0423   -1.3355   -0.4826 H   0  0  0  0  0  0  0  0  0  0  0  0
    2.5908   -1.9776   -2.0412 H   0  0  0  0  0  0  0  0  0  0  0  0
    4.1640   -1.2385   -1.8253 H   0  0  0  0  0  0  0  0  0  0  0  0
    3.9626   -4.6604   -2.2723 H   0  0  0  0  0  0  0  0  0  0  0  0
  2  1  1  6
  1 25  1  0
  1 26  1  0
  1 27  1  0
  2 10  1  0
  2 15  1  0
  2  3  1  0
  3  4  1  0
  3 28  1  0
  3 29  1  0
  4  5  1  0
  4 30  1  0
  4 31  1  0
  6  5  1  1
  5 32  1  0
  5 33  1  0
  6 20  1  0
  6  7  1  0
  6 15  1  0
  7  8  1  0
  7 34  1  0
  7 35  1  0
  8 14  1  0
  8  9  1  0
  8 11  1  0
  9 10  1  0
  9 36  1  0
  9 37  1  0
 10 38  1  0
 10 39  1  0
 11 12  1  0
 12 13  1  0
 12 40  1  0
 12 41  1  0
 13 14  1  0
 13 42  1  0
 13 43  1  0
 15 16  1  0
 15 44  1  6
 16 17  1  0
 16 45  1  0
 16 46  1  0
 17 18  1  0
 17 47  1  0
 17 48  1  0
 18 22  1  0
 18 19  1  1
 18 20  1  0
 19 49  1  0
 19 50  1  0
 19 51  1  0
 20 21  1  0
 20 52  1  1
 21 22  1  0
 21 53  1  0
 21 54  1  0
 22 23  1  0
 22 24  1  6
 23 55  1  0
 23 56  1  0
 23 57  1  0
 24 58  1  0
M  END
>  <i_m_ct_stereo_status>  (251) 
1

>  <s_m_source_file>  (251) 
/var/tmp/pbs.5076255.sched01/tmpfes5ahby/80lk6pwr5_.sdf

>  <i_m_source_file_index>  (251) 
18

>  <i_lp_mmshare_version>  (251) 
48012

>  <i_f3d_flags>  (251) 
0

>  <s_epik_input>  (251) 
TzFbQ0gyXVtDSDJdT0MxKFtDSDJdMilbQ0gyXVtDSDJdW0NAXShbQ0gzXSkoW0NIMl1bQ0gyXVtDSDJdMylbQ0BASF0oW0NAQF0yMzQpW0NIMl1bQ0gyXVtDQF01KFtDSDNdKVtDQEhdNFtDSDJdW0NAXTUoW0NIM10pW09IXQ==

>  <s_epik_cmdline>  (251) 
J2VwaWtfcHl0aG9uJywgJy1waHQnLCAnMi4wJywgJy1waCcsICc3LjAnLCAnLXRuJywgJzgnLCAnLW1hJywgJzIwMCcsICctaW1hZScsICc8aW5maWxlLm1hZT4nLCAnLW9tYWUnLCAnPG91dGZpbGUubWFlPic=

>  <r_lp_tautomer_probability>  (251) 
1

>  <r_epik_Ionization_Penalty>  (251) 
2.74093e-06

>  <r_epik_Ionization_Penalty_Charging>  (251) 
0

>  <r_epik_Ionization_Penalty_Neutral>  (251) 
2.74093e-06

>  <r_epik_State_Penalty>  (251) 
-0

>  <r_epik_Charging_Adjusted_Penalty>  (251) 
0

>  <i_epik_Tot_Q>  (251) 
0

>  <i_epik_Tot_abs_Q>  (251) 
0

>  <s_lp_Force_Field>  (251) 
OPLS3e

>  <r_lp_Energy>  (251) 
48.784

>  <b_lp_Chiralities_Consistent>  (251) 
1

>  <s_lp_Variant>  (251) 
61:0-1

>  <s_i_glide_gridfile>  (251) 
pfpi4k_grid

>  <i_i_glide_lignum>  (251) 
18

>  <i_i_glide_rotatable_bonds>  (251) 
1

>  <r_i_docking_score>  (251) 
-3.24523

>  <r_i_glide_ligand_efficiency>  (251) 
-0.135218

>  <r_i_glide_ligand_efficiency_sa>  (251) 
-0.390036

>  <r_i_glide_ligand_efficiency_ln>  (251) 
-0.776733

>  <r_i_glide_gscore>  (251) 
-3.24523

>  <r_i_glide_lipo>  (251) 
-0.30885

>  <r_i_glide_hbond>  (251) 
-0.32

>  <r_i_glide_metal>  (251) 
-0

>  <r_i_glide_rewards>  (251) 
-1.12846

>  <r_i_glide_evdw>  (251) 
-16.3918

>  <r_i_glide_ecoul>  (251) 
-4.38055

>  <r_i_glide_erotb>  (251) 
0

>  <r_i_glide_esite>  (251) 
-0.0112536

>  <r_i_glide_emodel>  (251) 
-24.3069

>  <r_i_glide_energy>  (251) 
-20.7723

>  <r_i_glide_einternal>  (251) 
1.09694

>  <r_i_glide_intrahb_reward>  (251) 
-0

>  <i_i_glide_confnum>  (251) 
1

>  <i_i_glide_posenum>  (251) 
11

>  <r_i_glide_eff_state_penalty>  (251) 
0

>  <ligand_id>  (251) 
61

>  <original_smiles>  (251) 
CC12CCCC3(CC4(CC1)OCCO4)C2CCC1(C)C3CC1(C)O

>  <smiles>  (251) 
[H]OC1(C([H])([H])[H])C([H])([H])C2([H])C34C([H])([H])C([H])([H])C([H])([H])C(C([H])([H])[H])(C([H])([H])C([H])([H])C5(OC([H])([H])C([H])([H])O5)C3([H])[H])C4([H])C([H])([H])C([H])([H])C21C([H])([H])[H]

$$$$
61:0:2
     RDKit          3D

 58 62  0  0  1  0  0  0  0  0999 V2000
    6.5547   -5.1238    2.7464 C   0  0  0  0  0  0  0  0  0  0  0  0
    5.3346   -4.1693    2.6793 C   0  0  2  0  0  0  0  0  0  0  0  0
    5.6553   -2.8110    3.3272 C   0  0  0  0  0  0  0  0  0  0  0  0
    4.5685   -1.7464    3.2125 C   0  0  0  0  0  0  0  0  0  0  0  0
    4.0784   -1.5987    1.7643 C   0  0  0  0  0  0  0  0  0  0  0  0
    3.7119   -2.9370    1.0843 C   0  0  2  0  0  0  0  0  0  0  0  0
    2.4166   -3.4544    1.7759 C   0  0  0  0  0  0  0  0  0  0  0  0
    2.2210   -5.0192    1.9293 C   0  0  0  0  0  0  0  0  0  0  0  0
    3.3106   -5.7797    2.7491 C   0  0  0  0  0  0  0  0  0  0  0  0
    4.2131   -4.8316    3.5257 C   0  0  0  0  0  0  0  0  0  0  0  0
    1.0202   -5.2355    2.5814 O   0  0  0  0  0  0  0  0  0  0  0  0
    0.3594   -6.3237    1.9504 C   0  0  0  0  0  0  0  0  0  0  0  0
    1.3289   -6.7864    0.8880 C   0  0  0  0  0  0  0  0  0  0  0  0
    2.0918   -5.6187    0.6859 O   0  0  0  0  0  0  0  0  0  0  0  0
    4.9306   -3.9101    1.1860 C   0  0  1  0  0  0  0  0  0  0  0  0
    6.1132   -3.4429    0.2849 C   0  0  0  0  0  0  0  0  0  0  0  0
    5.7401   -3.3532   -1.1986 C   0  0  0  0  0  0  0  0  0  0  0  0
    4.5244   -2.4382   -1.4373 C   0  0  2  0  0  0  0  0  0  0  0  0
    5.0435   -1.0200   -1.6378 C   0  0  0  0  0  0  0  0  0  0  0  0
    3.4064   -2.6201   -0.4029 C   0  0  1  0  0  0  0  0  0  0  0  0
    2.8264   -3.6461   -1.3516 C   0  0  0  0  0  0  0  0  0  0  0  0
    3.5204   -2.9353   -2.5181 C   0  0  1  0  0  0  0  0  0  0  0  0
    2.6920   -1.8971   -3.2824 C   0  0  0  0  0  0  0  0  0  0  0  0
    4.0461   -3.7777   -3.5083 O   0  0  0  0  0  0  0  0  0  0  0  0
    7.4565   -4.6649    2.3518 H   0  0  0  0  0  0  0  0  0  0  0  0
    6.3697   -6.0441    2.1865 H   0  0  0  0  0  0  0  0  0  0  0  0
    6.7858   -5.4213    3.7724 H   0  0  0  0  0  0  0  0  0  0  0  0
    5.8985   -2.9494    4.3804 H   0  0  0  0  0  0  0  0  0  0  0  0
    6.5474   -2.3793    2.8208 H   0  0  0  0  0  0  0  0  0  0  0  0
    3.7538   -1.9696    3.8893 H   0  0  0  0  0  0  0  0  0  0  0  0
    4.9618   -0.7943    3.5662 H   0  0  0  0  0  0  0  0  0  0  0  0
    3.2243   -0.9168    1.7532 H   0  0  0  0  0  0  0  0  0  0  0  0
    4.8572   -1.0877    1.2101 H   0  0  0  0  0  0  0  0  0  0  0  0
    2.2628   -3.0215    2.7649 H   0  0  0  0  0  0  0  0  0  0  0  0
    1.6039   -3.0107    1.2277 H   0  0  0  0  0  0  0  0  0  0  0  0
    2.7880   -6.4155    3.4644 H   0  0  0  0  0  0  0  0  0  0  0  0
    3.8835   -6.4587    2.1188 H   0  0  0  0  0  0  0  0  0  0  0  0
    4.6606   -5.4079    4.3344 H   0  0  0  0  0  0  0  0  0  0  0  0
    3.5944   -4.1191    4.0734 H   0  0  0  0  0  0  0  0  0  0  0  0
    0.0922   -7.1130    2.6509 H   0  0  0  0  0  0  0  0  0  0  0  0
   -0.5526   -5.9874    1.4613 H   0  0  0  0  0  0  0  0  0  0  0  0
    1.9420   -7.6138    1.2394 H   0  0  0  0  0  0  0  0  0  0  0  0
    0.8151   -7.0919   -0.0153 H   0  0  0  0  0  0  0  0  0  0  0  0
    4.6434   -4.8639    0.7557 H   0  0  0  0  0  0  0  0  0  0  0  0
    6.5046   -2.4849    0.6096 H   0  0  0  0  0  0  0  0  0  0  0  0
    6.9422   -4.1506    0.3414 H   0  0  0  0  0  0  0  0  0  0  0  0
    6.6012   -3.0281   -1.7841 H   0  0  0  0  0  0  0  0  0  0  0  0
    5.5261   -4.3656   -1.5354 H   0  0  0  0  0  0  0  0  0  0  0  0
    4.2262   -0.2994   -1.6552 H   0  0  0  0  0  0  0  0  0  0  0  0
    5.5428   -0.9310   -2.5963 H   0  0  0  0  0  0  0  0  0  0  0  0
    5.7292   -0.7065   -0.8544 H   0  0  0  0  0  0  0  0  0  0  0  0
    2.7469   -1.7529   -0.4628 H   0  0  0  0  0  0  0  0  0  0  0  0
    3.2273   -4.6478   -1.1300 H   0  0  0  0  0  0  0  0  0  0  0  0
    1.7496   -3.6542   -1.4027 H   0  0  0  0  0  0  0  0  0  0  0  0
    2.2820   -1.1582   -2.6110 H   0  0  0  0  0  0  0  0  0  0  0  0
    1.8664   -2.3551   -3.8220 H   0  0  0  0  0  0  0  0  0  0  0  0
    3.2903   -1.3515   -4.0086 H   0  0  0  0  0  0  0  0  0  0  0  0
    3.8159   -4.6659   -3.2441 H   0  0  0  0  0  0  0  0  0  0  0  0
  2  1  1  6
  1 25  1  0
  1 26  1  0
  1 27  1  0
  2 10  1  0
  2 15  1  0
  2  3  1  0
  3  4  1  0
  3 28  1  0
  3 29  1  0
  4  5  1  0
  4 30  1  0
  4 31  1  0
  6  5  1  1
  5 32  1  0
  5 33  1  0
  6 20  1  0
  6  7  1  0
  6 15  1  0
  7  8  1  0
  7 34  1  0
  7 35  1  0
  8 14  1  0
  8  9  1  0
  8 11  1  0
  9 10  1  0
  9 36  1  0
  9 37  1  0
 10 38  1  0
 10 39  1  0
 11 12  1  0
 12 13  1  0
 12 40  1  0
 12 41  1  0
 13 14  1  0
 13 42  1  0
 13 43  1  0
 15 16  1  0
 15 44  1  6
 16 17  1  0
 16 45  1  0
 16 46  1  0
 17 18  1  0
 17 47  1  0
 17 48  1  0
 18 22  1  0
 18 19  1  6
 18 20  1  0
 19 49  1  0
 19 50  1  0
 19 51  1  0
 20 21  1  0
 20 52  1  1
 21 22  1  0
 21 53  1  0
 21 54  1  0
 22 23  1  0
 22 24  1  6
 23 55  1  0
 23 56  1  0
 23 57  1  0
 24 58  1  0
M  END
>  <i_m_ct_stereo_status>  (252) 
1

>  <s_m_source_file>  (252) 
/var/tmp/pbs.5076255.sched01/tmpfes5ahby/80lk6pwr5_.sdf

>  <i_m_source_file_index>  (252) 
18

>  <i_lp_mmshare_version>  (252) 
48012

>  <i_f3d_flags>  (252) 
0

>  <s_epik_input>  (252) 
TzFbQ0gyXVtDSDJdT0MxKFtDSDJdMilbQ0gyXVtDSDJdW0NAXShbQ0gzXSkoW0NIMl1bQ0gyXVtDSDJdMylbQ0BASF0oW0NAQF0yMzQpW0NIMl1bQ0gyXVtDQF01KFtDSDNdKVtDQEhdNFtDSDJdW0NAXTUoW0NIM10pW09IXQ==

>  <s_epik_cmdline>  (252) 
J2VwaWtfcHl0aG9uJywgJy1waHQnLCAnMi4wJywgJy1waCcsICc3LjAnLCAnLXRuJywgJzgnLCAnLW1hJywgJzIwMCcsICctaW1hZScsICc8aW5maWxlLm1hZT4nLCAnLW9tYWUnLCAnPG91dGZpbGUubWFlPic=

>  <r_lp_tautomer_probability>  (252) 
1

>  <r_epik_Ionization_Penalty>  (252) 
2.74093e-06

>  <r_epik_Ionization_Penalty_Charging>  (252) 
0

>  <r_epik_Ionization_Penalty_Neutral>  (252) 
2.74093e-06

>  <r_epik_State_Penalty>  (252) 
-0

>  <r_epik_Charging_Adjusted_Penalty>  (252) 
0

>  <i_epik_Tot_Q>  (252) 
0

>  <i_epik_Tot_abs_Q>  (252) 
0

>  <s_lp_Force_Field>  (252) 
OPLS3e

>  <r_lp_Energy>  (252) 
48.784

>  <b_lp_Chiralities_Consistent>  (252) 
1

>  <s_lp_Variant>  (252) 
61:0-1

>  <s_i_glide_gridfile>  (252) 
pfpi4k_grid

>  <i_i_glide_lignum>  (252) 
18

>  <i_i_glide_rotatable_bonds>  (252) 
1

>  <r_i_docking_score>  (252) 
-3.13705

>  <r_i_glide_ligand_efficiency>  (252) 
-0.13071

>  <r_i_glide_ligand_efficiency_sa>  (252) 
-0.377034

>  <r_i_glide_ligand_efficiency_ln>  (252) 
-0.75084

>  <r_i_glide_gscore>  (252) 
-3.13705

>  <r_i_glide_lipo>  (252) 
-0.436052

>  <r_i_glide_hbond>  (252) 
-0.363462

>  <r_i_glide_metal>  (252) 
-0

>  <r_i_glide_rewards>  (252) 
-1.12846

>  <r_i_glide_evdw>  (252) 
-12.0931

>  <r_i_glide_ecoul>  (252) 
-3.87636

>  <r_i_glide_erotb>  (252) 
0

>  <r_i_glide_esite>  (252) 
-0.0229691

>  <r_i_glide_emodel>  (252) 
-19.0774

>  <r_i_glide_energy>  (252) 
-15.9695

>  <r_i_glide_einternal>  (252) 
1.00595

>  <r_i_glide_intrahb_reward>  (252) 
-0

>  <i_i_glide_confnum>  (252) 
1

>  <i_i_glide_posenum>  (252) 
8

>  <r_i_glide_eff_state_penalty>  (252) 
0

>  <ligand_id>  (252) 
61

>  <original_smiles>  (252) 
CC12CCCC3(CC4(CC1)OCCO4)C2CCC1(C)C3CC1(C)O

>  <smiles>  (252) 
[H]OC1(C([H])([H])[H])C([H])([H])C2([H])C34C([H])([H])C([H])([H])C([H])([H])C(C([H])([H])[H])(C([H])([H])C([H])([H])C5(OC([H])([H])C([H])([H])O5)C3([H])[H])C4([H])C([H])([H])C([H])([H])C21C([H])([H])[H]

$$$$
62:0:0
     RDKit          3D

 34 37  0  0  1  0  0  0  0  0999 V2000
   -0.8765   -7.9039    3.4713 C   0  0  0  0  0  0  0  0  0  0  0  0
   -0.3224   -6.6637    3.0246 O   0  0  0  0  0  0  0  0  0  0  0  0
    1.0493   -6.6160    2.9380 C   0  0  0  0  0  0  0  0  0  0  0  0
    1.8889   -6.7799    4.0147 C   0  0  0  0  0  0  0  0  0  0  0  0
    1.4509   -6.8843    5.4144 C   0  0  0  0  0  0  0  0  0  0  0  0
    0.3919   -6.0992    5.9129 C   0  0  0  0  0  0  0  0  0  0  0  0
   -0.0085   -6.2311    7.2529 C   0  0  0  0  0  0  0  0  0  0  0  0
    0.6431   -7.1458    8.1036 C   0  0  0  0  0  0  0  0  0  0  0  0
    1.7341   -7.9097    7.6127 C   0  0  0  0  0  0  0  0  0  0  0  0
    2.1231   -7.7858    6.2679 C   0  0  0  0  0  0  0  0  0  0  0  0
    2.4233   -8.7821    8.4249 O   0  0  0  0  0  0  0  0  0  0  0  0
    2.1978   -8.5951    9.8155 C   0  0  0  0  0  0  0  0  0  0  0  0
    0.6927   -8.4324   10.0727 C   0  0  0  0  0  0  0  0  0  0  0  0
    0.2057   -7.2759    9.4012 O   0  0  0  0  0  0  0  0  0  0  0  0
    3.2709   -6.7347    3.9133 O   0  0  0  0  0  0  0  0  0  0  0  0
    3.8232   -6.5395    2.6766 C   0  0  0  0  0  0  0  0  0  0  0  0
    5.1251   -6.4459    2.2855 C   0  0  0  0  0  0  0  0  0  0  0  0
    5.1954   -6.2476    0.9349 O   0  0  0  0  0  0  0  0  0  0  0  0
    3.9106   -6.2059    0.4764 C   0  0  0  0  0  0  0  0  0  0  0  0
    3.0485   -6.3776    1.5209 C   0  0  0  0  0  0  0  0  0  0  0  0
    1.5878   -6.4097    1.5665 C   0  0  0  0  0  0  0  0  0  0  0  0
    0.8782   -6.2542    0.5693 O   0  0  0  0  0  0  0  0  0  0  0  0
   -1.9556   -7.7952    3.5912 H   0  0  0  0  0  0  0  0  0  0  0  0
   -0.5016   -8.2600    4.4303 H   0  0  0  0  0  0  0  0  0  0  0  0
   -0.6910   -8.6884    2.7376 H   0  0  0  0  0  0  0  0  0  0  0  0
   -0.1261   -5.4043    5.2706 H   0  0  0  0  0  0  0  0  0  0  0  0
   -0.8404   -5.6526    7.6226 H   0  0  0  0  0  0  0  0  0  0  0  0
    2.9459   -8.3831    5.8998 H   0  0  0  0  0  0  0  0  0  0  0  0
    2.5810   -9.4633   10.3527 H   0  0  0  0  0  0  0  0  0  0  0  0
    2.7505   -7.7209   10.1632 H   0  0  0  0  0  0  0  0  0  0  0  0
    0.1507   -9.3137    9.7289 H   0  0  0  0  0  0  0  0  0  0  0  0
    0.4978   -8.3189   11.1385 H   0  0  0  0  0  0  0  0  0  0  0  0
    6.0687   -6.4989    2.8039 H   0  0  0  0  0  0  0  0  0  0  0  0
    3.8011   -6.0480   -0.5860 H   0  0  0  0  0  0  0  0  0  0  0  0
  1  2  1  0
  1 23  1  0
  1 24  1  0
  1 25  1  0
  2  3  1  0
  3 21  1  0
  3  4  2  0
  4  5  1  0
  4 15  1  0
  5 10  1  0
  5  6  2  0
  6  7  1  0
  6 26  1  0
  7  8  2  0
  7 27  1  0
  8 14  1  0
  8  9  1  0
  9 10  2  0
  9 11  1  0
 10 28  1  0
 11 12  1  0
 12 13  1  0
 12 29  1  0
 12 30  1  0
 13 14  1  0
 13 31  1  0
 13 32  1  0
 15 16  1  0
 16 20  1  0
 16 17  2  0
 17 18  1  0
 17 33  1  0
 18 19  1  0
 19 20  2  0
 19 34  1  0
 20 21  1  0
 21 22  2  0
M  END
>  <i_m_ct_stereo_status>  (253) 
1

>  <s_m_source_file>  (253) 
/var/tmp/pbs.5076255.sched01/tmpfes5ahby/80lk6pwr5_.sdf

>  <i_m_source_file_index>  (253) 
19

>  <i_lp_mmshare_version>  (253) 
48012

>  <i_f3d_flags>  (253) 
0

>  <s_epik_input>  (253) 
W2NIXTFvW2NIXWMoYzEyKWMoPU8pYyhPW0NIM10pYyhvMiktYyhbY0hdW2NIXTMpW2NIXWMoYzM0KU9bQ0gyXVtDSDJdTzQ=

>  <s_epik_cmdline>  (253) 
J2VwaWtfcHl0aG9uJywgJy1waHQnLCAnMi4wJywgJy1waCcsICc3LjAnLCAnLXRuJywgJzgnLCAnLW1hJywgJzIwMCcsICctaW1hZScsICc8aW5maWxlLm1hZT4nLCAnLW9tYWUnLCAnPG91dGZpbGUubWFlPic=

>  <r_lp_tautomer_probability>  (253) 
1

>  <r_epik_Ionization_Penalty>  (253) 
5.22197e-09

>  <r_epik_Ionization_Penalty_Charging>  (253) 
0

>  <r_epik_Ionization_Penalty_Neutral>  (253) 
5.22197e-09

>  <r_epik_State_Penalty>  (253) 
-0

>  <r_epik_Charging_Adjusted_Penalty>  (253) 
0

>  <i_epik_Tot_Q>  (253) 
0

>  <i_epik_Tot_abs_Q>  (253) 
0

>  <s_lp_Force_Field>  (253) 
OPLS3e

>  <r_lp_Energy>  (253) 
40.3555

>  <b_lp_Chiralities_Consistent>  (253) 
1

>  <s_lp_Variant>  (253) 
62:0-1

>  <s_i_glide_gridfile>  (253) 
pfpi4k_grid

>  <i_i_glide_lignum>  (253) 
19

>  <i_i_glide_rotatable_bonds>  (253) 
2

>  <r_i_docking_score>  (253) 
-3.66669

>  <r_i_glide_ligand_efficiency>  (253) 
-0.166668

>  <r_i_glide_ligand_efficiency_sa>  (253) 
-0.46701

>  <r_i_glide_ligand_efficiency_ln>  (253) 
-0.896274

>  <r_i_glide_gscore>  (253) 
-3.66669

>  <r_i_glide_lipo>  (253) 
-0.135738

>  <r_i_glide_hbond>  (253) 
-0.650012

>  <r_i_glide_metal>  (253) 
-0

>  <r_i_glide_rewards>  (253) 
-1.36184

>  <r_i_glide_evdw>  (253) 
-16.9078

>  <r_i_glide_ecoul>  (253) 
-5.85044

>  <r_i_glide_erotb>  (253) 
0.203854

>  <r_i_glide_esite>  (253) 
0

>  <r_i_glide_emodel>  (253) 
-28.2241

>  <r_i_glide_energy>  (253) 
-22.7582

>  <r_i_glide_einternal>  (253) 
0.0649086

>  <r_i_glide_intrahb_reward>  (253) 
-0

>  <i_i_glide_confnum>  (253) 
4

>  <i_i_glide_posenum>  (253) 
18

>  <r_i_glide_eff_state_penalty>  (253) 
0

>  <ligand_id>  (253) 
62

>  <original_smiles>  (253) 
COc1c(-c2ccc3c(c2)OCCO3)oc2cocc2c1=O

>  <smiles>  (253) 
[H]c1c([H])c(-c2oc3c([H])oc([H])c3c(=O)c2OC([H])([H])[H])c([H])c2c1OC([H])([H])C([H])([H])O2

$$$$
62:0:1
     RDKit          3D

 34 37  0  0  1  0  0  0  0  0999 V2000
    5.9480   -1.6613    2.1935 C   0  0  0  0  0  0  0  0  0  0  0  0
    6.0187   -1.0493    0.9098 O   0  0  0  0  0  0  0  0  0  0  0  0
    5.2136   -1.6008   -0.0566 C   0  0  0  0  0  0  0  0  0  0  0  0
    3.8500   -1.6541    0.0365 C   0  0  0  0  0  0  0  0  0  0  0  0
    3.0816   -1.0569    1.1301 C   0  0  0  0  0  0  0  0  0  0  0  0
    2.1996   -1.8933    1.8284 C   0  0  0  0  0  0  0  0  0  0  0  0
    1.4348   -1.3857    2.8910 C   0  0  0  0  0  0  0  0  0  0  0  0
    1.5475   -0.0320    3.2510 C   0  0  0  0  0  0  0  0  0  0  0  0
    2.4510    0.8139    2.5542 C   0  0  0  0  0  0  0  0  0  0  0  0
    3.2105    0.2983    1.4863 C   0  0  0  0  0  0  0  0  0  0  0  0
    2.6120    2.1328    2.9109 O   0  0  0  0  0  0  0  0  0  0  0  0
    2.0949    2.4626    4.1940 C   0  0  0  0  0  0  0  0  0  0  0  0
    0.6947    1.8531    4.3584 C   0  0  0  0  0  0  0  0  0  0  0  0
    0.7754    0.4373    4.2884 O   0  0  0  0  0  0  0  0  0  0  0  0
    3.0409   -2.2423   -0.9280 O   0  0  0  0  0  0  0  0  0  0  0  0
    3.6421   -2.7573   -2.0398 C   0  0  0  0  0  0  0  0  0  0  0  0
    3.1194   -3.3444   -3.1578 C   0  0  0  0  0  0  0  0  0  0  0  0
    4.1294   -3.7872   -3.9757 O   0  0  0  0  0  0  0  0  0  0  0  0
    5.3045   -3.4567   -3.3577 C   0  0  0  0  0  0  0  0  0  0  0  0
    5.0330   -2.7950   -2.1984 C   0  0  0  0  0  0  0  0  0  0  0  0
    5.9274   -2.2267   -1.2031 C   0  0  0  0  0  0  0  0  0  0  0  0
    7.1501   -2.2614   -1.3276 O   0  0  0  0  0  0  0  0  0  0  0  0
    6.6218   -1.1471    2.8714 H   0  0  0  0  0  0  0  0  0  0  0  0
    6.2200   -2.7141    2.1250 H   0  0  0  0  0  0  0  0  0  0  0  0
    4.9803   -1.6070    2.6797 H   0  0  0  0  0  0  0  0  0  0  0  0
    2.1133   -2.9282    1.5413 H   0  0  0  0  0  0  0  0  0  0  0  0
    0.7584   -2.0427    3.4163 H   0  0  0  0  0  0  0  0  0  0  0  0
    3.8935    0.9416    0.9519 H   0  0  0  0  0  0  0  0  0  0  0  0
    2.7740    2.1014    4.9698 H   0  0  0  0  0  0  0  0  0  0  0  0
    2.0483    3.5486    4.2822 H   0  0  0  0  0  0  0  0  0  0  0  0
    0.2753    2.1279    5.3257 H   0  0  0  0  0  0  0  0  0  0  0  0
    0.0151    2.2214    3.5883 H   0  0  0  0  0  0  0  0  0  0  0  0
    2.1120   -3.5842   -3.4611 H   0  0  0  0  0  0  0  0  0  0  0  0
    6.2152   -3.7350   -3.8660 H   0  0  0  0  0  0  0  0  0  0  0  0
  1  2  1  0
  1 23  1  0
  1 24  1  0
  1 25  1  0
  2  3  1  0
  3 21  1  0
  3  4  2  0
  4  5  1  0
  4 15  1  0
  5 10  1  0
  5  6  2  0
  6  7  1  0
  6 26  1  0
  7  8  2  0
  7 27  1  0
  8 14  1  0
  8  9  1  0
  9 10  2  0
  9 11  1  0
 10 28  1  0
 11 12  1  0
 12 13  1  0
 12 29  1  0
 12 30  1  0
 13 14  1  0
 13 31  1  0
 13 32  1  0
 15 16  1  0
 16 20  1  0
 16 17  2  0
 17 18  1  0
 17 33  1  0
 18 19  1  0
 19 20  2  0
 19 34  1  0
 20 21  1  0
 21 22  2  0
M  END
>  <i_m_ct_stereo_status>  (254) 
1

>  <s_m_source_file>  (254) 
/var/tmp/pbs.5076255.sched01/tmpfes5ahby/80lk6pwr5_.sdf

>  <i_m_source_file_index>  (254) 
19

>  <i_lp_mmshare_version>  (254) 
48012

>  <i_f3d_flags>  (254) 
0

>  <s_epik_input>  (254) 
W2NIXTFvW2NIXWMoYzEyKWMoPU8pYyhPW0NIM10pYyhvMiktYyhbY0hdW2NIXTMpW2NIXWMoYzM0KU9bQ0gyXVtDSDJdTzQ=

>  <s_epik_cmdline>  (254) 
J2VwaWtfcHl0aG9uJywgJy1waHQnLCAnMi4wJywgJy1waCcsICc3LjAnLCAnLXRuJywgJzgnLCAnLW1hJywgJzIwMCcsICctaW1hZScsICc8aW5maWxlLm1hZT4nLCAnLW9tYWUnLCAnPG91dGZpbGUubWFlPic=

>  <r_lp_tautomer_probability>  (254) 
1

>  <r_epik_Ionization_Penalty>  (254) 
5.22197e-09

>  <r_epik_Ionization_Penalty_Charging>  (254) 
0

>  <r_epik_Ionization_Penalty_Neutral>  (254) 
5.22197e-09

>  <r_epik_State_Penalty>  (254) 
-0

>  <r_epik_Charging_Adjusted_Penalty>  (254) 
0

>  <i_epik_Tot_Q>  (254) 
0

>  <i_epik_Tot_abs_Q>  (254) 
0

>  <s_lp_Force_Field>  (254) 
OPLS3e

>  <r_lp_Energy>  (254) 
40.3555

>  <b_lp_Chiralities_Consistent>  (254) 
1

>  <s_lp_Variant>  (254) 
62:0-1

>  <s_i_glide_gridfile>  (254) 
pfpi4k_grid

>  <i_i_glide_lignum>  (254) 
19

>  <i_i_glide_rotatable_bonds>  (254) 
2

>  <r_i_docking_score>  (254) 
-3.36667

>  <r_i_glide_ligand_efficiency>  (254) 
-0.153031

>  <r_i_glide_ligand_efficiency_sa>  (254) 
-0.428798

>  <r_i_glide_ligand_efficiency_ln>  (254) 
-0.822938

>  <r_i_glide_gscore>  (254) 
-3.36667

>  <r_i_glide_lipo>  (254) 
-0.558898

>  <r_i_glide_hbond>  (254) 
-0.16

>  <r_i_glide_metal>  (254) 
-0

>  <r_i_glide_rewards>  (254) 
-1.36184

>  <r_i_glide_evdw>  (254) 
-24.3969

>  <r_i_glide_ecoul>  (254) 
-1.79961

>  <r_i_glide_erotb>  (254) 
0.203854

>  <r_i_glide_esite>  (254) 
0

>  <r_i_glide_emodel>  (254) 
-30.3525

>  <r_i_glide_energy>  (254) 
-26.1965

>  <r_i_glide_einternal>  (254) 
1.44976

>  <r_i_glide_intrahb_reward>  (254) 
-0

>  <i_i_glide_confnum>  (254) 
5

>  <i_i_glide_posenum>  (254) 
2

>  <r_i_glide_eff_state_penalty>  (254) 
0

>  <ligand_id>  (254) 
62

>  <original_smiles>  (254) 
COc1c(-c2ccc3c(c2)OCCO3)oc2cocc2c1=O

>  <smiles>  (254) 
[H]c1c([H])c(-c2oc3c([H])oc([H])c3c(=O)c2OC([H])([H])[H])c([H])c2c1OC([H])([H])C([H])([H])O2

$$$$
62:0:2
     RDKit          3D

 34 37  0  0  1  0  0  0  0  0999 V2000
   -2.0287   -4.0335    7.1257 C   0  0  0  0  0  0  0  0  0  0  0  0
   -0.9775   -3.0692    7.2270 O   0  0  0  0  0  0  0  0  0  0  0  0
   -0.3433   -2.7213    6.0546 C   0  0  0  0  0  0  0  0  0  0  0  0
    0.3112   -3.6292    5.2582 C   0  0  0  0  0  0  0  0  0  0  0  0
    0.5424   -5.0250    5.6312 C   0  0  0  0  0  0  0  0  0  0  0  0
    1.0677   -5.3592    6.8940 C   0  0  0  0  0  0  0  0  0  0  0  0
    1.2714   -6.7082    7.2290 C   0  0  0  0  0  0  0  0  0  0  0  0
    0.9455   -7.7250    6.3088 C   0  0  0  0  0  0  0  0  0  0  0  0
    0.4320   -7.3839    5.0289 C   0  0  0  0  0  0  0  0  0  0  0  0
    0.2253   -6.0343    4.6992 C   0  0  0  0  0  0  0  0  0  0  0  0
    0.1246   -8.3471    4.0956 O   0  0  0  0  0  0  0  0  0  0  0  0
    0.6850   -9.6266    4.3653 C   0  0  0  0  0  0  0  0  0  0  0  0
    0.4721   -9.9761    5.8455 C   0  0  0  0  0  0  0  0  0  0  0  0
    1.1426   -9.0339    6.6722 O   0  0  0  0  0  0  0  0  0  0  0  0
    0.9327   -3.2952    4.0662 O   0  0  0  0  0  0  0  0  0  0  0  0
    0.8919   -1.9878    3.6697 C   0  0  0  0  0  0  0  0  0  0  0  0
    1.4151   -1.3819    2.5663 C   0  0  0  0  0  0  0  0  0  0  0  0
    1.0763   -0.0561    2.5610 O   0  0  0  0  0  0  0  0  0  0  0  0
    0.3368    0.1737    3.6873 C   0  0  0  0  0  0  0  0  0  0  0  0
    0.2184   -0.9889    4.3915 C   0  0  0  0  0  0  0  0  0  0  0  0
   -0.4677   -1.2916    5.6463 C   0  0  0  0  0  0  0  0  0  0  0  0
   -1.0895   -0.4413    6.2868 O   0  0  0  0  0  0  0  0  0  0  0  0
   -2.4120   -4.2595    8.1216 H   0  0  0  0  0  0  0  0  0  0  0  0
   -1.7440   -4.9940    6.7028 H   0  0  0  0  0  0  0  0  0  0  0  0
   -2.8542   -3.6470    6.5285 H   0  0  0  0  0  0  0  0  0  0  0  0
    1.3139   -4.5825    7.6062 H   0  0  0  0  0  0  0  0  0  0  0  0
    1.6712   -6.9687    8.1958 H   0  0  0  0  0  0  0  0  0  0  0  0
   -0.1695   -5.7796    3.7283 H   0  0  0  0  0  0  0  0  0  0  0  0
    0.2071  -10.3702    3.7259 H   0  0  0  0  0  0  0  0  0  0  0  0
    1.7477   -9.6220    4.1167 H   0  0  0  0  0  0  0  0  0  0  0  0
   -0.5851   -9.9747    6.1067 H   0  0  0  0  0  0  0  0  0  0  0  0
    0.8647  -10.9705    6.0433 H   0  0  0  0  0  0  0  0  0  0  0  0
    1.9941   -1.7281    1.7266 H   0  0  0  0  0  0  0  0  0  0  0  0
   -0.0075    1.1890    3.8260 H   0  0  0  0  0  0  0  0  0  0  0  0
  1  2  1  0
  1 23  1  0
  1 24  1  0
  1 25  1  0
  2  3  1  0
  3 21  1  0
  3  4  2  0
  4  5  1  0
  4 15  1  0
  5 10  1  0
  5  6  2  0
  6  7  1  0
  6 26  1  0
  7  8  2  0
  7 27  1  0
  8 14  1  0
  8  9  1  0
  9 10  2  0
  9 11  1  0
 10 28  1  0
 11 12  1  0
 12 13  1  0
 12 29  1  0
 12 30  1  0
 13 14  1  0
 13 31  1  0
 13 32  1  0
 15 16  1  0
 16 20  1  0
 16 17  2  0
 17 18  1  0
 17 33  1  0
 18 19  1  0
 19 20  2  0
 19 34  1  0
 20 21  1  0
 21 22  2  0
M  END
>  <i_m_ct_stereo_status>  (255) 
1

>  <s_m_source_file>  (255) 
/var/tmp/pbs.5076255.sched01/tmpfes5ahby/80lk6pwr5_.sdf

>  <i_m_source_file_index>  (255) 
19

>  <i_lp_mmshare_version>  (255) 
48012

>  <i_f3d_flags>  (255) 
0

>  <s_epik_input>  (255) 
W2NIXTFvW2NIXWMoYzEyKWMoPU8pYyhPW0NIM10pYyhvMiktYyhbY0hdW2NIXTMpW2NIXWMoYzM0KU9bQ0gyXVtDSDJdTzQ=

>  <s_epik_cmdline>  (255) 
J2VwaWtfcHl0aG9uJywgJy1waHQnLCAnMi4wJywgJy1waCcsICc3LjAnLCAnLXRuJywgJzgnLCAnLW1hJywgJzIwMCcsICctaW1hZScsICc8aW5maWxlLm1hZT4nLCAnLW9tYWUnLCAnPG91dGZpbGUubWFlPic=

>  <r_lp_tautomer_probability>  (255) 
1

>  <r_epik_Ionization_Penalty>  (255) 
5.22197e-09

>  <r_epik_Ionization_Penalty_Charging>  (255) 
0

>  <r_epik_Ionization_Penalty_Neutral>  (255) 
5.22197e-09

>  <r_epik_State_Penalty>  (255) 
-0

>  <r_epik_Charging_Adjusted_Penalty>  (255) 
0

>  <i_epik_Tot_Q>  (255) 
0

>  <i_epik_Tot_abs_Q>  (255) 
0

>  <s_lp_Force_Field>  (255) 
OPLS3e

>  <r_lp_Energy>  (255) 
40.3555

>  <b_lp_Chiralities_Consistent>  (255) 
1

>  <s_lp_Variant>  (255) 
62:0-1

>  <s_i_glide_gridfile>  (255) 
pfpi4k_grid

>  <i_i_glide_lignum>  (255) 
19

>  <i_i_glide_rotatable_bonds>  (255) 
2

>  <r_i_docking_score>  (255) 
-2.6499

>  <r_i_glide_ligand_efficiency>  (255) 
-0.12045

>  <r_i_glide_ligand_efficiency_sa>  (255) 
-0.337506

>  <r_i_glide_ligand_efficiency_ln>  (255) 
-0.647733

>  <r_i_glide_gscore>  (255) 
-2.6499

>  <r_i_glide_lipo>  (255) 
-0.0214063

>  <r_i_glide_hbond>  (255) 
-0.0977748

>  <r_i_glide_metal>  (255) 
-0

>  <r_i_glide_rewards>  (255) 
-1.36184

>  <r_i_glide_evdw>  (255) 
-18.4449

>  <r_i_glide_ecoul>  (255) 
-3.00323

>  <r_i_glide_erotb>  (255) 
0.203854

>  <r_i_glide_esite>  (255) 
0

>  <r_i_glide_emodel>  (255) 
-24.9704

>  <r_i_glide_energy>  (255) 
-21.4482

>  <r_i_glide_einternal>  (255) 
0.702923

>  <r_i_glide_intrahb_reward>  (255) 
-0

>  <i_i_glide_confnum>  (255) 
6

>  <i_i_glide_posenum>  (255) 
35

>  <r_i_glide_eff_state_penalty>  (255) 
0

>  <ligand_id>  (255) 
62

>  <original_smiles>  (255) 
COc1c(-c2ccc3c(c2)OCCO3)oc2cocc2c1=O

>  <smiles>  (255) 
[H]c1c([H])c(-c2oc3c([H])oc([H])c3c(=O)c2OC([H])([H])[H])c([H])c2c1OC([H])([H])C([H])([H])O2

$$$$
63:0:0
     RDKit          3D

 33 35  0  0  1  0  0  0  0  0999 V2000
    2.9208    0.3904    2.5925 C   0  0  0  0  0  0  0  0  0  0  0  0
    1.6041    0.6175    3.3217 C   0  0  0  0  0  0  0  0  0  0  0  0
    1.0941    1.7667    3.8319 C   0  0  0  0  0  0  0  0  0  0  0  0
    1.7640    3.0495    3.7072 C   0  0  0  0  0  0  0  0  0  0  0  0
    3.0127    3.3282    3.6119 N   0  0  0  0  0  0  0  0  0  0  0  0
    3.2060    4.7552    3.5864 C   0  0  0  0  0  0  0  0  0  0  0  0
    1.8115    5.3559    3.5871 C   0  0  0  0  0  0  0  0  0  0  0  0
    0.9667    4.1909    3.7513 N   0  0  0  0  0  0  0  0  0  0  0  0
   -0.3848    4.2434    3.7615 C   0  0  0  0  0  0  0  0  0  0  0  0
   -0.9851    5.3148    3.6651 O   0  0  0  0  0  0  0  0  0  0  0  0
   -1.0247    3.0638    3.9483 N   0  0  0  0  0  0  0  0  0  0  0  0
   -2.4582    2.9836    4.2225 C   0  0  0  0  0  0  0  0  0  0  0  0
   -2.6342    3.0140    5.7523 C   0  0  0  0  0  0  0  0  0  0  0  0
   -1.8445    1.8711    6.4106 C   0  0  0  0  0  0  0  0  0  0  0  0
   -0.3948    1.7834    5.8910 C   0  0  0  0  0  0  0  0  0  0  0  0
   -0.3422    1.8300    4.3429 C   0  0  2  0  0  0  0  0  0  0  0  0
    2.7672   -0.2792    1.7486 H   0  0  0  0  0  0  0  0  0  0  0  0
    3.6441   -0.0733    3.2590 H   0  0  0  0  0  0  0  0  0  0  0  0
    3.3692    1.2895    2.1727 H   0  0  0  0  0  0  0  0  0  0  0  0
    0.9971   -0.2760    3.3891 H   0  0  0  0  0  0  0  0  0  0  0  0
    3.7655    5.0775    4.4634 H   0  0  0  0  0  0  0  0  0  0  0  0
    3.7767    5.0517    2.7068 H   0  0  0  0  0  0  0  0  0  0  0  0
    1.6624    6.0525    4.4106 H   0  0  0  0  0  0  0  0  0  0  0  0
    1.6079    5.8637    2.6442 H   0  0  0  0  0  0  0  0  0  0  0  0
   -2.9909    3.8035    3.7491 H   0  0  0  0  0  0  0  0  0  0  0  0
   -2.8773    2.0659    3.8038 H   0  0  0  0  0  0  0  0  0  0  0  0
   -2.2854    3.9723    6.1382 H   0  0  0  0  0  0  0  0  0  0  0  0
   -3.6924    2.9417    6.0097 H   0  0  0  0  0  0  0  0  0  0  0  0
   -1.8461    1.9974    7.4938 H   0  0  0  0  0  0  0  0  0  0  0  0
   -2.3445    0.9300    6.1916 H   0  0  0  0  0  0  0  0  0  0  0  0
    0.1788    2.6229    6.2958 H   0  0  0  0  0  0  0  0  0  0  0  0
    0.0897    0.8782    6.2583 H   0  0  0  0  0  0  0  0  0  0  0  0
   -0.8933    0.9812    3.9272 H   0  0  0  0  0  0  0  0  0  0  0  0
  1  2  1  0
  1 17  1  0
  1 18  1  0
  1 19  1  0
  2  3  2  3
  2 20  1  0
  3 16  1  0
  3  4  1  0
  4  8  1  0
  4  5  2  0
  5  6  1  0
  6  7  1  0
  6 21  1  0
  6 22  1  0
  7  8  1  0
  7 23  1  0
  7 24  1  0
  8  9  1  0
  9 10  2  0
  9 11  1  0
 11 16  1  0
 11 12  1  0
 12 13  1  0
 12 25  1  0
 12 26  1  0
 13 14  1  0
 13 27  1  0
 13 28  1  0
 14 15  1  0
 14 29  1  0
 14 30  1  0
 15 16  1  0
 15 31  1  0
 15 32  1  0
 16 33  1  6
M  END
>  <i_m_ct_stereo_status>  (256) 
1

>  <s_m_source_file>  (256) 
/var/tmp/pbs.5076255.sched01/tmpfes5ahby/80lk6pwr5_.sdf

>  <i_m_source_file_index>  (256) 
20

>  <i_lp_mmshare_version>  (256) 
48012

>  <i_f3d_flags>  (256) 
0

>  <s_epik_input>  (256) 
W0NIMl0xW0NIMl1bQ0gyXVtDSDJdW0NASF0oQ1wyPVtDSF1cW0NIM10pTjFDKD1PKU4oQzI9MylbQ0gyXVtDSDJdTjM=

>  <s_epik_cmdline>  (256) 
J2VwaWtfcHl0aG9uJywgJy1waHQnLCAnMi4wJywgJy1waCcsICc3LjAnLCAnLXRuJywgJzgnLCAnLW1hJywgJzIwMCcsICctaW1hZScsICc8aW5maWxlLm1hZT4nLCAnLW9tYWUnLCAnPG91dGZpbGUubWFlPic=

>  <r_epik_Ionization_Penalty>  (256) 
0.408122

>  <r_epik_Ionization_Penalty_Charging>  (256) 
0

>  <r_epik_Ionization_Penalty_Neutral>  (256) 
0.408122

>  <r_epik_State_Penalty>  (256) 
0.407938

>  <r_epik_Charging_Adjusted_Penalty>  (256) 
0.407938

>  <i_epik_Tot_Q>  (256) 
0

>  <i_epik_Tot_abs_Q>  (256) 
0

>  <s_epik_Chemistry_Notes>  (256) 
This compound has an imine and may undergo hydrolysis.

>  <s_lp_Force_Field>  (256) 
OPLS3e

>  <r_lp_Energy>  (256) 
18.2614

>  <b_lp_Chiralities_Consistent>  (256) 
1

>  <s_lp_Variant>  (256) 
63:0-1

>  <s_i_glide_gridfile>  (256) 
pfpi4k_grid

>  <i_i_glide_lignum>  (256) 
20

>  <i_i_glide_rotatable_bonds>  (256) 
0

>  <r_i_docking_score>  (256) 
-3.84119

>  <r_i_glide_ligand_efficiency>  (256) 
-0.240075

>  <r_i_glide_ligand_efficiency_sa>  (256) 
-0.60495

>  <r_i_glide_ligand_efficiency_ln>  (256) 
-1.01819

>  <r_i_glide_gscore>  (256) 
-3.84119

>  <r_i_glide_lipo>  (256) 
-0.155088

>  <r_i_glide_hbond>  (256) 
-0.128349

>  <r_i_glide_metal>  (256) 
-0

>  <r_i_glide_rewards>  (256) 
-1.91398

>  <r_i_glide_evdw>  (256) 
-16.8433

>  <r_i_glide_ecoul>  (256) 
-3.62312

>  <r_i_glide_erotb>  (256) 
0

>  <r_i_glide_esite>  (256) 
-0.258145

>  <r_i_glide_emodel>  (256) 
-25.7292

>  <r_i_glide_energy>  (256) 
-20.4664

>  <r_i_glide_einternal>  (256) 
0

>  <r_i_glide_intrahb_reward>  (256) 
-0

>  <i_i_glide_confnum>  (256) 
2

>  <i_i_glide_posenum>  (256) 
19

>  <r_i_glide_eff_state_penalty>  (256) 
0

>  <ligand_id>  (256) 
63

>  <original_smiles>  (256) 
CC=C1C2=NCCN2C(=O)N2CCCCC12

>  <smiles>  (256) 
[H]C(=C1C2=NC([H])([H])C([H])([H])N2C(=O)N2C([H])([H])C([H])([H])C([H])([H])C([H])([H])C12[H])C([H])([H])[H]

$$$$
63:0:1
     RDKit          3D

 33 35  0  0  1  0  0  0  0  0999 V2000
    3.9175   -1.0732   -3.6378 C   0  0  0  0  0  0  0  0  0  0  0  0
    3.4134   -1.1212   -2.2048 C   0  0  0  0  0  0  0  0  0  0  0  0
    4.0478   -1.5168   -1.0729 C   0  0  0  0  0  0  0  0  0  0  0  0
    5.4397   -1.9209   -1.0629 C   0  0  0  0  0  0  0  0  0  0  0  0
    6.1688   -2.4533   -1.9865 N   0  0  0  0  0  0  0  0  0  0  0  0
    7.4801   -2.7662   -1.4766 C   0  0  0  0  0  0  0  0  0  0  0  0
    7.5000   -2.2112   -0.0539 C   0  0  0  0  0  0  0  0  0  0  0  0
    6.1320   -1.7563    0.1326 N   0  0  0  0  0  0  0  0  0  0  0  0
    5.6768   -1.1962    1.2786 C   0  0  0  0  0  0  0  0  0  0  0  0
    6.3963   -1.0550    2.2598 O   0  0  0  0  0  0  0  0  0  0  0  0
    4.3786   -0.8136    1.2960 N   0  0  0  0  0  0  0  0  0  0  0  0
    3.7238   -0.3691    2.5281 C   0  0  0  0  0  0  0  0  0  0  0  0
    3.1567   -1.6159    3.2279 C   0  0  0  0  0  0  0  0  0  0  0  0
    2.2151   -2.3856    2.2783 C   0  0  0  0  0  0  0  0  0  0  0  0
    2.8364   -2.6077    0.8802 C   0  0  0  0  0  0  0  0  0  0  0  0
    3.4182   -1.2958    0.3062 C   0  0  2  0  0  0  0  0  0  0  0  0
    3.5653   -0.1601   -4.1145 H   0  0  0  0  0  0  0  0  0  0  0  0
    3.5232   -1.9193   -4.1967 H   0  0  0  0  0  0  0  0  0  0  0  0
    5.0001   -1.0656   -3.7251 H   0  0  0  0  0  0  0  0  0  0  0  0
    2.4076   -0.7400   -2.1262 H   0  0  0  0  0  0  0  0  0  0  0  0
    7.6421   -3.8462   -1.4658 H   0  0  0  0  0  0  0  0  0  0  0  0
    8.2530   -2.3200   -2.1124 H   0  0  0  0  0  0  0  0  0  0  0  0
    7.7551   -2.9768    0.6790 H   0  0  0  0  0  0  0  0  0  0  0  0
    8.2233   -1.3927    0.0410 H   0  0  0  0  0  0  0  0  0  0  0  0
    4.4109    0.1536    3.1875 H   0  0  0  0  0  0  0  0  0  0  0  0
    2.9207    0.3310    2.2928 H   0  0  0  0  0  0  0  0  0  0  0  0
    3.9791   -2.2670    3.5341 H   0  0  0  0  0  0  0  0  0  0  0  0
    2.6309   -1.3355    4.1432 H   0  0  0  0  0  0  0  0  0  0  0  0
    1.9423   -3.3456    2.7221 H   0  0  0  0  0  0  0  0  0  0  0  0
    1.2941   -1.8152    2.1622 H   0  0  0  0  0  0  0  0  0  0  0  0
    3.6214   -3.3674    0.9510 H   0  0  0  0  0  0  0  0  0  0  0  0
    2.0908   -3.0056    0.1925 H   0  0  0  0  0  0  0  0  0  0  0  0
    2.6276   -0.5476    0.2182 H   0  0  0  0  0  0  0  0  0  0  0  0
  1  2  1  0
  1 17  1  0
  1 18  1  0
  1 19  1  0
  2  3  2  3
  2 20  1  0
  3 16  1  0
  3  4  1  0
  4  8  1  0
  4  5  2  0
  5  6  1  0
  6  7  1  0
  6 21  1  0
  6 22  1  0
  7  8  1  0
  7 23  1  0
  7 24  1  0
  8  9  1  0
  9 10  2  0
  9 11  1  0
 11 16  1  0
 11 12  1  0
 12 13  1  0
 12 25  1  0
 12 26  1  0
 13 14  1  0
 13 27  1  0
 13 28  1  0
 14 15  1  0
 14 29  1  0
 14 30  1  0
 15 16  1  0
 15 31  1  0
 15 32  1  0
 16 33  1  6
M  END
>  <i_m_ct_stereo_status>  (257) 
1

>  <s_m_source_file>  (257) 
/var/tmp/pbs.5076255.sched01/tmpfes5ahby/80lk6pwr5_.sdf

>  <i_m_source_file_index>  (257) 
20

>  <i_lp_mmshare_version>  (257) 
48012

>  <i_f3d_flags>  (257) 
0

>  <s_epik_input>  (257) 
W0NIMl0xW0NIMl1bQ0gyXVtDSDJdW0NASF0oQ1wyPVtDSF1cW0NIM10pTjFDKD1PKU4oQzI9MylbQ0gyXVtDSDJdTjM=

>  <s_epik_cmdline>  (257) 
J2VwaWtfcHl0aG9uJywgJy1waHQnLCAnMi4wJywgJy1waCcsICc3LjAnLCAnLXRuJywgJzgnLCAnLW1hJywgJzIwMCcsICctaW1hZScsICc8aW5maWxlLm1hZT4nLCAnLW9tYWUnLCAnPG91dGZpbGUubWFlPic=

>  <r_epik_Ionization_Penalty>  (257) 
0.408122

>  <r_epik_Ionization_Penalty_Charging>  (257) 
0

>  <r_epik_Ionization_Penalty_Neutral>  (257) 
0.408122

>  <r_epik_State_Penalty>  (257) 
0.407938

>  <r_epik_Charging_Adjusted_Penalty>  (257) 
0.407938

>  <i_epik_Tot_Q>  (257) 
0

>  <i_epik_Tot_abs_Q>  (257) 
0

>  <s_epik_Chemistry_Notes>  (257) 
This compound has an imine and may undergo hydrolysis.

>  <s_lp_Force_Field>  (257) 
OPLS3e

>  <r_lp_Energy>  (257) 
18.2614

>  <b_lp_Chiralities_Consistent>  (257) 
1

>  <s_lp_Variant>  (257) 
63:0-1

>  <s_i_glide_gridfile>  (257) 
pfpi4k_grid

>  <i_i_glide_lignum>  (257) 
20

>  <i_i_glide_rotatable_bonds>  (257) 
0

>  <r_i_docking_score>  (257) 
-3.76528

>  <r_i_glide_ligand_efficiency>  (257) 
-0.23533

>  <r_i_glide_ligand_efficiency_sa>  (257) 
-0.592994

>  <r_i_glide_ligand_efficiency_ln>  (257) 
-0.998061

>  <r_i_glide_gscore>  (257) 
-3.76528

>  <r_i_glide_lipo>  (257) 
-0.263744

>  <r_i_glide_hbond>  (257) 
0

>  <r_i_glide_metal>  (257) 
-0

>  <r_i_glide_rewards>  (257) 
-2.23303

>  <r_i_glide_evdw>  (257) 
-20.6993

>  <r_i_glide_ecoul>  (257) 
-1.31322

>  <r_i_glide_erotb>  (257) 
0

>  <r_i_glide_esite>  (257) 
-0.0365531

>  <r_i_glide_emodel>  (257) 
-27.0971

>  <r_i_glide_energy>  (257) 
-22.0125

>  <r_i_glide_einternal>  (257) 
0

>  <r_i_glide_intrahb_reward>  (257) 
-0

>  <i_i_glide_confnum>  (257) 
1

>  <i_i_glide_posenum>  (257) 
7

>  <r_i_glide_eff_state_penalty>  (257) 
0

>  <ligand_id>  (257) 
63

>  <original_smiles>  (257) 
CC=C1C2=NCCN2C(=O)N2CCCCC12

>  <smiles>  (257) 
[H]C(=C1C2=NC([H])([H])C([H])([H])N2C(=O)N2C([H])([H])C([H])([H])C([H])([H])C([H])([H])C12[H])C([H])([H])[H]

$$$$
63:0:2
     RDKit          3D

 33 35  0  0  1  0  0  0  0  0999 V2000
   -3.3343    3.2512    2.6067 C   0  0  0  0  0  0  0  0  0  0  0  0
   -2.1364    2.3025    2.6520 C   0  0  0  0  0  0  0  0  0  0  0  0
   -1.4232    1.8653    3.7119 C   0  0  0  0  0  0  0  0  0  0  0  0
   -1.7681    2.2104    5.0776 C   0  0  0  0  0  0  0  0  0  0  0  0
   -2.3731    3.2485    5.5533 N   0  0  0  0  0  0  0  0  0  0  0  0
   -2.3957    3.1792    6.9886 C   0  0  0  0  0  0  0  0  0  0  0  0
   -1.8188    1.8148    7.3449 C   0  0  0  0  0  0  0  0  0  0  0  0
   -1.3812    1.3068    6.0678 N   0  0  0  0  0  0  0  0  0  0  0  0
   -0.7954    0.0907    5.8998 C   0  0  0  0  0  0  0  0  0  0  0  0
   -0.5979   -0.6687    6.8523 O   0  0  0  0  0  0  0  0  0  0  0  0
   -0.4383   -0.2337    4.6290 N   0  0  0  0  0  0  0  0  0  0  0  0
    0.3788   -1.4177    4.3334 C   0  0  0  0  0  0  0  0  0  0  0  0
    1.8499   -0.9818    4.3841 C   0  0  0  0  0  0  0  0  0  0  0  0
    2.0982    0.1909    3.4139 C   0  0  0  0  0  0  0  0  0  0  0  0
    1.0509    1.3156    3.5492 C   0  0  0  0  0  0  0  0  0  0  0  0
   -0.3868    0.7521    3.5502 C   0  0  2  0  0  0  0  0  0  0  0  0
   -4.0633    2.8917    1.8831 H   0  0  0  0  0  0  0  0  0  0  0  0
   -3.0220    4.2476    2.2971 H   0  0  0  0  0  0  0  0  0  0  0  0
   -3.8788    3.3319    3.5497 H   0  0  0  0  0  0  0  0  0  0  0  0
   -1.8697    1.8904    1.6918 H   0  0  0  0  0  0  0  0  0  0  0  0
   -1.7917    3.9765    7.4269 H   0  0  0  0  0  0  0  0  0  0  0  0
   -3.4126    3.3027    7.3622 H   0  0  0  0  0  0  0  0  0  0  0  0
   -0.9757    1.8904    8.0334 H   0  0  0  0  0  0  0  0  0  0  0  0
   -2.5900    1.1891    7.7957 H   0  0  0  0  0  0  0  0  0  0  0  0
    0.1943   -2.2232    5.0369 H   0  0  0  0  0  0  0  0  0  0  0  0
    0.1444   -1.8012    3.3395 H   0  0  0  0  0  0  0  0  0  0  0  0
    2.1008   -0.6767    5.4012 H   0  0  0  0  0  0  0  0  0  0  0  0
    2.5041   -1.8225    4.1441 H   0  0  0  0  0  0  0  0  0  0  0  0
    3.0980    0.5981    3.5722 H   0  0  0  0  0  0  0  0  0  0  0  0
    2.0716   -0.1835    2.3925 H   0  0  0  0  0  0  0  0  0  0  0  0
    1.2267    1.8559    4.4824 H   0  0  0  0  0  0  0  0  0  0  0  0
    1.1675    2.0449    2.7503 H   0  0  0  0  0  0  0  0  0  0  0  0
   -0.5761    0.2360    2.6016 H   0  0  0  0  0  0  0  0  0  0  0  0
  1  2  1  0
  1 17  1  0
  1 18  1  0
  1 19  1  0
  2  3  2  3
  2 20  1  0
  3 16  1  0
  3  4  1  0
  4  8  1  0
  4  5  2  0
  5  6  1  0
  6  7  1  0
  6 21  1  0
  6 22  1  0
  7  8  1  0
  7 23  1  0
  7 24  1  0
  8  9  1  0
  9 10  2  0
  9 11  1  0
 11 16  1  0
 11 12  1  0
 12 13  1  0
 12 25  1  0
 12 26  1  0
 13 14  1  0
 13 27  1  0
 13 28  1  0
 14 15  1  0
 14 29  1  0
 14 30  1  0
 15 16  1  0
 15 31  1  0
 15 32  1  0
 16 33  1  6
M  END
>  <i_m_ct_stereo_status>  (258) 
1

>  <s_m_source_file>  (258) 
/var/tmp/pbs.5076255.sched01/tmpfes5ahby/80lk6pwr5_.sdf

>  <i_m_source_file_index>  (258) 
20

>  <i_lp_mmshare_version>  (258) 
48012

>  <i_f3d_flags>  (258) 
0

>  <s_epik_input>  (258) 
W0NIMl0xW0NIMl1bQ0gyXVtDSDJdW0NASF0oQ1wyPVtDSF1cW0NIM10pTjFDKD1PKU4oQzI9MylbQ0gyXVtDSDJdTjM=

>  <s_epik_cmdline>  (258) 
J2VwaWtfcHl0aG9uJywgJy1waHQnLCAnMi4wJywgJy1waCcsICc3LjAnLCAnLXRuJywgJzgnLCAnLW1hJywgJzIwMCcsICctaW1hZScsICc8aW5maWxlLm1hZT4nLCAnLW9tYWUnLCAnPG91dGZpbGUubWFlPic=

>  <r_epik_Ionization_Penalty>  (258) 
0.408122

>  <r_epik_Ionization_Penalty_Charging>  (258) 
0

>  <r_epik_Ionization_Penalty_Neutral>  (258) 
0.408122

>  <r_epik_State_Penalty>  (258) 
0.407938

>  <r_epik_Charging_Adjusted_Penalty>  (258) 
0.407938

>  <i_epik_Tot_Q>  (258) 
0

>  <i_epik_Tot_abs_Q>  (258) 
0

>  <s_epik_Chemistry_Notes>  (258) 
This compound has an imine and may undergo hydrolysis.

>  <s_lp_Force_Field>  (258) 
OPLS3e

>  <r_lp_Energy>  (258) 
18.2614

>  <b_lp_Chiralities_Consistent>  (258) 
1

>  <s_lp_Variant>  (258) 
63:0-1

>  <s_i_glide_gridfile>  (258) 
pfpi4k_grid

>  <i_i_glide_lignum>  (258) 
20

>  <i_i_glide_rotatable_bonds>  (258) 
0

>  <r_i_docking_score>  (258) 
-3.51672

>  <r_i_glide_ligand_efficiency>  (258) 
-0.219795

>  <r_i_glide_ligand_efficiency_sa>  (258) 
-0.553848

>  <r_i_glide_ligand_efficiency_ln>  (258) 
-0.932176

>  <r_i_glide_gscore>  (258) 
-3.51672

>  <r_i_glide_lipo>  (258) 
-0.111597

>  <r_i_glide_hbond>  (258) 
-0.0348184

>  <r_i_glide_metal>  (258) 
-0

>  <r_i_glide_rewards>  (258) 
-1.91398

>  <r_i_glide_evdw>  (258) 
-18.6367

>  <r_i_glide_ecoul>  (258) 
-2.83093

>  <r_i_glide_erotb>  (258) 
0

>  <r_i_glide_esite>  (258) 
-0.0998492

>  <r_i_glide_emodel>  (258) 
-26.2152

>  <r_i_glide_energy>  (258) 
-21.4676

>  <r_i_glide_einternal>  (258) 
0

>  <r_i_glide_intrahb_reward>  (258) 
-0

>  <i_i_glide_confnum>  (258) 
1

>  <i_i_glide_posenum>  (258) 
1

>  <r_i_glide_eff_state_penalty>  (258) 
0

>  <ligand_id>  (258) 
63

>  <original_smiles>  (258) 
CC=C1C2=NCCN2C(=O)N2CCCCC12

>  <smiles>  (258) 
[H]C(=C1C2=NC([H])([H])C([H])([H])N2C(=O)N2C([H])([H])C([H])([H])C([H])([H])C([H])([H])C12[H])C([H])([H])[H]

$$$$
63:1:0
     RDKit          3D

 33 35  0  0  1  0  0  0  0  0999 V2000
    8.4076   -2.7515   -0.7837 C   0  0  0  0  0  0  0  0  0  0  0  0
    7.1356   -2.6648   -1.6006 C   0  0  0  0  0  0  0  0  0  0  0  0
    5.8704   -2.7810   -1.1402 C   0  0  0  0  0  0  0  0  0  0  0  0
    4.7806   -2.7362   -2.0945 C   0  0  0  0  0  0  0  0  0  0  0  0
    4.7528   -2.2953   -3.3093 N   0  0  0  0  0  0  0  0  0  0  0  0
    3.4105   -2.3824   -3.8196 C   0  0  0  0  0  0  0  0  0  0  0  0
    2.5881   -3.0431   -2.7202 C   0  0  0  0  0  0  0  0  0  0  0  0
    3.5493   -3.2055   -1.6509 N   0  0  0  0  0  0  0  0  0  0  0  0
    3.2839   -3.8595   -0.4925 C   0  0  0  0  0  0  0  0  0  0  0  0
    2.1789   -4.3450   -0.2628 O   0  0  0  0  0  0  0  0  0  0  0  0
    4.3023   -3.9472    0.3962 N   0  0  0  0  0  0  0  0  0  0  0  0
    4.1149   -4.4993    1.7409 C   0  0  0  0  0  0  0  0  0  0  0  0
    3.8000   -3.3262    2.6834 C   0  0  0  0  0  0  0  0  0  0  0  0
    4.9201   -2.2653    2.6184 C   0  0  0  0  0  0  0  0  0  0  0  0
    5.2928   -1.8858    1.1676 C   0  0  0  0  0  0  0  0  0  0  0  0
    5.5190   -3.1449    0.2997 C   0  0  2  0  0  0  0  0  0  0  0  0
    8.9860   -3.6177   -1.1010 H   0  0  0  0  0  0  0  0  0  0  0  0
    8.2429   -2.8051    0.2881 H   0  0  0  0  0  0  0  0  0  0  0  0
    9.0127   -1.8666   -0.9828 H   0  0  0  0  0  0  0  0  0  0  0  0
    7.2944   -2.5249   -2.6588 H   0  0  0  0  0  0  0  0  0  0  0  0
    3.0237   -1.3922   -4.0557 H   0  0  0  0  0  0  0  0  0  0  0  0
    3.3833   -2.9782   -4.7283 H   0  0  0  0  0  0  0  0  0  0  0  0
    1.7672   -2.4096   -2.3919 H   0  0  0  0  0  0  0  0  0  0  0  0
    2.1827   -3.9909   -3.0701 H   0  0  0  0  0  0  0  0  0  0  0  0
    3.3185   -5.2432    1.7690 H   0  0  0  0  0  0  0  0  0  0  0  0
    5.0210   -5.0125    2.0649 H   0  0  0  0  0  0  0  0  0  0  0  0
    2.8472   -2.8783    2.3933 H   0  0  0  0  0  0  0  0  0  0  0  0
    3.6746   -3.6852    3.7056 H   0  0  0  0  0  0  0  0  0  0  0  0
    4.6169   -1.3730    3.1682 H   0  0  0  0  0  0  0  0  0  0  0  0
    5.8067   -2.6630    3.1137 H   0  0  0  0  0  0  0  0  0  0  0  0
    4.4842   -1.2910    0.7317 H   0  0  0  0  0  0  0  0  0  0  0  0
    6.1818   -1.2539    1.1616 H   0  0  0  0  0  0  0  0  0  0  0  0
    6.3261   -3.7483    0.7138 H   0  0  0  0  0  0  0  0  0  0  0  0
  1  2  1  0
  1 17  1  0
  1 18  1  0
  1 19  1  0
  2  3  2  3
  2 20  1  0
  3 16  1  0
  3  4  1  0
  4  8  1  0
  4  5  2  0
  5  6  1  0
  6  7  1  0
  6 21  1  0
  6 22  1  0
  7  8  1  0
  7 23  1  0
  7 24  1  0
  8  9  1  0
  9 10  2  0
  9 11  1  0
 11 16  1  0
 11 12  1  0
 12 13  1  0
 12 25  1  0
 12 26  1  0
 13 14  1  0
 13 27  1  0
 13 28  1  0
 14 15  1  0
 14 29  1  0
 14 30  1  0
 15 16  1  0
 15 31  1  0
 15 32  1  0
 16 33  1  1
M  END
>  <i_m_ct_stereo_status>  (259) 
1

>  <s_m_source_file>  (259) 
/var/tmp/pbs.5076255.sched01/tmpfes5ahby/80lk6pwr5_.sdf

>  <i_m_source_file_index>  (259) 
21

>  <i_lp_mmshare_version>  (259) 
48012

>  <i_f3d_flags>  (259) 
0

>  <s_epik_input>  (259) 
W0NIMl0xW0NIMl1bQ0gyXVtDSDJdW0NASF0oQ1wyPVtDSF1cW0NIM10pTjFDKD1PKU4oQzI9MylbQ0gyXVtDSDJdTjM=

>  <s_epik_cmdline>  (259) 
J2VwaWtfcHl0aG9uJywgJy1waHQnLCAnMi4wJywgJy1waCcsICc3LjAnLCAnLXRuJywgJzgnLCAnLW1hJywgJzIwMCcsICctaW1hZScsICc8aW5maWxlLm1hZT4nLCAnLW9tYWUnLCAnPG91dGZpbGUubWFlPic=

>  <r_epik_Ionization_Penalty>  (259) 
0.408122

>  <r_epik_Ionization_Penalty_Charging>  (259) 
0

>  <r_epik_Ionization_Penalty_Neutral>  (259) 
0.408122

>  <r_epik_State_Penalty>  (259) 
0.407938

>  <r_epik_Charging_Adjusted_Penalty>  (259) 
0.407938

>  <i_epik_Tot_Q>  (259) 
0

>  <i_epik_Tot_abs_Q>  (259) 
0

>  <s_epik_Chemistry_Notes>  (259) 
This compound has an imine and may undergo hydrolysis.

>  <s_lp_Force_Field>  (259) 
OPLS3e

>  <r_lp_Energy>  (259) 
15.45

>  <b_lp_Chiralities_Consistent>  (259) 
1

>  <s_lp_Variant>  (259) 
63:0-2

>  <s_i_glide_gridfile>  (259) 
pfpi4k_grid

>  <i_i_glide_lignum>  (259) 
21

>  <i_i_glide_rotatable_bonds>  (259) 
0

>  <r_i_docking_score>  (259) 
-3.92753

>  <r_i_glide_ligand_efficiency>  (259) 
-0.24547

>  <r_i_glide_ligand_efficiency_sa>  (259) 
-0.618547

>  <r_i_glide_ligand_efficiency_ln>  (259) 
-1.04107

>  <r_i_glide_gscore>  (259) 
-3.92753

>  <r_i_glide_lipo>  (259) 
-0.354182

>  <r_i_glide_hbond>  (259) 
0

>  <r_i_glide_metal>  (259) 
-0

>  <r_i_glide_rewards>  (259) 
-2.02981

>  <r_i_glide_evdw>  (259) 
-22.3725

>  <r_i_glide_ecoul>  (259) 
-2.75483

>  <r_i_glide_erotb>  (259) 
0

>  <r_i_glide_esite>  (259) 
-0.0116873

>  <r_i_glide_emodel>  (259) 
-31.3796

>  <r_i_glide_energy>  (259) 
-25.1273

>  <r_i_glide_einternal>  (259) 
0

>  <r_i_glide_intrahb_reward>  (259) 
-0

>  <i_i_glide_confnum>  (259) 
2

>  <i_i_glide_posenum>  (259) 
21

>  <r_i_glide_eff_state_penalty>  (259) 
0

>  <ligand_id>  (259) 
63

>  <original_smiles>  (259) 
CC=C1C2=NCCN2C(=O)N2CCCCC12

>  <smiles>  (259) 
[H]C(=C1C2=NC([H])([H])C([H])([H])N2C(=O)N2C([H])([H])C([H])([H])C([H])([H])C([H])([H])C12[H])C([H])([H])[H]

$$$$
63:1:1
     RDKit          3D

 33 35  0  0  1  0  0  0  0  0999 V2000
    3.1337    5.8701    3.7717 C   0  0  0  0  0  0  0  0  0  0  0  0
    1.7100    5.3448    3.8031 C   0  0  0  0  0  0  0  0  0  0  0  0
    1.3131    4.0559    3.7009 C   0  0  0  0  0  0  0  0  0  0  0  0
   -0.1099    3.7726    3.6875 C   0  0  0  0  0  0  0  0  0  0  0  0
   -1.1030    4.5069    4.0690 N   0  0  0  0  0  0  0  0  0  0  0  0
   -2.3189    3.7459    3.9304 C   0  0  0  0  0  0  0  0  0  0  0  0
   -1.9236    2.4028    3.3420 C   0  0  0  0  0  0  0  0  0  0  0  0
   -0.4899    2.5104    3.2453 N   0  0  0  0  0  0  0  0  0  0  0  0
    0.2918    1.5587    2.6860 C   0  0  0  0  0  0  0  0  0  0  0  0
   -0.1845    0.5033    2.2703 O   0  0  0  0  0  0  0  0  0  0  0  0
    1.6184    1.8256    2.6328 N   0  0  0  0  0  0  0  0  0  0  0  0
    2.5898    0.8354    2.1655 C   0  0  0  0  0  0  0  0  0  0  0  0
    3.0909    0.0591    3.3963 C   0  0  0  0  0  0  0  0  0  0  0  0
    3.6714    1.0239    4.4508 C   0  0  0  0  0  0  0  0  0  0  0  0
    2.7370    2.2203    4.7353 C   0  0  0  0  0  0  0  0  0  0  0  0
    2.2490    2.8810    3.4239 C   0  0  2  0  0  0  0  0  0  0  0  0
    3.2900    6.4807    2.8826 H   0  0  0  0  0  0  0  0  0  0  0  0
    3.8666    5.0705    3.7801 H   0  0  0  0  0  0  0  0  0  0  0  0
    3.3021    6.4970    4.6452 H   0  0  0  0  0  0  0  0  0  0  0  0
    0.9622    6.1205    3.8827 H   0  0  0  0  0  0  0  0  0  0  0  0
   -2.7995    3.6124    4.9008 H   0  0  0  0  0  0  0  0  0  0  0  0
   -3.0156    4.2633    3.2708 H   0  0  0  0  0  0  0  0  0  0  0  0
   -2.2019    1.5705    3.9883 H   0  0  0  0  0  0  0  0  0  0  0  0
   -2.3814    2.2591    2.3627 H   0  0  0  0  0  0  0  0  0  0  0  0
    2.1615    0.1586    1.4270 H   0  0  0  0  0  0  0  0  0  0  0  0
    3.4205    1.3405    1.6729 H   0  0  0  0  0  0  0  0  0  0  0  0
    2.2603   -0.5016    3.8281 H   0  0  0  0  0  0  0  0  0  0  0  0
    3.8412   -0.6773    3.1019 H   0  0  0  0  0  0  0  0  0  0  0  0
    3.8807    0.4848    5.3770 H   0  0  0  0  0  0  0  0  0  0  0  0
    4.6223    1.4079    4.0833 H   0  0  0  0  0  0  0  0  0  0  0  0
    1.8720    1.8711    5.3074 H   0  0  0  0  0  0  0  0  0  0  0  0
    3.2453    2.9527    5.3640 H   0  0  0  0  0  0  0  0  0  0  0  0
    3.0972    3.2504    2.8493 H   0  0  0  0  0  0  0  0  0  0  0  0
  1  2  1  0
  1 17  1  0
  1 18  1  0
  1 19  1  0
  2  3  2  3
  2 20  1  0
  3 16  1  0
  3  4  1  0
  4  8  1  0
  4  5  2  0
  5  6  1  0
  6  7  1  0
  6 21  1  0
  6 22  1  0
  7  8  1  0
  7 23  1  0
  7 24  1  0
  8  9  1  0
  9 10  2  0
  9 11  1  0
 11 16  1  0
 11 12  1  0
 12 13  1  0
 12 25  1  0
 12 26  1  0
 13 14  1  0
 13 27  1  0
 13 28  1  0
 14 15  1  0
 14 29  1  0
 14 30  1  0
 15 16  1  0
 15 31  1  0
 15 32  1  0
 16 33  1  6
M  END
>  <i_m_ct_stereo_status>  (260) 
1

>  <s_m_source_file>  (260) 
/var/tmp/pbs.5076255.sched01/tmpfes5ahby/80lk6pwr5_.sdf

>  <i_m_source_file_index>  (260) 
21

>  <i_lp_mmshare_version>  (260) 
48012

>  <i_f3d_flags>  (260) 
0

>  <s_epik_input>  (260) 
W0NIMl0xW0NIMl1bQ0gyXVtDSDJdW0NASF0oQ1wyPVtDSF1cW0NIM10pTjFDKD1PKU4oQzI9MylbQ0gyXVtDSDJdTjM=

>  <s_epik_cmdline>  (260) 
J2VwaWtfcHl0aG9uJywgJy1waHQnLCAnMi4wJywgJy1waCcsICc3LjAnLCAnLXRuJywgJzgnLCAnLW1hJywgJzIwMCcsICctaW1hZScsICc8aW5maWxlLm1hZT4nLCAnLW9tYWUnLCAnPG91dGZpbGUubWFlPic=

>  <r_epik_Ionization_Penalty>  (260) 
0.408122

>  <r_epik_Ionization_Penalty_Charging>  (260) 
0

>  <r_epik_Ionization_Penalty_Neutral>  (260) 
0.408122

>  <r_epik_State_Penalty>  (260) 
0.407938

>  <r_epik_Charging_Adjusted_Penalty>  (260) 
0.407938

>  <i_epik_Tot_Q>  (260) 
0

>  <i_epik_Tot_abs_Q>  (260) 
0

>  <s_epik_Chemistry_Notes>  (260) 
This compound has an imine and may undergo hydrolysis.

>  <s_lp_Force_Field>  (260) 
OPLS3e

>  <r_lp_Energy>  (260) 
15.45

>  <b_lp_Chiralities_Consistent>  (260) 
1

>  <s_lp_Variant>  (260) 
63:0-2

>  <s_i_glide_gridfile>  (260) 
pfpi4k_grid

>  <i_i_glide_lignum>  (260) 
21

>  <i_i_glide_rotatable_bonds>  (260) 
0

>  <r_i_docking_score>  (260) 
-3.52056

>  <r_i_glide_ligand_efficiency>  (260) 
-0.220035

>  <r_i_glide_ligand_efficiency_sa>  (260) 
-0.554454

>  <r_i_glide_ligand_efficiency_ln>  (260) 
-0.933195

>  <r_i_glide_gscore>  (260) 
-3.52056

>  <r_i_glide_lipo>  (260) 
-0.0829632

>  <r_i_glide_hbond>  (260) 
-0.0533459

>  <r_i_glide_metal>  (260) 
-0

>  <r_i_glide_rewards>  (260) 
-1.91398

>  <r_i_glide_evdw>  (260) 
-20.1583

>  <r_i_glide_ecoul>  (260) 
-1.48457

>  <r_i_glide_erotb>  (260) 
0

>  <r_i_glide_esite>  (260) 
-0.239672

>  <r_i_glide_emodel>  (260) 
-27.2336

>  <r_i_glide_energy>  (260) 
-21.6428

>  <r_i_glide_einternal>  (260) 
0

>  <r_i_glide_intrahb_reward>  (260) 
-0

>  <i_i_glide_confnum>  (260) 
1

>  <i_i_glide_posenum>  (260) 
2

>  <r_i_glide_eff_state_penalty>  (260) 
0

>  <ligand_id>  (260) 
63

>  <original_smiles>  (260) 
CC=C1C2=NCCN2C(=O)N2CCCCC12

>  <smiles>  (260) 
[H]C(=C1C2=NC([H])([H])C([H])([H])N2C(=O)N2C([H])([H])C([H])([H])C([H])([H])C([H])([H])C12[H])C([H])([H])[H]

$$$$
63:1:2
     RDKit          3D

 33 35  0  0  1  0  0  0  0  0999 V2000
    1.8682    6.8763    4.4173 C   0  0  0  0  0  0  0  0  0  0  0  0
    0.6839    5.9931    4.0681 C   0  0  0  0  0  0  0  0  0  0  0  0
    0.6167    4.6453    4.1396 C   0  0  0  0  0  0  0  0  0  0  0  0
   -0.5965    3.9890    3.6884 C   0  0  0  0  0  0  0  0  0  0  0  0
   -1.7860    4.4722    3.5283 N   0  0  0  0  0  0  0  0  0  0  0  0
   -2.6754    3.4047    3.1446 C   0  0  0  0  0  0  0  0  0  0  0  0
   -1.8137    2.1458    3.0557 C   0  0  0  0  0  0  0  0  0  0  0  0
   -0.5089    2.6242    3.4376 N   0  0  0  0  0  0  0  0  0  0  0  0
    0.5970    1.8434    3.4391 C   0  0  0  0  0  0  0  0  0  0  0  0
    0.5439    0.6475    3.1456 O   0  0  0  0  0  0  0  0  0  0  0  0
    1.7515    2.4514    3.8001 N   0  0  0  0  0  0  0  0  0  0  0  0
    3.0038    1.7120    3.9531 C   0  0  0  0  0  0  0  0  0  0  0  0
    3.1177    1.2815    5.4257 C   0  0  0  0  0  0  0  0  0  0  0  0
    3.0307    2.5090    6.3574 C   0  0  0  0  0  0  0  0  0  0  0  0
    1.8420    3.4318    6.0063 C   0  0  0  0  0  0  0  0  0  0  0  0
    1.7970    3.7413    4.4900 C   0  0  2  0  0  0  0  0  0  0  0  0
    2.2320    7.3738    3.5180 H   0  0  0  0  0  0  0  0  0  0  0  0
    2.6887    6.3260    4.8708 H   0  0  0  0  0  0  0  0  0  0  0  0
    1.5462    7.6470    5.1164 H   0  0  0  0  0  0  0  0  0  0  0  0
   -0.1651    6.5439    3.6893 H   0  0  0  0  0  0  0  0  0  0  0  0
   -3.4610    3.2759    3.8883 H   0  0  0  0  0  0  0  0  0  0  0  0
   -3.1577    3.6291    2.1936 H   0  0  0  0  0  0  0  0  0  0  0  0
   -2.1559    1.3734    3.7450 H   0  0  0  0  0  0  0  0  0  0  0  0
   -1.8112    1.7439    2.0422 H   0  0  0  0  0  0  0  0  0  0  0  0
    3.0572    0.8499    3.2878 H   0  0  0  0  0  0  0  0  0  0  0  0
    3.8375    2.3589    3.6832 H   0  0  0  0  0  0  0  0  0  0  0  0
    2.3113    0.5834    5.6589 H   0  0  0  0  0  0  0  0  0  0  0  0
    4.0516    0.7431    5.5942 H   0  0  0  0  0  0  0  0  0  0  0  0
    2.9556    2.1828    7.3966 H   0  0  0  0  0  0  0  0  0  0  0  0
    3.9540    3.0824    6.2704 H   0  0  0  0  0  0  0  0  0  0  0  0
    0.9096    2.9443    6.3050 H   0  0  0  0  0  0  0  0  0  0  0  0
    1.9025    4.3549    6.5844 H   0  0  0  0  0  0  0  0  0  0  0  0
    2.7157    4.2430    4.1864 H   0  0  0  0  0  0  0  0  0  0  0  0
  1  2  1  0
  1 17  1  0
  1 18  1  0
  1 19  1  0
  2  3  2  3
  2 20  1  0
  3 16  1  0
  3  4  1  0
  4  8  1  0
  4  5  2  0
  5  6  1  0
  6  7  1  0
  6 21  1  0
  6 22  1  0
  7  8  1  0
  7 23  1  0
  7 24  1  0
  8  9  1  0
  9 10  2  0
  9 11  1  0
 11 16  1  0
 11 12  1  0
 12 13  1  0
 12 25  1  0
 12 26  1  0
 13 14  1  0
 13 27  1  0
 13 28  1  0
 14 15  1  0
 14 29  1  0
 14 30  1  0
 15 16  1  0
 15 31  1  0
 15 32  1  0
 16 33  1  6
M  END
>  <i_m_ct_stereo_status>  (261) 
1

>  <s_m_source_file>  (261) 
/var/tmp/pbs.5076255.sched01/tmpfes5ahby/80lk6pwr5_.sdf

>  <i_m_source_file_index>  (261) 
21

>  <i_lp_mmshare_version>  (261) 
48012

>  <i_f3d_flags>  (261) 
0

>  <s_epik_input>  (261) 
W0NIMl0xW0NIMl1bQ0gyXVtDSDJdW0NASF0oQ1wyPVtDSF1cW0NIM10pTjFDKD1PKU4oQzI9MylbQ0gyXVtDSDJdTjM=

>  <s_epik_cmdline>  (261) 
J2VwaWtfcHl0aG9uJywgJy1waHQnLCAnMi4wJywgJy1waCcsICc3LjAnLCAnLXRuJywgJzgnLCAnLW1hJywgJzIwMCcsICctaW1hZScsICc8aW5maWxlLm1hZT4nLCAnLW9tYWUnLCAnPG91dGZpbGUubWFlPic=

>  <r_epik_Ionization_Penalty>  (261) 
0.408122

>  <r_epik_Ionization_Penalty_Charging>  (261) 
0

>  <r_epik_Ionization_Penalty_Neutral>  (261) 
0.408122

>  <r_epik_State_Penalty>  (261) 
0.407938

>  <r_epik_Charging_Adjusted_Penalty>  (261) 
0.407938

>  <i_epik_Tot_Q>  (261) 
0

>  <i_epik_Tot_abs_Q>  (261) 
0

>  <s_epik_Chemistry_Notes>  (261) 
This compound has an imine and may undergo hydrolysis.

>  <s_lp_Force_Field>  (261) 
OPLS3e

>  <r_lp_Energy>  (261) 
15.45

>  <b_lp_Chiralities_Consistent>  (261) 
1

>  <s_lp_Variant>  (261) 
63:0-2

>  <s_i_glide_gridfile>  (261) 
pfpi4k_grid

>  <i_i_glide_lignum>  (261) 
21

>  <i_i_glide_rotatable_bonds>  (261) 
0

>  <r_i_docking_score>  (261) 
-3.47499

>  <r_i_glide_ligand_efficiency>  (261) 
-0.217187

>  <r_i_glide_ligand_efficiency_sa>  (261) 
-0.547277

>  <r_i_glide_ligand_efficiency_ln>  (261) 
-0.921116

>  <r_i_glide_gscore>  (261) 
-3.47499

>  <r_i_glide_lipo>  (261) 
0

>  <r_i_glide_hbond>  (261) 
-0.16

>  <r_i_glide_metal>  (261) 
-0

>  <r_i_glide_rewards>  (261) 
-1.91398

>  <r_i_glide_evdw>  (261) 
-16.5453

>  <r_i_glide_ecoul>  (261) 
-2.41022

>  <r_i_glide_erotb>  (261) 
0

>  <r_i_glide_esite>  (261) 
-0.21221

>  <r_i_glide_emodel>  (261) 
-24.4737

>  <r_i_glide_energy>  (261) 
-18.9556

>  <r_i_glide_einternal>  (261) 
0

>  <r_i_glide_intrahb_reward>  (261) 
-0

>  <i_i_glide_confnum>  (261) 
1

>  <i_i_glide_posenum>  (261) 
12

>  <r_i_glide_eff_state_penalty>  (261) 
0

>  <ligand_id>  (261) 
63

>  <original_smiles>  (261) 
CC=C1C2=NCCN2C(=O)N2CCCCC12

>  <smiles>  (261) 
[H]C(=C1C2=NC([H])([H])C([H])([H])N2C(=O)N2C([H])([H])C([H])([H])C([H])([H])C([H])([H])C12[H])C([H])([H])[H]

$$$$
63:2:0
     RDKit          3D

 34 36  0  0  1  0  0  0  0  0999 V2000
   -9.3387   -6.3481  -10.2836 C   0  0  0  0  0  0  0  0  0  0  0  0
   -8.2788   -7.0876   -9.4891 C   0  0  0  0  0  0  0  0  0  0  0  0
   -8.4166   -8.2108   -8.7497 C   0  0  0  0  0  0  0  0  0  0  0  0
   -9.6012   -8.9728   -8.6544 C   0  0  0  0  0  0  0  0  0  0  0  0
  -10.8555   -8.5238   -8.8236 N   0  0  0  0  0  0  0  0  0  0  0  0
  -11.8249   -9.6207   -8.7289 C   0  0  0  0  0  0  0  0  0  0  0  0
  -10.9959  -10.7796   -8.1638 C   0  0  0  0  0  0  0  0  0  0  0  0
   -9.6259  -10.3161   -8.3061 N   0  0  0  0  0  0  0  0  0  0  0  0
   -8.5277  -11.0913   -8.2518 C   0  0  0  0  0  0  0  0  0  0  0  0
   -8.5882  -12.3135   -8.1319 O   0  0  0  0  0  0  0  0  0  0  0  0
   -7.3596  -10.4171   -8.3238 N   0  0  0  0  0  0  0  0  0  0  0  0
   -6.0873  -11.0924   -8.0396 C   0  0  0  0  0  0  0  0  0  0  0  0
   -5.8136  -10.9643   -6.5379 C   0  0  0  0  0  0  0  0  0  0  0  0
   -5.8343   -9.4842   -6.1109 C   0  0  0  0  0  0  0  0  0  0  0  0
   -7.0507   -8.7139   -6.6718 C   0  0  0  0  0  0  0  0  0  0  0  0
   -7.2185   -8.9664   -8.1869 C   0  0  2  0  0  0  0  0  0  0  0  0
   -8.9190   -5.9641  -11.2099 H   0  0  0  0  0  0  0  0  0  0  0  0
   -9.7111   -5.5130   -9.6989 H   0  0  0  0  0  0  0  0  0  0  0  0
  -10.1736   -6.9671  -10.5889 H   0  0  0  0  0  0  0  0  0  0  0  0
   -7.2879   -6.6549   -9.5903 H   0  0  0  0  0  0  0  0  0  0  0  0
  -12.7167   -9.3752   -8.1503 H   0  0  0  0  0  0  0  0  0  0  0  0
  -12.1259   -9.8458   -9.7553 H   0  0  0  0  0  0  0  0  0  0  0  0
  -11.1821  -10.8571   -7.1010 H   0  0  0  0  0  0  0  0  0  0  0  0
  -11.2181  -11.7383   -8.6273 H   0  0  0  0  0  0  0  0  0  0  0  0
   -6.0924  -12.1349   -8.3534 H   0  0  0  0  0  0  0  0  0  0  0  0
   -5.2916  -10.6062   -8.5903 H   0  0  0  0  0  0  0  0  0  0  0  0
   -6.5672  -11.5304   -5.9933 H   0  0  0  0  0  0  0  0  0  0  0  0
   -4.8528  -11.4124   -6.2857 H   0  0  0  0  0  0  0  0  0  0  0  0
   -5.8282   -9.4305   -5.0264 H   0  0  0  0  0  0  0  0  0  0  0  0
   -4.9235   -8.9946   -6.4496 H   0  0  0  0  0  0  0  0  0  0  0  0
   -7.9531   -9.0616   -6.1657 H   0  0  0  0  0  0  0  0  0  0  0  0
   -6.9610   -7.6466   -6.4640 H   0  0  0  0  0  0  0  0  0  0  0  0
   -6.3249   -8.6288   -8.7198 H   0  0  0  0  0  0  0  0  0  0  0  0
  -11.1165   -7.5459   -8.8588 H   0  0  0  0  0  0  0  0  0  0  0  0
  1  2  1  0
  1 17  1  0
  1 18  1  0
  1 19  1  0
  2  3  2  3
  2 20  1  0
  3 16  1  0
  3  4  1  0
  4  8  1  0
  4  5  2  0
  5  6  1  0
  5 34  1  0
  6  7  1  0
  6 21  1  0
  6 22  1  0
  7  8  1  0
  7 23  1  0
  7 24  1  0
  8  9  1  0
  9 10  2  0
  9 11  1  0
 11 16  1  0
 11 12  1  0
 12 13  1  0
 12 25  1  0
 12 26  1  0
 13 14  1  0
 13 27  1  0
 13 28  1  0
 14 15  1  0
 14 29  1  0
 14 30  1  0
 15 16  1  0
 15 31  1  0
 15 32  1  0
 16 33  1  6
M  CHG  1   5   1
M  END
>  <i_m_ct_stereo_status>  (262) 
1

>  <s_m_source_file>  (262) 
/var/tmp/pbs.5076255.sched01/tmpfes5ahby/80lk6pwr5_.sdf

>  <i_m_source_file_index>  (262) 
22

>  <i_lp_mmshare_version>  (262) 
48012

>  <i_f3d_flags>  (262) 
0

>  <s_epik_input>  (262) 
W0NIMl0xW0NIMl1bQ0gyXVtDSDJdW0NASF0oQ1wyPVtDSF1cW0NIM10pTjFDKD1PKU4oQzI9MylbQ0gyXVtDSDJdTjM=

>  <s_epik_cmdline>  (262) 
J2VwaWtfcHl0aG9uJywgJy1waHQnLCAnMi4wJywgJy1waCcsICc3LjAnLCAnLXRuJywgJzgnLCAnLW1hJywgJzIwMCcsICctaW1hZScsICc8aW5maWxlLm1hZT4nLCAnLW9tYWUnLCAnPG91dGZpbGUubWFlPic=

>  <r_epik_Ionization_Penalty>  (262) 
0.413269

>  <r_epik_Ionization_Penalty_Charging>  (262) 
0.413261

>  <r_epik_Ionization_Penalty_Neutral>  (262) 
7.47238e-06

>  <r_epik_State_Penalty>  (262) 
0.413435

>  <r_epik_Charging_Adjusted_Penalty>  (262) 
0.826696

>  <i_epik_Tot_Q>  (262) 
1

>  <i_epik_Tot_abs_Q>  (262) 
1

>  <s_epik_Chemistry_Notes>  (262) 
This compound has an imine and may undergo hydrolysis.

>  <s_lp_Force_Field>  (262) 
OPLS3e

>  <r_lp_Energy>  (262) 
21.2373

>  <b_lp_Chiralities_Consistent>  (262) 
1

>  <s_lp_Variant>  (262) 
63:0-3

>  <s_i_glide_gridfile>  (262) 
pfpi4k_grid

>  <i_i_glide_lignum>  (262) 
22

>  <i_i_glide_rotatable_bonds>  (262) 
0

>  <r_i_docking_score>  (262) 
-4.61621

>  <r_i_glide_ligand_efficiency>  (262) 
-0.288513

>  <r_i_glide_ligand_efficiency_sa>  (262) 
-0.727007

>  <r_i_glide_ligand_efficiency_ln>  (262) 
-1.22362

>  <r_i_glide_gscore>  (262) 
-4.61621

>  <r_i_glide_lipo>  (262) 
-1.09575

>  <r_i_glide_hbond>  (262) 
0

>  <r_i_glide_metal>  (262) 
-0

>  <r_i_glide_rewards>  (262) 
-2.29821

>  <r_i_glide_evdw>  (262) 
-17.3777

>  <r_i_glide_ecoul>  (262) 
-2.30119

>  <r_i_glide_erotb>  (262) 
0

>  <r_i_glide_esite>  (262) 
-0.00817552

>  <r_i_glide_emodel>  (262) 
-28.0602

>  <r_i_glide_energy>  (262) 
-19.6789

>  <r_i_glide_einternal>  (262) 
0

>  <r_i_glide_intrahb_reward>  (262) 
-0

>  <i_i_glide_confnum>  (262) 
1

>  <i_i_glide_posenum>  (262) 
20

>  <r_i_glide_eff_state_penalty>  (262) 
0

>  <ligand_id>  (262) 
63

>  <original_smiles>  (262) 
CC=C1C2=NCCN2C(=O)N2CCCCC12

>  <smiles>  (262) 
[H]C(=C1C2=[N+]([H])C([H])([H])C([H])([H])N2C(=O)N2C([H])([H])C([H])([H])C([H])([H])C([H])([H])C12[H])C([H])([H])[H]

$$$$
63:2:1
     RDKit          3D

 34 36  0  0  1  0  0  0  0  0999 V2000
    2.6634    0.3833    1.9871 C   0  0  0  0  0  0  0  0  0  0  0  0
    1.4336    0.5442    2.8563 C   0  0  0  0  0  0  0  0  0  0  0  0
    0.9940    1.6660    3.4899 C   0  0  0  0  0  0  0  0  0  0  0  0
    1.5617    2.9513    3.3606 C   0  0  0  0  0  0  0  0  0  0  0  0
    2.8351    3.2212    3.0579 N   0  0  0  0  0  0  0  0  0  0  0  0
    3.0391    4.6752    2.9197 C   0  0  0  0  0  0  0  0  0  0  0  0
    1.7755    5.2856    3.5190 C   0  0  0  0  0  0  0  0  0  0  0  0
    0.9093    4.1435    3.6256 N   0  0  0  0  0  0  0  0  0  0  0  0
   -0.4209    4.2111    3.7012 C   0  0  0  0  0  0  0  0  0  0  0  0
   -0.9859    5.2825    3.7131 O   0  0  0  0  0  0  0  0  0  0  0  0
   -1.0386    3.0317    3.8518 N   0  0  0  0  0  0  0  0  0  0  0  0
   -2.4582    2.9462    4.2522 C   0  0  0  0  0  0  0  0  0  0  0  0
   -2.5093    2.9405    5.7900 C   0  0  0  0  0  0  0  0  0  0  0  0
   -1.6680    1.7686    6.3314 C   0  0  0  0  0  0  0  0  0  0  0  0
   -0.2688    1.6692    5.6701 C   0  0  0  0  0  0  0  0  0  0  0  0
   -0.3858    1.7552    4.1241 C   0  0  2  0  0  0  0  0  0  0  0  0
    2.4497   -0.2857    1.1606 H   0  0  0  0  0  0  0  0  0  0  0  0
    3.4771   -0.0342    2.5705 H   0  0  0  0  0  0  0  0  0  0  0  0
    2.9926    1.2988    1.5201 H   0  0  0  0  0  0  0  0  0  0  0  0
    0.8245   -0.3533    2.9302 H   0  0  0  0  0  0  0  0  0  0  0  0
    3.9518    5.0282    3.3991 H   0  0  0  0  0  0  0  0  0  0  0  0
    3.0935    4.8643    1.8396 H   0  0  0  0  0  0  0  0  0  0  0  0
    1.9959    5.6628    4.5181 H   0  0  0  0  0  0  0  0  0  0  0  0
    1.4218    6.1165    2.9092 H   0  0  0  0  0  0  0  0  0  0  0  0
   -3.0176    3.7815    3.8364 H   0  0  0  0  0  0  0  0  0  0  0  0
   -2.9076    2.0495    3.8459 H   0  0  0  0  0  0  0  0  0  0  0  0
   -2.1386    3.8878    6.1672 H   0  0  0  0  0  0  0  0  0  0  0  0
   -3.5419    2.8653    6.1228 H   0  0  0  0  0  0  0  0  0  0  0  0
   -1.5494    1.8831    7.4071 H   0  0  0  0  0  0  0  0  0  0  0  0
   -2.1951    0.8342    6.1484 H   0  0  0  0  0  0  0  0  0  0  0  0
    0.3465    2.5075    6.0211 H   0  0  0  0  0  0  0  0  0  0  0  0
    0.2430    0.7524    5.9727 H   0  0  0  0  0  0  0  0  0  0  0  0
   -0.9892    0.9301    3.7416 H   0  0  0  0  0  0  0  0  0  0  0  0
    3.5792    2.5367    2.9549 H   0  0  0  0  0  0  0  0  0  0  0  0
  1  2  1  0
  1 17  1  0
  1 18  1  0
  1 19  1  0
  2  3  2  3
  2 20  1  0
  3 16  1  0
  3  4  1  0
  4  8  1  0
  4  5  2  0
  5  6  1  0
  5 34  1  0
  6  7  1  0
  6 21  1  0
  6 22  1  0
  7  8  1  0
  7 23  1  0
  7 24  1  0
  8  9  1  0
  9 10  2  0
  9 11  1  0
 11 16  1  0
 11 12  1  0
 12 13  1  0
 12 25  1  0
 12 26  1  0
 13 14  1  0
 13 27  1  0
 13 28  1  0
 14 15  1  0
 14 29  1  0
 14 30  1  0
 15 16  1  0
 15 31  1  0
 15 32  1  0
 16 33  1  6
M  CHG  1   5   1
M  END
>  <i_m_ct_stereo_status>  (263) 
1

>  <s_m_source_file>  (263) 
/var/tmp/pbs.5076255.sched01/tmpfes5ahby/80lk6pwr5_.sdf

>  <i_m_source_file_index>  (263) 
22

>  <i_lp_mmshare_version>  (263) 
48012

>  <i_f3d_flags>  (263) 
0

>  <s_epik_input>  (263) 
W0NIMl0xW0NIMl1bQ0gyXVtDSDJdW0NASF0oQ1wyPVtDSF1cW0NIM10pTjFDKD1PKU4oQzI9MylbQ0gyXVtDSDJdTjM=

>  <s_epik_cmdline>  (263) 
J2VwaWtfcHl0aG9uJywgJy1waHQnLCAnMi4wJywgJy1waCcsICc3LjAnLCAnLXRuJywgJzgnLCAnLW1hJywgJzIwMCcsICctaW1hZScsICc8aW5maWxlLm1hZT4nLCAnLW9tYWUnLCAnPG91dGZpbGUubWFlPic=

>  <r_epik_Ionization_Penalty>  (263) 
0.413269

>  <r_epik_Ionization_Penalty_Charging>  (263) 
0.413261

>  <r_epik_Ionization_Penalty_Neutral>  (263) 
7.47238e-06

>  <r_epik_State_Penalty>  (263) 
0.413435

>  <r_epik_Charging_Adjusted_Penalty>  (263) 
0.826696

>  <i_epik_Tot_Q>  (263) 
1

>  <i_epik_Tot_abs_Q>  (263) 
1

>  <s_epik_Chemistry_Notes>  (263) 
This compound has an imine and may undergo hydrolysis.

>  <s_lp_Force_Field>  (263) 
OPLS3e

>  <r_lp_Energy>  (263) 
21.2373

>  <b_lp_Chiralities_Consistent>  (263) 
1

>  <s_lp_Variant>  (263) 
63:0-3

>  <s_i_glide_gridfile>  (263) 
pfpi4k_grid

>  <i_i_glide_lignum>  (263) 
22

>  <i_i_glide_rotatable_bonds>  (263) 
0

>  <r_i_docking_score>  (263) 
-4.4909

>  <r_i_glide_ligand_efficiency>  (263) 
-0.280681

>  <r_i_glide_ligand_efficiency_sa>  (263) 
-0.707272

>  <r_i_glide_ligand_efficiency_ln>  (263) 
-1.1904

>  <r_i_glide_gscore>  (263) 
-4.4909

>  <r_i_glide_lipo>  (263) 
-0.190759

>  <r_i_glide_hbond>  (263) 
-0.126707

>  <r_i_glide_metal>  (263) 
-0

>  <r_i_glide_rewards>  (263) 
-1.90711

>  <r_i_glide_evdw>  (263) 
-15.2109

>  <r_i_glide_ecoul>  (263) 
-7.89079

>  <r_i_glide_erotb>  (263) 
0

>  <r_i_glide_esite>  (263) 
-0.32216

>  <r_i_glide_emodel>  (263) 
-31.3061

>  <r_i_glide_energy>  (263) 
-23.1017

>  <r_i_glide_einternal>  (263) 
0

>  <r_i_glide_intrahb_reward>  (263) 
-0

>  <i_i_glide_confnum>  (263) 
2

>  <i_i_glide_posenum>  (263) 
9

>  <r_i_glide_eff_state_penalty>  (263) 
0

>  <ligand_id>  (263) 
63

>  <original_smiles>  (263) 
CC=C1C2=NCCN2C(=O)N2CCCCC12

>  <smiles>  (263) 
[H]C(=C1C2=[N+]([H])C([H])([H])C([H])([H])N2C(=O)N2C([H])([H])C([H])([H])C([H])([H])C([H])([H])C12[H])C([H])([H])[H]

$$$$
63:2:2
     RDKit          3D

 34 36  0  0  1  0  0  0  0  0999 V2000
   -1.7901   -9.0313    2.5252 C   0  0  0  0  0  0  0  0  0  0  0  0
   -0.6033   -8.1021    2.3185 C   0  0  0  0  0  0  0  0  0  0  0  0
    0.6825   -8.3154    2.6597 C   0  0  0  0  0  0  0  0  0  0  0  0
    1.1880   -9.5078    3.2060 C   0  0  0  0  0  0  0  0  0  0  0  0
    0.5046  -10.4089    3.9304 N   0  0  0  0  0  0  0  0  0  0  0  0
    1.3570  -11.5499    4.2660 C   0  0  0  0  0  0  0  0  0  0  0  0
    2.7714  -11.0880    3.9232 C   0  0  0  0  0  0  0  0  0  0  0  0
    2.5172   -9.8975    3.1102 N   0  0  0  0  0  0  0  0  0  0  0  0
    3.4226   -9.2867    2.3120 C   0  0  0  0  0  0  0  0  0  0  0  0
    4.5626   -9.7211    2.1371 O   0  0  0  0  0  0  0  0  0  0  0  0
    2.9878   -8.1285    1.7565 N   0  0  0  0  0  0  0  0  0  0  0  0
    3.9237   -7.2446    1.0649 C   0  0  0  0  0  0  0  0  0  0  0  0
    4.5266   -6.2838    2.1009 C   0  0  0  0  0  0  0  0  0  0  0  0
    3.4147   -5.5349    2.8555 C   0  0  0  0  0  0  0  0  0  0  0  0
    2.2801   -6.4675    3.3300 C   0  0  0  0  0  0  0  0  0  0  0  0
    1.8006   -7.3914    2.1945 C   0  0  2  0  0  0  0  0  0  0  0  0
   -2.4759   -8.9897    1.6804 H   0  0  0  0  0  0  0  0  0  0  0  0
   -2.3316   -8.7436    3.4225 H   0  0  0  0  0  0  0  0  0  0  0  0
   -1.5121  -10.0754    2.6019 H   0  0  0  0  0  0  0  0  0  0  0  0
   -0.8593   -7.1945    1.7746 H   0  0  0  0  0  0  0  0  0  0  0  0
    1.2333  -11.9188    5.2876 H   0  0  0  0  0  0  0  0  0  0  0  0
    1.0411  -12.3377    3.5873 H   0  0  0  0  0  0  0  0  0  0  0  0
    3.2856  -10.7723    4.8249 H   0  0  0  0  0  0  0  0  0  0  0  0
    3.3622  -11.8595    3.4250 H   0  0  0  0  0  0  0  0  0  0  0  0
    4.7085   -7.7895    0.5453 H   0  0  0  0  0  0  0  0  0  0  0  0
    3.4033   -6.6645    0.2950 H   0  0  0  0  0  0  0  0  0  0  0  0
    5.1376   -6.8528    2.7988 H   0  0  0  0  0  0  0  0  0  0  0  0
    5.2030   -5.5731    1.6180 H   0  0  0  0  0  0  0  0  0  0  0  0
    3.8414   -5.0117    3.7096 H   0  0  0  0  0  0  0  0  0  0  0  0
    2.9911   -4.7731    2.2022 H   0  0  0  0  0  0  0  0  0  0  0  0
    2.6441   -7.0768    4.1609 H   0  0  0  0  0  0  0  0  0  0  0  0
    1.4460   -5.8813    3.7253 H   0  0  0  0  0  0  0  0  0  0  0  0
    1.4264   -6.7973    1.3548 H   0  0  0  0  0  0  0  0  0  0  0  0
   -0.4267  -10.2831    4.3223 H   0  0  0  0  0  0  0  0  0  0  0  0
  1  2  1  0
  1 17  1  0
  1 18  1  0
  1 19  1  0
  2  3  2  3
  2 20  1  0
  3 16  1  0
  3  4  1  0
  4  8  1  0
  4  5  2  0
  5  6  1  0
  5 34  1  0
  6  7  1  0
  6 21  1  0
  6 22  1  0
  7  8  1  0
  7 23  1  0
  7 24  1  0
  8  9  1  0
  9 10  2  0
  9 11  1  0
 11 16  1  0
 11 12  1  0
 12 13  1  0
 12 25  1  0
 12 26  1  0
 13 14  1  0
 13 27  1  0
 13 28  1  0
 14 15  1  0
 14 29  1  0
 14 30  1  0
 15 16  1  0
 15 31  1  0
 15 32  1  0
 16 33  1  6
M  CHG  1   5   1
M  END
>  <i_m_ct_stereo_status>  (264) 
1

>  <s_m_source_file>  (264) 
/var/tmp/pbs.5076255.sched01/tmpfes5ahby/80lk6pwr5_.sdf

>  <i_m_source_file_index>  (264) 
22

>  <i_lp_mmshare_version>  (264) 
48012

>  <i_f3d_flags>  (264) 
0

>  <s_epik_input>  (264) 
W0NIMl0xW0NIMl1bQ0gyXVtDSDJdW0NASF0oQ1wyPVtDSF1cW0NIM10pTjFDKD1PKU4oQzI9MylbQ0gyXVtDSDJdTjM=

>  <s_epik_cmdline>  (264) 
J2VwaWtfcHl0aG9uJywgJy1waHQnLCAnMi4wJywgJy1waCcsICc3LjAnLCAnLXRuJywgJzgnLCAnLW1hJywgJzIwMCcsICctaW1hZScsICc8aW5maWxlLm1hZT4nLCAnLW9tYWUnLCAnPG91dGZpbGUubWFlPic=

>  <r_epik_Ionization_Penalty>  (264) 
0.413269

>  <r_epik_Ionization_Penalty_Charging>  (264) 
0.413261

>  <r_epik_Ionization_Penalty_Neutral>  (264) 
7.47238e-06

>  <r_epik_State_Penalty>  (264) 
0.413435

>  <r_epik_Charging_Adjusted_Penalty>  (264) 
0.826696

>  <i_epik_Tot_Q>  (264) 
1

>  <i_epik_Tot_abs_Q>  (264) 
1

>  <s_epik_Chemistry_Notes>  (264) 
This compound has an imine and may undergo hydrolysis.

>  <s_lp_Force_Field>  (264) 
OPLS3e

>  <r_lp_Energy>  (264) 
21.2373

>  <b_lp_Chiralities_Consistent>  (264) 
1

>  <s_lp_Variant>  (264) 
63:0-3

>  <s_i_glide_gridfile>  (264) 
pfpi4k_grid

>  <i_i_glide_lignum>  (264) 
22

>  <i_i_glide_rotatable_bonds>  (264) 
0

>  <r_i_docking_score>  (264) 
-4.04199

>  <r_i_glide_ligand_efficiency>  (264) 
-0.252624

>  <r_i_glide_ligand_efficiency_sa>  (264) 
-0.636574

>  <r_i_glide_ligand_efficiency_ln>  (264) 
-1.07141

>  <r_i_glide_gscore>  (264) 
-4.04199

>  <r_i_glide_lipo>  (264) 
-0.39332

>  <r_i_glide_hbond>  (264) 
-0.174844

>  <r_i_glide_metal>  (264) 
-0

>  <r_i_glide_rewards>  (264) 
-1.9123

>  <r_i_glide_evdw>  (264) 
-18.9526

>  <r_i_glide_ecoul>  (264) 
-3.52618

>  <r_i_glide_erotb>  (264) 
0

>  <r_i_glide_esite>  (264) 
-0.084969

>  <r_i_glide_emodel>  (264) 
-29.6608

>  <r_i_glide_energy>  (264) 
-22.4788

>  <r_i_glide_einternal>  (264) 
0

>  <r_i_glide_intrahb_reward>  (264) 
-0

>  <i_i_glide_confnum>  (264) 
2

>  <i_i_glide_posenum>  (264) 
25

>  <r_i_glide_eff_state_penalty>  (264) 
0

>  <ligand_id>  (264) 
63

>  <original_smiles>  (264) 
CC=C1C2=NCCN2C(=O)N2CCCCC12

>  <smiles>  (264) 
[H]C(=C1C2=[N+]([H])C([H])([H])C([H])([H])N2C(=O)N2C([H])([H])C([H])([H])C([H])([H])C([H])([H])C12[H])C([H])([H])[H]

$$$$
63:3:0
     RDKit          3D

 34 36  0  0  1  0  0  0  0  0999 V2000
    2.8030   -0.4157    1.6900 C   0  0  0  0  0  0  0  0  0  0  0  0
    1.6759    0.5235    2.0695 C   0  0  0  0  0  0  0  0  0  0  0  0
    0.9064    0.4543    3.1860 C   0  0  0  0  0  0  0  0  0  0  0  0
   -0.1909    1.3283    3.3908 C   0  0  0  0  0  0  0  0  0  0  0  0
   -0.4707    2.4118    2.6550 N   0  0  0  0  0  0  0  0  0  0  0  0
   -1.6870    3.0534    3.1443 C   0  0  0  0  0  0  0  0  0  0  0  0
   -1.9373    2.3718    4.4853 C   0  0  0  0  0  0  0  0  0  0  0  0
   -1.1165    1.1836    4.4247 N   0  0  0  0  0  0  0  0  0  0  0  0
   -1.2519    0.0678    5.1332 C   0  0  0  0  0  0  0  0  0  0  0  0
   -2.1515   -0.1093    5.9676 O   0  0  0  0  0  0  0  0  0  0  0  0
   -0.3442   -0.8863    4.8659 N   0  0  0  0  0  0  0  0  0  0  0  0
   -0.3098   -2.1434    5.6263 C   0  0  0  0  0  0  0  0  0  0  0  0
    0.5945   -1.9412    6.8503 C   0  0  0  0  0  0  0  0  0  0  0  0
    1.9919   -1.4677    6.4098 C   0  0  0  0  0  0  0  0  0  0  0  0
    1.9424   -0.3254    5.3712 C   0  0  0  0  0  0  0  0  0  0  0  0
    0.9606   -0.6509    4.2250 C   0  0  2  0  0  0  0  0  0  0  0  0
    2.5590   -0.9421    0.7703 H   0  0  0  0  0  0  0  0  0  0  0  0
    3.0138   -1.1524    2.4561 H   0  0  0  0  0  0  0  0  0  0  0  0
    3.6994    0.1709    1.5160 H   0  0  0  0  0  0  0  0  0  0  0  0
    1.4684    1.2848    1.3374 H   0  0  0  0  0  0  0  0  0  0  0  0
   -1.6543    4.1448    3.1842 H   0  0  0  0  0  0  0  0  0  0  0  0
   -2.4641    2.7747    2.4360 H   0  0  0  0  0  0  0  0  0  0  0  0
   -1.5838    2.9948    5.2931 H   0  0  0  0  0  0  0  0  0  0  0  0
   -2.9892    2.1775    4.6509 H   0  0  0  0  0  0  0  0  0  0  0  0
   -1.3044   -2.4565    5.9426 H   0  0  0  0  0  0  0  0  0  0  0  0
    0.0818   -2.9605    5.0169 H   0  0  0  0  0  0  0  0  0  0  0  0
    0.1494   -1.2018    7.5122 H   0  0  0  0  0  0  0  0  0  0  0  0
    0.6744   -2.8607    7.4302 H   0  0  0  0  0  0  0  0  0  0  0  0
    2.5659   -1.1573    7.2805 H   0  0  0  0  0  0  0  0  0  0  0  0
    2.5300   -2.3101    5.9779 H   0  0  0  0  0  0  0  0  0  0  0  0
    1.6231    0.5917    5.8694 H   0  0  0  0  0  0  0  0  0  0  0  0
    2.9413   -0.1330    4.9783 H   0  0  0  0  0  0  0  0  0  0  0  0
    1.2606   -1.5760    3.7272 H   0  0  0  0  0  0  0  0  0  0  0  0
    0.1128    2.8574    1.9348 H   0  0  0  0  0  0  0  0  0  0  0  0
  1  2  1  0
  1 17  1  0
  1 18  1  0
  1 19  1  0
  2  3  2  3
  2 20  1  0
  3 16  1  0
  3  4  1  0
  4  8  1  0
  4  5  2  0
  5  6  1  0
  5 34  1  0
  6  7  1  0
  6 21  1  0
  6 22  1  0
  7  8  1  0
  7 23  1  0
  7 24  1  0
  8  9  1  0
  9 10  2  0
  9 11  1  0
 11 16  1  0
 11 12  1  0
 12 13  1  0
 12 25  1  0
 12 26  1  0
 13 14  1  0
 13 27  1  0
 13 28  1  0
 14 15  1  0
 14 29  1  0
 14 30  1  0
 15 16  1  0
 15 31  1  0
 15 32  1  0
 16 33  1  6
M  CHG  1   5   1
M  END
>  <i_m_ct_stereo_status>  (265) 
1

>  <s_m_source_file>  (265) 
/var/tmp/pbs.5076255.sched01/tmpfes5ahby/80lk6pwr5_.sdf

>  <i_m_source_file_index>  (265) 
23

>  <i_lp_mmshare_version>  (265) 
48012

>  <i_f3d_flags>  (265) 
0

>  <s_epik_input>  (265) 
W0NIMl0xW0NIMl1bQ0gyXVtDSDJdW0NASF0oQ1wyPVtDSF1cW0NIM10pTjFDKD1PKU4oQzI9MylbQ0gyXVtDSDJdTjM=

>  <s_epik_cmdline>  (265) 
J2VwaWtfcHl0aG9uJywgJy1waHQnLCAnMi4wJywgJy1waCcsICc3LjAnLCAnLXRuJywgJzgnLCAnLW1hJywgJzIwMCcsICctaW1hZScsICc8aW5maWxlLm1hZT4nLCAnLW9tYWUnLCAnPG91dGZpbGUubWFlPic=

>  <r_epik_Ionization_Penalty>  (265) 
0.413269

>  <r_epik_Ionization_Penalty_Charging>  (265) 
0.413261

>  <r_epik_Ionization_Penalty_Neutral>  (265) 
7.47238e-06

>  <r_epik_State_Penalty>  (265) 
0.413435

>  <r_epik_Charging_Adjusted_Penalty>  (265) 
0.826696

>  <i_epik_Tot_Q>  (265) 
1

>  <i_epik_Tot_abs_Q>  (265) 
1

>  <s_epik_Chemistry_Notes>  (265) 
This compound has an imine and may undergo hydrolysis.

>  <s_lp_Force_Field>  (265) 
OPLS3e

>  <r_lp_Energy>  (265) 
19.3684

>  <b_lp_Chiralities_Consistent>  (265) 
1

>  <s_lp_Variant>  (265) 
63:0-4

>  <s_i_glide_gridfile>  (265) 
pfpi4k_grid

>  <i_i_glide_lignum>  (265) 
23

>  <i_i_glide_rotatable_bonds>  (265) 
0

>  <r_i_docking_score>  (265) 
-4.16061

>  <r_i_glide_ligand_efficiency>  (265) 
-0.260038

>  <r_i_glide_ligand_efficiency_sa>  (265) 
-0.655254

>  <r_i_glide_ligand_efficiency_ln>  (265) 
-1.10285

>  <r_i_glide_gscore>  (265) 
-4.16061

>  <r_i_glide_lipo>  (265) 
0

>  <r_i_glide_hbond>  (265) 
-0.319544

>  <r_i_glide_metal>  (265) 
-0

>  <r_i_glide_rewards>  (265) 
-1.90711

>  <r_i_glide_evdw>  (265) 
-15.0397

>  <r_i_glide_ecoul>  (265) 
-6.47668

>  <r_i_glide_erotb>  (265) 
0

>  <r_i_glide_esite>  (265) 
-0.210466

>  <r_i_glide_emodel>  (265) 
-28.0111

>  <r_i_glide_energy>  (265) 
-21.5164

>  <r_i_glide_einternal>  (265) 
0

>  <r_i_glide_intrahb_reward>  (265) 
-0

>  <i_i_glide_confnum>  (265) 
2

>  <i_i_glide_posenum>  (265) 
1

>  <r_i_glide_eff_state_penalty>  (265) 
0

>  <ligand_id>  (265) 
63

>  <original_smiles>  (265) 
CC=C1C2=NCCN2C(=O)N2CCCCC12

>  <smiles>  (265) 
[H]C(=C1C2=[N+]([H])C([H])([H])C([H])([H])N2C(=O)N2C([H])([H])C([H])([H])C([H])([H])C([H])([H])C12[H])C([H])([H])[H]

$$$$
63:3:1
     RDKit          3D

 34 36  0  0  1  0  0  0  0  0999 V2000
    0.3298    6.0161    4.4203 C   0  0  0  0  0  0  0  0  0  0  0  0
    0.5120    4.6777    3.7297 C   0  0  0  0  0  0  0  0  0  0  0  0
    0.1128    3.4681    4.1776 C   0  0  0  0  0  0  0  0  0  0  0  0
    0.4509    2.2544    3.5248 C   0  0  0  0  0  0  0  0  0  0  0  0
    1.0132    2.1784    2.3007 N   0  0  0  0  0  0  0  0  0  0  0  0
    1.2072    0.7788    1.9151 C   0  0  0  0  0  0  0  0  0  0  0  0
    0.4523   -0.0113    3.0025 C   0  0  0  0  0  0  0  0  0  0  0  0
    0.2150    0.9908    4.0144 N   0  0  0  0  0  0  0  0  0  0  0  0
   -0.0606    0.7580    5.3177 C   0  0  0  0  0  0  0  0  0  0  0  0
   -0.1422   -0.3496    5.7943 O   0  0  0  0  0  0  0  0  0  0  0  0
   -0.2072    1.8761    6.0496 N   0  0  0  0  0  0  0  0  0  0  0  0
   -0.5693    1.7876    7.4748 C   0  0  0  0  0  0  0  0  0  0  0  0
   -2.1030    1.7914    7.5783 C   0  0  0  0  0  0  0  0  0  0  0  0
   -2.6783    3.0336    6.8808 C   0  0  0  0  0  0  0  0  0  0  0  0
   -2.0583    3.2794    5.4846 C   0  0  0  0  0  0  0  0  0  0  0  0
   -0.5208    3.2070    5.5354 C   0  0  2  0  0  0  0  0  0  0  0  0
    1.2977    6.4481    4.6597 H   0  0  0  0  0  0  0  0  0  0  0  0
   -0.2566    5.9431    5.3286 H   0  0  0  0  0  0  0  0  0  0  0  0
   -0.1755    6.6810    3.7296 H   0  0  0  0  0  0  0  0  0  0  0  0
    1.0619    4.7433    2.7982 H   0  0  0  0  0  0  0  0  0  0  0  0
    0.9275    0.5411    0.8812 H   0  0  0  0  0  0  0  0  0  0  0  0
    2.2780    0.6025    2.0156 H   0  0  0  0  0  0  0  0  0  0  0  0
   -0.5203   -0.2723    2.6141 H   0  0  0  0  0  0  0  0  0  0  0  0
    0.9692   -0.9096    3.3338 H   0  0  0  0  0  0  0  0  0  0  0  0
   -0.1689    0.8945    7.9541 H   0  0  0  0  0  0  0  0  0  0  0  0
   -0.1724    2.6315    8.0502 H   0  0  0  0  0  0  0  0  0  0  0  0
   -2.4971    0.9024    7.0926 H   0  0  0  0  0  0  0  0  0  0  0  0
   -2.4285    1.7526    8.6209 H   0  0  0  0  0  0  0  0  0  0  0  0
   -3.7589    2.9363    6.7951 H   0  0  0  0  0  0  0  0  0  0  0  0
   -2.4998    3.9021    7.5129 H   0  0  0  0  0  0  0  0  0  0  0  0
   -2.4378    2.5273    4.7881 H   0  0  0  0  0  0  0  0  0  0  0  0
   -2.3853    4.2425    5.0951 H   0  0  0  0  0  0  0  0  0  0  0  0
   -0.1344    3.9453    6.2453 H   0  0  0  0  0  0  0  0  0  0  0  0
    0.9600    2.9424    1.6131 H   0  0  0  0  0  0  0  0  0  0  0  0
  1  2  1  0
  1 17  1  0
  1 18  1  0
  1 19  1  0
  2  3  2  3
  2 20  1  0
  3 16  1  0
  3  4  1  0
  4  8  1  0
  4  5  2  0
  5  6  1  0
  5 34  1  0
  6  7  1  0
  6 21  1  0
  6 22  1  0
  7  8  1  0
  7 23  1  0
  7 24  1  0
  8  9  1  0
  9 10  2  0
  9 11  1  0
 11 16  1  0
 11 12  1  0
 12 13  1  0
 12 25  1  0
 12 26  1  0
 13 14  1  0
 13 27  1  0
 13 28  1  0
 14 15  1  0
 14 29  1  0
 14 30  1  0
 15 16  1  0
 15 31  1  0
 15 32  1  0
 16 33  1  1
M  CHG  1   5   1
M  END
>  <i_m_ct_stereo_status>  (266) 
1

>  <s_m_source_file>  (266) 
/var/tmp/pbs.5076255.sched01/tmpfes5ahby/80lk6pwr5_.sdf

>  <i_m_source_file_index>  (266) 
23

>  <i_lp_mmshare_version>  (266) 
48012

>  <i_f3d_flags>  (266) 
0

>  <s_epik_input>  (266) 
W0NIMl0xW0NIMl1bQ0gyXVtDSDJdW0NASF0oQ1wyPVtDSF1cW0NIM10pTjFDKD1PKU4oQzI9MylbQ0gyXVtDSDJdTjM=

>  <s_epik_cmdline>  (266) 
J2VwaWtfcHl0aG9uJywgJy1waHQnLCAnMi4wJywgJy1waCcsICc3LjAnLCAnLXRuJywgJzgnLCAnLW1hJywgJzIwMCcsICctaW1hZScsICc8aW5maWxlLm1hZT4nLCAnLW9tYWUnLCAnPG91dGZpbGUubWFlPic=

>  <r_epik_Ionization_Penalty>  (266) 
0.413269

>  <r_epik_Ionization_Penalty_Charging>  (266) 
0.413261

>  <r_epik_Ionization_Penalty_Neutral>  (266) 
7.47238e-06

>  <r_epik_State_Penalty>  (266) 
0.413435

>  <r_epik_Charging_Adjusted_Penalty>  (266) 
0.826696

>  <i_epik_Tot_Q>  (266) 
1

>  <i_epik_Tot_abs_Q>  (266) 
1

>  <s_epik_Chemistry_Notes>  (266) 
This compound has an imine and may undergo hydrolysis.

>  <s_lp_Force_Field>  (266) 
OPLS3e

>  <r_lp_Energy>  (266) 
19.3684

>  <b_lp_Chiralities_Consistent>  (266) 
1

>  <s_lp_Variant>  (266) 
63:0-4

>  <s_i_glide_gridfile>  (266) 
pfpi4k_grid

>  <i_i_glide_lignum>  (266) 
23

>  <i_i_glide_rotatable_bonds>  (266) 
0

>  <r_i_docking_score>  (266) 
-3.92596

>  <r_i_glide_ligand_efficiency>  (266) 
-0.245372

>  <r_i_glide_ligand_efficiency_sa>  (266) 
-0.6183

>  <r_i_glide_ligand_efficiency_ln>  (266) 
-1.04065

>  <r_i_glide_gscore>  (266) 
-3.92596

>  <r_i_glide_lipo>  (266) 
-0.152172

>  <r_i_glide_hbond>  (266) 
-0.2

>  <r_i_glide_metal>  (266) 
-0

>  <r_i_glide_rewards>  (266) 
-1.90711

>  <r_i_glide_evdw>  (266) 
-14.5509

>  <r_i_glide_ecoul>  (266) 
-5.16137

>  <r_i_glide_erotb>  (266) 
0

>  <r_i_glide_esite>  (266) 
-0.164925

>  <r_i_glide_emodel>  (266) 
-25.1915

>  <r_i_glide_energy>  (266) 
-19.7123

>  <r_i_glide_einternal>  (266) 
0

>  <r_i_glide_intrahb_reward>  (266) 
-0

>  <i_i_glide_confnum>  (266) 
1

>  <i_i_glide_posenum>  (266) 
2

>  <r_i_glide_eff_state_penalty>  (266) 
0

>  <ligand_id>  (266) 
63

>  <original_smiles>  (266) 
CC=C1C2=NCCN2C(=O)N2CCCCC12

>  <smiles>  (266) 
[H]C(=C1C2=[N+]([H])C([H])([H])C([H])([H])N2C(=O)N2C([H])([H])C([H])([H])C([H])([H])C([H])([H])C12[H])C([H])([H])[H]

$$$$
63:3:2
     RDKit          3D

 34 36  0  0  1  0  0  0  0  0999 V2000
    2.4828    3.9288    2.7362 C   0  0  0  0  0  0  0  0  0  0  0  0
    2.2235    2.4416    2.8711 C   0  0  0  0  0  0  0  0  0  0  0  0
    1.2564    1.8466    3.6005 C   0  0  0  0  0  0  0  0  0  0  0  0
    1.1716    0.4459    3.7222 C   0  0  0  0  0  0  0  0  0  0  0  0
    1.8656   -0.4577    3.0129 N   0  0  0  0  0  0  0  0  0  0  0  0
    1.5529   -1.8161    3.4682 C   0  0  0  0  0  0  0  0  0  0  0  0
    0.3042   -1.6272    4.3406 C   0  0  0  0  0  0  0  0  0  0  0  0
    0.3118   -0.1940    4.6053 N   0  0  0  0  0  0  0  0  0  0  0  0
   -0.3305    0.4265    5.6169 C   0  0  0  0  0  0  0  0  0  0  0  0
   -0.9910   -0.1951    6.4577 O   0  0  0  0  0  0  0  0  0  0  0  0
   -0.1510    1.7654    5.6576 N   0  0  0  0  0  0  0  0  0  0  0  0
   -0.8359    2.5936    6.6562 C   0  0  0  0  0  0  0  0  0  0  0  0
   -2.1873    3.0180    6.0687 C   0  0  0  0  0  0  0  0  0  0  0  0
   -1.9948    3.7181    4.7130 C   0  0  0  0  0  0  0  0  0  0  0  0
   -1.0322    2.9710    3.7676 C   0  0  0  0  0  0  0  0  0  0  0  0
    0.2656    2.5760    4.5040 C   0  0  2  0  0  0  0  0  0  0  0  0
    3.4579    4.1800    3.1474 H   0  0  0  0  0  0  0  0  0  0  0  0
    1.7254    4.5337    3.2248 H   0  0  0  0  0  0  0  0  0  0  0  0
    2.4757    4.1839    1.6849 H   0  0  0  0  0  0  0  0  0  0  0  0
    2.9322    1.8295    2.3343 H   0  0  0  0  0  0  0  0  0  0  0  0
    1.4308   -2.5391    2.6579 H   0  0  0  0  0  0  0  0  0  0  0  0
    2.3928   -2.1343    4.0860 H   0  0  0  0  0  0  0  0  0  0  0  0
   -0.5863   -1.8481    3.7568 H   0  0  0  0  0  0  0  0  0  0  0  0
    0.3025   -2.2583    5.2299 H   0  0  0  0  0  0  0  0  0  0  0  0
   -0.9657    2.0639    7.5980 H   0  0  0  0  0  0  0  0  0  0  0  0
   -0.2384    3.4785    6.8882 H   0  0  0  0  0  0  0  0  0  0  0  0
   -2.8113    2.1394    5.9485 H   0  0  0  0  0  0  0  0  0  0  0  0
   -2.7184    3.6626    6.7677 H   0  0  0  0  0  0  0  0  0  0  0  0
   -2.9583    3.8209    4.2227 H   0  0  0  0  0  0  0  0  0  0  0  0
   -1.6001    4.7160    4.8904 H   0  0  0  0  0  0  0  0  0  0  0  0
   -1.5241    2.0692    3.3945 H   0  0  0  0  0  0  0  0  0  0  0  0
   -0.8062    3.5885    2.8946 H   0  0  0  0  0  0  0  0  0  0  0  0
    0.7630    3.4696    4.8908 H   0  0  0  0  0  0  0  0  0  0  0  0
    2.4173   -0.2423    2.1905 H   0  0  0  0  0  0  0  0  0  0  0  0
  1  2  1  0
  1 17  1  0
  1 18  1  0
  1 19  1  0
  2  3  2  3
  2 20  1  0
  3 16  1  0
  3  4  1  0
  4  8  1  0
  4  5  2  0
  5  6  1  0
  5 34  1  0
  6  7  1  0
  6 21  1  0
  6 22  1  0
  7  8  1  0
  7 23  1  0
  7 24  1  0
  8  9  1  0
  9 10  2  0
  9 11  1  0
 11 16  1  0
 11 12  1  0
 12 13  1  0
 12 25  1  0
 12 26  1  0
 13 14  1  0
 13 27  1  0
 13 28  1  0
 14 15  1  0
 14 29  1  0
 14 30  1  0
 15 16  1  0
 15 31  1  0
 15 32  1  0
 16 33  1  1
M  CHG  1   5   1
M  END
>  <i_m_ct_stereo_status>  (267) 
1

>  <s_m_source_file>  (267) 
/var/tmp/pbs.5076255.sched01/tmpfes5ahby/80lk6pwr5_.sdf

>  <i_m_source_file_index>  (267) 
23

>  <i_lp_mmshare_version>  (267) 
48012

>  <i_f3d_flags>  (267) 
0

>  <s_epik_input>  (267) 
W0NIMl0xW0NIMl1bQ0gyXVtDSDJdW0NASF0oQ1wyPVtDSF1cW0NIM10pTjFDKD1PKU4oQzI9MylbQ0gyXVtDSDJdTjM=

>  <s_epik_cmdline>  (267) 
J2VwaWtfcHl0aG9uJywgJy1waHQnLCAnMi4wJywgJy1waCcsICc3LjAnLCAnLXRuJywgJzgnLCAnLW1hJywgJzIwMCcsICctaW1hZScsICc8aW5maWxlLm1hZT4nLCAnLW9tYWUnLCAnPG91dGZpbGUubWFlPic=

>  <r_epik_Ionization_Penalty>  (267) 
0.413269

>  <r_epik_Ionization_Penalty_Charging>  (267) 
0.413261

>  <r_epik_Ionization_Penalty_Neutral>  (267) 
7.47238e-06

>  <r_epik_State_Penalty>  (267) 
0.413435

>  <r_epik_Charging_Adjusted_Penalty>  (267) 
0.826696

>  <i_epik_Tot_Q>  (267) 
1

>  <i_epik_Tot_abs_Q>  (267) 
1

>  <s_epik_Chemistry_Notes>  (267) 
This compound has an imine and may undergo hydrolysis.

>  <s_lp_Force_Field>  (267) 
OPLS3e

>  <r_lp_Energy>  (267) 
19.3684

>  <b_lp_Chiralities_Consistent>  (267) 
1

>  <s_lp_Variant>  (267) 
63:0-4

>  <s_i_glide_gridfile>  (267) 
pfpi4k_grid

>  <i_i_glide_lignum>  (267) 
23

>  <i_i_glide_rotatable_bonds>  (267) 
0

>  <r_i_docking_score>  (267) 
-3.69118

>  <r_i_glide_ligand_efficiency>  (267) 
-0.230699

>  <r_i_glide_ligand_efficiency_sa>  (267) 
-0.581325

>  <r_i_glide_ligand_efficiency_ln>  (267) 
-0.978421

>  <r_i_glide_gscore>  (267) 
-3.69118

>  <r_i_glide_lipo>  (267) 
-0.0786656

>  <r_i_glide_hbond>  (267) 
-0.0869893

>  <r_i_glide_metal>  (267) 
-0

>  <r_i_glide_rewards>  (267) 
-1.90711

>  <r_i_glide_evdw>  (267) 
-14.805

>  <r_i_glide_ecoul>  (267) 
-5.48862

>  <r_i_glide_erotb>  (267) 
0

>  <r_i_glide_esite>  (267) 
-0.0548739

>  <r_i_glide_emodel>  (267) 
-25.8992

>  <r_i_glide_energy>  (267) 
-20.2937

>  <r_i_glide_einternal>  (267) 
0

>  <r_i_glide_intrahb_reward>  (267) 
-0

>  <i_i_glide_confnum>  (267) 
1

>  <i_i_glide_posenum>  (267) 
32

>  <r_i_glide_eff_state_penalty>  (267) 
0

>  <ligand_id>  (267) 
63

>  <original_smiles>  (267) 
CC=C1C2=NCCN2C(=O)N2CCCCC12

>  <smiles>  (267) 
[H]C(=C1C2=[N+]([H])C([H])([H])C([H])([H])N2C(=O)N2C([H])([H])C([H])([H])C([H])([H])C([H])([H])C12[H])C([H])([H])[H]

$$$$
64:0:0
     RDKit          3D

 44 48  0  0  1  0  0  0  0  0999 V2000
    5.0323   -2.6709    2.5943 C   0  0  0  0  0  0  0  0  0  0  0  0
    5.0193   -2.7791    1.0524 C   0  0  2  0  0  0  0  0  0  0  0  0
    5.3510   -1.4163    0.4054 C   0  0  0  0  0  0  0  0  0  0  0  0
    6.0020   -1.7149   -0.8354 O   0  0  0  0  0  0  0  0  0  0  0  0
    6.0554   -3.1299   -0.9783 C   0  0  2  0  0  0  0  0  0  0  0  0
    4.7333   -3.5844   -1.6530 C   0  0  0  0  0  0  0  0  0  0  0  0
    3.5908   -3.1711   -0.9030 O   0  0  0  0  0  0  0  0  0  0  0  0
    3.6585   -3.3358    0.5198 C   0  0  1  0  0  0  0  0  0  0  0  0
    3.4072   -4.8116    0.9345 C   0  0  1  0  0  0  0  0  0  0  0  0
    2.1940   -5.3007    0.3559 O   0  0  0  0  0  0  0  0  0  0  0  0
    1.4181   -6.2657    0.9123 C   0  0  0  0  0  0  0  0  0  0  0  0
    0.2123   -6.3051    0.6794 O   0  0  0  0  0  0  0  0  0  0  0  0
    2.1321   -7.2728    1.7227 C   0  0  0  0  0  0  0  0  0  0  0  0
    1.5457   -8.3569    2.2434 C   0  0  0  0  0  0  0  0  0  0  0  0
    2.3145   -9.3925    2.9512 C   0  0  0  0  0  0  0  0  0  0  0  0
    1.6296  -10.3039    3.7746 C   0  0  0  0  0  0  0  0  0  0  0  0
    2.3352  -11.2969    4.4856 C   0  0  0  0  0  0  0  0  0  0  0  0
    3.7382  -11.3794    4.3884 C   0  0  0  0  0  0  0  0  0  0  0  0
    4.4363  -10.4653    3.5793 C   0  0  0  0  0  0  0  0  0  0  0  0
    3.7268   -9.4822    2.8737 C   0  0  0  0  0  0  0  0  0  0  0  0
    4.6272   -5.6958    0.7079 C   0  0  2  0  0  0  0  0  0  0  0  0
    5.5589   -5.6678    1.8208 O   0  0  0  0  0  0  0  0  0  0  0  0
    5.9940   -5.1140    0.5809 C   0  0  2  0  0  0  0  0  0  0  0  0
    6.1567   -3.6158    0.4686 C   0  0  2  0  0  0  0  0  0  0  0  0
    6.0032   -2.3259    2.9475 H   0  0  0  0  0  0  0  0  0  0  0  0
    4.8304   -3.6202    3.0918 H   0  0  0  0  0  0  0  0  0  0  0  0
    4.2857   -1.9584    2.9452 H   0  0  0  0  0  0  0  0  0  0  0  0
    4.4653   -0.7933    0.2619 H   0  0  0  0  0  0  0  0  0  0  0  0
    6.0612   -0.8608    1.0217 H   0  0  0  0  0  0  0  0  0  0  0  0
    6.9126   -3.4403   -1.5762 H   0  0  0  0  0  0  0  0  0  0  0  0
    4.6492   -3.1638   -2.6537 H   0  0  0  0  0  0  0  0  0  0  0  0
    4.7064   -4.6670   -1.7812 H   0  0  0  0  0  0  0  0  0  0  0  0
    2.8452   -2.7311    0.9249 H   0  0  0  0  0  0  0  0  0  0  0  0
    3.2295   -4.7982    2.0097 H   0  0  0  0  0  0  0  0  0  0  0  0
    3.1756   -7.1421    1.8852 H   0  0  0  0  0  0  0  0  0  0  0  0
    0.4779   -8.5254    2.1243 H   0  0  0  0  0  0  0  0  0  0  0  0
    0.5568  -10.2462    3.8659 H   0  0  0  0  0  0  0  0  0  0  0  0
    1.7991  -11.9943    5.1152 H   0  0  0  0  0  0  0  0  0  0  0  0
    4.2727  -12.1457    4.9283 H   0  0  0  0  0  0  0  0  0  0  0  0
    5.5129  -10.5232    3.4967 H   0  0  0  0  0  0  0  0  0  0  0  0
    4.3235   -8.8254    2.2618 H   0  0  0  0  0  0  0  0  0  0  0  0
    4.4735   -6.6700    0.2433 H   0  0  0  0  0  0  0  0  0  0  0  0
    6.7463   -5.7133    0.0835 H   0  0  0  0  0  0  0  0  0  0  0  0
    7.1175   -3.3294    0.9040 H   0  0  0  0  0  0  0  0  0  0  0  0
  2  1  1  1
  1 25  1  0
  1 26  1  0
  1 27  1  0
  2  8  1  0
  2 24  1  0
  2  3  1  0
  3  4  1  0
  3 28  1  0
  3 29  1  0
  4  5  1  0
  5 24  1  0
  5  6  1  0
  5 30  1  6
  6  7  1  0
  6 31  1  0
  6 32  1  0
  7  8  1  0
  8  9  1  0
  8 33  1  1
  9 10  1  0
  9 21  1  0
  9 34  1  1
 10 11  1  0
 11 12  2  0
 11 13  1  0
 13 14  2  3
 13 35  1  0
 14 15  1  0
 14 36  1  0
 15 20  1  0
 15 16  2  0
 16 17  1  0
 16 37  1  0
 17 18  2  0
 17 38  1  0
 18 19  1  0
 18 39  1  0
 19 20  2  0
 19 40  1  0
 20 41  1  0
 21 23  1  0
 21 22  1  0
 21 42  1  6
 22 23  1  0
 23 24  1  0
 23 43  1  6
 24 44  1  1
M  END
>  <i_m_ct_stereo_status>  (268) 
1

>  <s_m_source_file>  (268) 
/var/tmp/pbs.5076255.sched01/tmpfes5ahby/80lk6pwr5_.sdf

>  <i_m_source_file_index>  (268) 
24

>  <i_lp_mmshare_version>  (268) 
48012

>  <i_f3d_flags>  (268) 
0

>  <s_epik_input>  (268) 
W0NIM11bQ0BAXTEyW0NASF0zT1tDSDJdW0NAQEhdKE9bQ0gyXTEpW0NAQEhdMltDQEBIXTRbQ0BASF0oTzQpW0NAQEhdM09DKD1PKS9bQ0hdPVtDSF0vYzVbY0hdW2NIXVtjSF1bY0hdW2NIXTU=

>  <s_epik_cmdline>  (268) 
J2VwaWtfcHl0aG9uJywgJy1waHQnLCAnMi4wJywgJy1waCcsICc3LjAnLCAnLXRuJywgJzgnLCAnLW1hJywgJzIwMCcsICctaW1hZScsICc8aW5maWxlLm1hZT4nLCAnLW9tYWUnLCAnPG91dGZpbGUubWFlPic=

>  <r_lp_tautomer_probability>  (268) 
1

>  <r_epik_Ionization_Penalty>  (268) 
2.50184e-12

>  <r_epik_Ionization_Penalty_Charging>  (268) 
0

>  <r_epik_Ionization_Penalty_Neutral>  (268) 
2.50184e-12

>  <r_epik_State_Penalty>  (268) 
-0

>  <r_epik_Charging_Adjusted_Penalty>  (268) 
0

>  <i_epik_Tot_Q>  (268) 
0

>  <i_epik_Tot_abs_Q>  (268) 
0

>  <s_epik_Chemistry_Notes>  (268) 
This compound has an ester and may undergo hydrolysis at high or low pH.

>  <s_lp_Force_Field>  (268) 
OPLS3e

>  <r_lp_Energy>  (268) 
38.6395

>  <b_lp_Chiralities_Consistent>  (268) 
1

>  <s_lp_Variant>  (268) 
64:0-1

>  <s_i_glide_gridfile>  (268) 
pfpi4k_grid

>  <i_i_glide_lignum>  (268) 
24

>  <i_i_glide_rotatable_bonds>  (268) 
4

>  <r_i_docking_score>  (268) 
-3.45628

>  <r_i_glide_ligand_efficiency>  (268) 
-0.144011

>  <r_i_glide_ligand_efficiency_sa>  (268) 
-0.415401

>  <r_i_glide_ligand_efficiency_ln>  (268) 
-0.827245

>  <r_i_glide_gscore>  (268) 
-3.45628

>  <r_i_glide_lipo>  (268) 
-0.527228

>  <r_i_glide_hbond>  (268) 
-0.233871

>  <r_i_glide_metal>  (268) 
-0

>  <r_i_glide_rewards>  (268) 
-1.17028

>  <r_i_glide_evdw>  (268) 
-26.2975

>  <r_i_glide_ecoul>  (268) 
-4.38888

>  <r_i_glide_erotb>  (268) 
0.522553

>  <r_i_glide_esite>  (268) 
-0.0742447

>  <r_i_glide_emodel>  (268) 
-34.1299

>  <r_i_glide_energy>  (268) 
-30.6864

>  <r_i_glide_einternal>  (268) 
6.35966

>  <r_i_glide_intrahb_reward>  (268) 
-0

>  <i_i_glide_confnum>  (268) 
3

>  <i_i_glide_posenum>  (268) 
2

>  <r_i_glide_eff_state_penalty>  (268) 
0

>  <ligand_id>  (268) 
64

>  <original_smiles>  (268) 
CC12COC3COC1C(OC(=O)C=Cc1ccccc1)C1OC1C32

>  <smiles>  (268) 
[H]C(C(=O)OC1([H])C2([H])OC2([H])C2([H])C3([H])OC([H])([H])C2(C([H])([H])[H])C1([H])OC3([H])[H])=C([H])c1c([H])c([H])c([H])c([H])c1[H]

$$$$
64:0:1
     RDKit          3D

 44 48  0  0  1  0  0  0  0  0999 V2000
    0.2249  -10.2216    2.9405 C   0  0  0  0  0  0  0  0  0  0  0  0
    0.1445   -8.6899    3.1407 C   0  0  2  0  0  0  0  0  0  0  0  0
   -1.3111   -8.2044    3.0166 C   0  0  0  0  0  0  0  0  0  0  0  0
   -1.3961   -7.0387    3.8422 O   0  0  0  0  0  0  0  0  0  0  0  0
   -0.1298   -6.8267    4.4610 C   0  0  2  0  0  0  0  0  0  0  0  0
    0.6932   -5.9269    3.5006 C   0  0  0  0  0  0  0  0  0  0  0  0
    0.7615   -6.4979    2.1955 O   0  0  0  0  0  0  0  0  0  0  0  0
    1.0570   -7.9020    2.1529 C   0  0  1  0  0  0  0  0  0  0  0  0
    2.5516   -8.1996    2.3948 C   0  0  1  0  0  0  0  0  0  0  0  0
    3.4042   -7.4129    1.5654 O   0  0  0  0  0  0  0  0  0  0  0  0
    4.7378   -7.6667    1.4124 C   0  0  0  0  0  0  0  0  0  0  0  0
    5.4747   -6.8310    0.8818 O   0  0  0  0  0  0  0  0  0  0  0  0
    5.2153   -8.9710    1.9158 C   0  0  0  0  0  0  0  0  0  0  0  0
    6.4843   -9.1807    2.3173 C   0  0  0  0  0  0  0  0  0  0  0  0
    6.9368  -10.4672    2.8606 C   0  0  0  0  0  0  0  0  0  0  0  0
    6.2359  -11.6808    2.6726 C   0  0  0  0  0  0  0  0  0  0  0  0
    6.7121  -12.8847    3.2207 C   0  0  0  0  0  0  0  0  0  0  0  0
    7.8818  -12.8810    3.9988 C   0  0  0  0  0  0  0  0  0  0  0  0
    8.5592  -11.6716    4.2359 C   0  0  0  0  0  0  0  0  0  0  0  0
    8.0764  -10.4746    3.6837 C   0  0  0  0  0  0  0  0  0  0  0  0
    2.9481   -8.1602    3.8778 C   0  0  2  0  0  0  0  0  0  0  0  0
    2.6857   -9.3769    4.5895 O   0  0  0  0  0  0  0  0  0  0  0  0
    1.9244   -8.2355    4.9397 C   0  0  2  0  0  0  0  0  0  0  0  0
    0.4498   -8.2332    4.5656 C   0  0  2  0  0  0  0  0  0  0  0  0
   -0.3856  -10.7269    3.6852 H   0  0  0  0  0  0  0  0  0  0  0  0
    1.2308  -10.6290    3.0414 H   0  0  0  0  0  0  0  0  0  0  0  0
   -0.1431  -10.5202    1.9611 H   0  0  0  0  0  0  0  0  0  0  0  0
   -1.5888   -7.9854    1.9846 H   0  0  0  0  0  0  0  0  0  0  0  0
   -2.0099   -8.9504    3.4025 H   0  0  0  0  0  0  0  0  0  0  0  0
   -0.2306   -6.3525    5.4347 H   0  0  0  0  0  0  0  0  0  0  0  0
    0.2216   -4.9508    3.4031 H   0  0  0  0  0  0  0  0  0  0  0  0
    1.7015   -5.7453    3.8787 H   0  0  0  0  0  0  0  0  0  0  0  0
    0.8374   -8.2251    1.1389 H   0  0  0  0  0  0  0  0  0  0  0  0
    2.6287   -9.2320    2.0673 H   0  0  0  0  0  0  0  0  0  0  0  0
    4.5285   -9.7927    1.9904 H   0  0  0  0  0  0  0  0  0  0  0  0
    7.2099   -8.3804    2.2550 H   0  0  0  0  0  0  0  0  0  0  0  0
    5.3265  -11.7326    2.0760 H   0  0  0  0  0  0  0  0  0  0  0  0
    6.1758  -13.8160    3.0393 H   0  0  0  0  0  0  0  0  0  0  0  0
    8.2601  -13.8100    4.4186 H   0  0  0  0  0  0  0  0  0  0  0  0
    9.4529  -11.6527    4.8501 H   0  0  0  0  0  0  0  0  0  0  0  0
    8.5928   -9.5403    3.8731 H   0  0  0  0  0  0  0  0  0  0  0  0
    3.9155   -7.7108    4.1258 H   0  0  0  0  0  0  0  0  0  0  0  0
    2.1686   -7.8006    5.9097 H   0  0  0  0  0  0  0  0  0  0  0  0
   -0.0953   -8.8343    5.2975 H   0  0  0  0  0  0  0  0  0  0  0  0
  2  1  1  1
  1 25  1  0
  1 26  1  0
  1 27  1  0
  2  8  1  0
  2 24  1  0
  2  3  1  0
  3  4  1  0
  3 28  1  0
  3 29  1  0
  4  5  1  0
  5 24  1  0
  5  6  1  0
  5 30  1  1
  6  7  1  0
  6 31  1  0
  6 32  1  0
  7  8  1  0
  8  9  1  0
  8 33  1  6
  9 10  1  0
  9 21  1  0
  9 34  1  6
 10 11  1  0
 11 12  2  0
 11 13  1  0
 13 14  2  3
 13 35  1  0
 14 15  1  0
 14 36  1  0
 15 20  1  0
 15 16  2  0
 16 17  1  0
 16 37  1  0
 17 18  2  0
 17 38  1  0
 18 19  1  0
 18 39  1  0
 19 20  2  0
 19 40  1  0
 20 41  1  0
 21 23  1  0
 21 22  1  0
 21 42  1  6
 22 23  1  0
 23 24  1  0
 23 43  1  1
 24 44  1  1
M  END
>  <i_m_ct_stereo_status>  (269) 
1

>  <s_m_source_file>  (269) 
/var/tmp/pbs.5076255.sched01/tmpfes5ahby/80lk6pwr5_.sdf

>  <i_m_source_file_index>  (269) 
24

>  <i_lp_mmshare_version>  (269) 
48012

>  <i_f3d_flags>  (269) 
0

>  <s_epik_input>  (269) 
W0NIM11bQ0BAXTEyW0NASF0zT1tDSDJdW0NAQEhdKE9bQ0gyXTEpW0NAQEhdMltDQEBIXTRbQ0BASF0oTzQpW0NAQEhdM09DKD1PKS9bQ0hdPVtDSF0vYzVbY0hdW2NIXVtjSF1bY0hdW2NIXTU=

>  <s_epik_cmdline>  (269) 
J2VwaWtfcHl0aG9uJywgJy1waHQnLCAnMi4wJywgJy1waCcsICc3LjAnLCAnLXRuJywgJzgnLCAnLW1hJywgJzIwMCcsICctaW1hZScsICc8aW5maWxlLm1hZT4nLCAnLW9tYWUnLCAnPG91dGZpbGUubWFlPic=

>  <r_lp_tautomer_probability>  (269) 
1

>  <r_epik_Ionization_Penalty>  (269) 
2.50184e-12

>  <r_epik_Ionization_Penalty_Charging>  (269) 
0

>  <r_epik_Ionization_Penalty_Neutral>  (269) 
2.50184e-12

>  <r_epik_State_Penalty>  (269) 
-0

>  <r_epik_Charging_Adjusted_Penalty>  (269) 
0

>  <i_epik_Tot_Q>  (269) 
0

>  <i_epik_Tot_abs_Q>  (269) 
0

>  <s_epik_Chemistry_Notes>  (269) 
This compound has an ester and may undergo hydrolysis at high or low pH.

>  <s_lp_Force_Field>  (269) 
OPLS3e

>  <r_lp_Energy>  (269) 
38.6395

>  <b_lp_Chiralities_Consistent>  (269) 
1

>  <s_lp_Variant>  (269) 
64:0-1

>  <s_i_glide_gridfile>  (269) 
pfpi4k_grid

>  <i_i_glide_lignum>  (269) 
24

>  <i_i_glide_rotatable_bonds>  (269) 
4

>  <r_i_docking_score>  (269) 
-2.72471

>  <r_i_glide_ligand_efficiency>  (269) 
-0.11353

>  <r_i_glide_ligand_efficiency_sa>  (269) 
-0.327476

>  <r_i_glide_ligand_efficiency_ln>  (269) 
-0.652149

>  <r_i_glide_gscore>  (269) 
-2.72471

>  <r_i_glide_lipo>  (269) 
-0.0958677

>  <r_i_glide_hbond>  (269) 
-0.0284136

>  <r_i_glide_metal>  (269) 
-0

>  <r_i_glide_rewards>  (269) 
-1.26225

>  <r_i_glide_evdw>  (269) 
-25.0618

>  <r_i_glide_ecoul>  (269) 
-4.05099

>  <r_i_glide_erotb>  (269) 
0.522553

>  <r_i_glide_esite>  (269) 
0

>  <r_i_glide_emodel>  (269) 
-31.4588

>  <r_i_glide_energy>  (269) 
-29.1128

>  <r_i_glide_einternal>  (269) 
5.90351

>  <r_i_glide_intrahb_reward>  (269) 
-0

>  <i_i_glide_confnum>  (269) 
3

>  <i_i_glide_posenum>  (269) 
20

>  <r_i_glide_eff_state_penalty>  (269) 
0

>  <ligand_id>  (269) 
64

>  <original_smiles>  (269) 
CC12COC3COC1C(OC(=O)C=Cc1ccccc1)C1OC1C32

>  <smiles>  (269) 
[H]C(C(=O)OC1([H])C2([H])OC2([H])C2([H])C3([H])OC([H])([H])C2(C([H])([H])[H])C1([H])OC3([H])[H])=C([H])c1c([H])c([H])c([H])c([H])c1[H]

$$$$
64:0:2
     RDKit          3D

 44 48  0  0  1  0  0  0  0  0999 V2000
    0.0912   -7.0590    1.0226 C   0  0  0  0  0  0  0  0  0  0  0  0
    0.2932   -7.4489    2.5062 C   0  0  2  0  0  0  0  0  0  0  0  0
   -1.0693   -7.5870    3.2035 C   0  0  0  0  0  0  0  0  0  0  0  0
   -0.8733   -8.5405    4.2398 O   0  0  0  0  0  0  0  0  0  0  0  0
    0.4735   -8.9920    4.1995 C   0  0  2  0  0  0  0  0  0  0  0  0
    1.2936   -8.0340    5.1002 C   0  0  0  0  0  0  0  0  0  0  0  0
    1.1253   -6.6790    4.6924 O   0  0  0  0  0  0  0  0  0  0  0  0
    1.2032   -6.4495    3.2862 C   0  0  1  0  0  0  0  0  0  0  0  0
    2.6519   -6.4990    2.7857 C   0  0  1  0  0  0  0  0  0  0  0  0
    3.5124   -5.6452    3.5446 O   0  0  0  0  0  0  0  0  0  0  0  0
    4.0491   -4.4740    3.1149 C   0  0  0  0  0  0  0  0  0  0  0  0
    4.7506   -3.7855    3.8663 O   0  0  0  0  0  0  0  0  0  0  0  0
    3.7552   -4.0846    1.7098 C   0  0  0  0  0  0  0  0  0  0  0  0
    4.1939   -2.9767    1.1379 C   0  0  0  0  0  0  0  0  0  0  0  0
    3.8614   -2.6427   -0.2697 C   0  0  0  0  0  0  0  0  0  0  0  0
    3.0233   -3.4426   -1.1018 C   0  0  0  0  0  0  0  0  0  0  0  0
    2.7619   -3.0513   -2.4316 C   0  0  0  0  0  0  0  0  0  0  0  0
    3.3354   -1.8734   -2.9395 C   0  0  0  0  0  0  0  0  0  0  0  0
    4.1717   -1.0872   -2.1177 C   0  0  0  0  0  0  0  0  0  0  0  0
    4.4297   -1.4700   -0.7947 C   0  0  0  0  0  0  0  0  0  0  0  0
    3.2488   -7.8659    2.5890 C   0  0  2  0  0  0  0  0  0  0  0  0
    2.8915   -8.4550    1.3180 O   0  0  0  0  0  0  0  0  0  0  0  0
    2.3323   -9.0440    2.4831 C   0  0  2  0  0  0  0  0  0  0  0  0
    0.8435   -8.8557    2.7244 C   0  0  2  0  0  0  0  0  0  0  0  0
   -0.5192   -7.7979    0.5030 H   0  0  0  0  0  0  0  0  0  0  0  0
    1.0233   -6.9822    0.4672 H   0  0  0  0  0  0  0  0  0  0  0  0
   -0.4341   -6.1159    0.9210 H   0  0  0  0  0  0  0  0  0  0  0  0
   -1.4427   -6.6518    3.6098 H   0  0  0  0  0  0  0  0  0  0  0  0
   -1.8322   -7.9709    2.5287 H   0  0  0  0  0  0  0  0  0  0  0  0
    0.5694  -10.0173    4.5460 H   0  0  0  0  0  0  0  0  0  0  0  0
    0.9645   -8.1050    6.1329 H   0  0  0  0  0  0  0  0  0  0  0  0
    2.3531   -8.2867    5.1010 H   0  0  0  0  0  0  0  0  0  0  0  0
    0.8316   -5.4375    3.1248 H   0  0  0  0  0  0  0  0  0  0  0  0
    2.4918   -6.2297    1.7650 H   0  0  0  0  0  0  0  0  0  0  0  0
    3.1580   -4.7046    1.0685 H   0  0  0  0  0  0  0  0  0  0  0  0
    4.8198   -2.2731    1.6974 H   0  0  0  0  0  0  0  0  0  0  0  0
    2.5531   -4.3636   -0.7833 H   0  0  0  0  0  0  0  0  0  0  0  0
    2.1173   -3.6609   -3.0544 H   0  0  0  0  0  0  0  0  0  0  0  0
    3.1283   -1.5633   -3.9532 H   0  0  0  0  0  0  0  0  0  0  0  0
    4.6064   -0.1714   -2.4889 H   0  0  0  0  0  0  0  0  0  0  0  0
    5.0622   -0.8704   -0.1520 H   0  0  0  0  0  0  0  0  0  0  0  0
    4.3109   -7.9855    2.7902 H   0  0  0  0  0  0  0  0  0  0  0  0
    2.7497  -10.0154    2.7183 H   0  0  0  0  0  0  0  0  0  0  0  0
    0.2979   -9.5806    2.1184 H   0  0  0  0  0  0  0  0  0  0  0  0
  2  1  1  6
  1 25  1  0
  1 26  1  0
  1 27  1  0
  2  8  1  0
  2 24  1  0
  2  3  1  0
  3  4  1  0
  3 28  1  0
  3 29  1  0
  4  5  1  0
  5 24  1  0
  5  6  1  0
  5 30  1  1
  6  7  1  0
  6 31  1  0
  6 32  1  0
  7  8  1  0
  8  9  1  0
  8 33  1  1
  9 10  1  0
  9 21  1  0
  9 34  1  6
 10 11  1  0
 11 12  2  0
 11 13  1  0
 13 14  2  3
 13 35  1  0
 14 15  1  0
 14 36  1  0
 15 20  1  0
 15 16  2  0
 16 17  1  0
 16 37  1  0
 17 18  2  0
 17 38  1  0
 18 19  1  0
 18 39  1  0
 19 20  2  0
 19 40  1  0
 20 41  1  0
 21 23  1  0
 21 22  1  0
 21 42  1  1
 22 23  1  0
 23 24  1  0
 23 43  1  1
 24 44  1  6
M  END
>  <i_m_ct_stereo_status>  (270) 
1

>  <s_m_source_file>  (270) 
/var/tmp/pbs.5076255.sched01/tmpfes5ahby/80lk6pwr5_.sdf

>  <i_m_source_file_index>  (270) 
24

>  <i_lp_mmshare_version>  (270) 
48012

>  <i_f3d_flags>  (270) 
0

>  <s_epik_input>  (270) 
W0NIM11bQ0BAXTEyW0NASF0zT1tDSDJdW0NAQEhdKE9bQ0gyXTEpW0NAQEhdMltDQEBIXTRbQ0BASF0oTzQpW0NAQEhdM09DKD1PKS9bQ0hdPVtDSF0vYzVbY0hdW2NIXVtjSF1bY0hdW2NIXTU=

>  <s_epik_cmdline>  (270) 
J2VwaWtfcHl0aG9uJywgJy1waHQnLCAnMi4wJywgJy1waCcsICc3LjAnLCAnLXRuJywgJzgnLCAnLW1hJywgJzIwMCcsICctaW1hZScsICc8aW5maWxlLm1hZT4nLCAnLW9tYWUnLCAnPG91dGZpbGUubWFlPic=

>  <r_lp_tautomer_probability>  (270) 
1

>  <r_epik_Ionization_Penalty>  (270) 
2.50184e-12

>  <r_epik_Ionization_Penalty_Charging>  (270) 
0

>  <r_epik_Ionization_Penalty_Neutral>  (270) 
2.50184e-12

>  <r_epik_State_Penalty>  (270) 
-0

>  <r_epik_Charging_Adjusted_Penalty>  (270) 
0

>  <i_epik_Tot_Q>  (270) 
0

>  <i_epik_Tot_abs_Q>  (270) 
0

>  <s_epik_Chemistry_Notes>  (270) 
This compound has an ester and may undergo hydrolysis at high or low pH.

>  <s_lp_Force_Field>  (270) 
OPLS3e

>  <r_lp_Energy>  (270) 
38.6395

>  <b_lp_Chiralities_Consistent>  (270) 
1

>  <s_lp_Variant>  (270) 
64:0-1

>  <s_i_glide_gridfile>  (270) 
pfpi4k_grid

>  <i_i_glide_lignum>  (270) 
24

>  <i_i_glide_rotatable_bonds>  (270) 
4

>  <r_i_docking_score>  (270) 
-2.15415

>  <r_i_glide_ligand_efficiency>  (270) 
-0.0897563

>  <r_i_glide_ligand_efficiency_sa>  (270) 
-0.258902

>  <r_i_glide_ligand_efficiency_ln>  (270) 
-0.515587

>  <r_i_glide_gscore>  (270) 
-2.15415

>  <r_i_glide_lipo>  (270) 
-0.0941404

>  <r_i_glide_hbond>  (270) 
0

>  <r_i_glide_metal>  (270) 
-0

>  <r_i_glide_rewards>  (270) 
-1.17028

>  <r_i_glide_evdw>  (270) 
-28.1599

>  <r_i_glide_ecoul>  (270) 
-0.0285983

>  <r_i_glide_erotb>  (270) 
0.522553

>  <r_i_glide_esite>  (270) 
0

>  <r_i_glide_emodel>  (270) 
-30.2375

>  <r_i_glide_energy>  (270) 
-28.1885

>  <r_i_glide_einternal>  (270) 
3.15343

>  <r_i_glide_intrahb_reward>  (270) 
-0

>  <i_i_glide_confnum>  (270) 
3

>  <i_i_glide_posenum>  (270) 
25

>  <r_i_glide_eff_state_penalty>  (270) 
0

>  <ligand_id>  (270) 
64

>  <original_smiles>  (270) 
CC12COC3COC1C(OC(=O)C=Cc1ccccc1)C1OC1C32

>  <smiles>  (270) 
[H]C(C(=O)OC1([H])C2([H])OC2([H])C2([H])C3([H])OC([H])([H])C2(C([H])([H])[H])C1([H])OC3([H])[H])=C([H])c1c([H])c([H])c([H])c([H])c1[H]

$$$$
64:1:0
     RDKit          3D

 44 48  0  0  1  0  0  0  0  0999 V2000
    1.7138   -9.7148    2.3534 C   0  0  0  0  0  0  0  0  0  0  0  0
    0.5315   -8.8642    2.8722 C   0  0  2  0  0  0  0  0  0  0  0  0
   -0.8157   -9.3472    2.3027 C   0  0  0  0  0  0  0  0  0  0  0  0
   -1.8044   -9.0133    3.2622 O   0  0  0  0  0  0  0  0  0  0  0  0
   -1.1531   -8.4205    4.3721 C   0  0  2  0  0  0  0  0  0  0  0  0
   -1.1284   -6.9125    4.0809 C   0  0  0  0  0  0  0  0  0  0  0  0
   -0.4986   -6.6531    2.8232 O   0  0  0  0  0  0  0  0  0  0  0  0
    0.7237   -7.3559    2.5636 C   0  0  1  0  0  0  0  0  0  0  0  0
    1.9219   -6.7307    3.3342 C   0  0  1  0  0  0  0  0  0  0  0  0
    1.9270   -5.3132    3.1960 O   0  0  0  0  0  0  0  0  0  0  0  0
    2.6061   -4.7257    2.1883 C   0  0  0  0  0  0  0  0  0  0  0  0
    3.2781   -5.3473    1.3692 O   0  0  0  0  0  0  0  0  0  0  0  0
    2.3432   -3.2779    2.1432 C   0  0  0  0  0  0  0  0  0  0  0  0
    2.8808   -2.3719    1.2995 C   0  0  0  0  0  0  0  0  0  0  0  0
    3.9398   -2.4989    0.2724 C   0  0  0  0  0  0  0  0  0  0  0  0
    3.8376   -1.7587   -0.9292 C   0  0  0  0  0  0  0  0  0  0  0  0
    4.7876   -1.9136   -1.9617 C   0  0  0  0  0  0  0  0  0  0  0  0
    5.8506   -2.8235   -1.8015 C   0  0  0  0  0  0  0  0  0  0  0  0
    5.9721   -3.5424   -0.5999 C   0  0  0  0  0  0  0  0  0  0  0  0
    5.0467   -3.3593    0.4414 C   0  0  0  0  0  0  0  0  0  0  0  0
    1.9905   -7.1180    4.7938 C   0  0  2  0  0  0  0  0  0  0  0  0
    2.6058   -8.4076    5.0387 O   0  0  0  0  0  0  0  0  0  0  0  0
    1.2055   -8.2958    5.2946 C   0  0  2  0  0  0  0  0  0  0  0  0
    0.2509   -9.0194    4.3658 C   0  0  2  0  0  0  0  0  0  0  0  0
    1.5677  -10.7695    2.5939 H   0  0  0  0  0  0  0  0  0  0  0  0
    2.6749   -9.4168    2.7716 H   0  0  0  0  0  0  0  0  0  0  0  0
    1.8066   -9.6356    1.2712 H   0  0  0  0  0  0  0  0  0  0  0  0
   -1.0665   -8.8742    1.3493 H   0  0  0  0  0  0  0  0  0  0  0  0
   -0.8091  -10.4313    2.1643 H   0  0  0  0  0  0  0  0  0  0  0  0
   -1.6988   -8.6483    5.2822 H   0  0  0  0  0  0  0  0  0  0  0  0
   -2.1530   -6.5484    4.0268 H   0  0  0  0  0  0  0  0  0  0  0  0
   -0.6363   -6.3482    4.8756 H   0  0  0  0  0  0  0  0  0  0  0  0
    0.9148   -7.2304    1.4982 H   0  0  0  0  0  0  0  0  0  0  0  0
    2.8385   -7.1384    2.9084 H   0  0  0  0  0  0  0  0  0  0  0  0
    1.6148   -2.9152    2.8587 H   0  0  0  0  0  0  0  0  0  0  0  0
    2.4986   -1.3701    1.4064 H   0  0  0  0  0  0  0  0  0  0  0  0
    3.0216   -1.0675   -1.0767 H   0  0  0  0  0  0  0  0  0  0  0  0
    4.6886   -1.3432   -2.8706 H   0  0  0  0  0  0  0  0  0  0  0  0
    6.5689   -2.9718   -2.5962 H   0  0  0  0  0  0  0  0  0  0  0  0
    6.7754   -4.2499   -0.4650 H   0  0  0  0  0  0  0  0  0  0  0  0
    5.1707   -3.9041    1.3655 H   0  0  0  0  0  0  0  0  0  0  0  0
    2.3247   -6.3505    5.4930 H   0  0  0  0  0  0  0  0  0  0  0  0
    0.9433   -8.3067    6.3501 H   0  0  0  0  0  0  0  0  0  0  0  0
    0.2183  -10.0724    4.6435 H   0  0  0  0  0  0  0  0  0  0  0  0
  2  1  1  6
  1 25  1  0
  1 26  1  0
  1 27  1  0
  2  8  1  0
  2 24  1  0
  2  3  1  0
  3  4  1  0
  3 28  1  0
  3 29  1  0
  4  5  1  0
  5 24  1  0
  5  6  1  0
  5 30  1  1
  6  7  1  0
  6 31  1  0
  6 32  1  0
  7  8  1  0
  8  9  1  0
  8 33  1  6
  9 10  1  0
  9 21  1  0
  9 34  1  6
 10 11  1  0
 11 12  2  0
 11 13  1  0
 13 14  2  3
 13 35  1  0
 14 15  1  0
 14 36  1  0
 15 20  1  0
 15 16  2  0
 16 17  1  0
 16 37  1  0
 17 18  2  0
 17 38  1  0
 18 19  1  0
 18 39  1  0
 19 20  2  0
 19 40  1  0
 20 41  1  0
 21 23  1  0
 21 22  1  0
 21 42  1  1
 22 23  1  0
 23 24  1  0
 23 43  1  1
 24 44  1  1
M  END
>  <i_m_ct_stereo_status>  (271) 
1

>  <s_m_source_file>  (271) 
/var/tmp/pbs.5076255.sched01/tmpfes5ahby/80lk6pwr5_.sdf

>  <i_m_source_file_index>  (271) 
25

>  <i_lp_mmshare_version>  (271) 
48012

>  <i_f3d_flags>  (271) 
0

>  <s_epik_input>  (271) 
W0NIM11bQ0BAXTEyW0NASF0zT1tDSDJdW0NAQEhdKE9bQ0gyXTEpW0NAQEhdMltDQEBIXTRbQ0BASF0oTzQpW0NAQEhdM09DKD1PKS9bQ0hdPVtDSF0vYzVbY0hdW2NIXVtjSF1bY0hdW2NIXTU=

>  <s_epik_cmdline>  (271) 
J2VwaWtfcHl0aG9uJywgJy1waHQnLCAnMi4wJywgJy1waCcsICc3LjAnLCAnLXRuJywgJzgnLCAnLW1hJywgJzIwMCcsICctaW1hZScsICc8aW5maWxlLm1hZT4nLCAnLW9tYWUnLCAnPG91dGZpbGUubWFlPic=

>  <r_lp_tautomer_probability>  (271) 
1

>  <r_epik_Ionization_Penalty>  (271) 
2.50184e-12

>  <r_epik_Ionization_Penalty_Charging>  (271) 
0

>  <r_epik_Ionization_Penalty_Neutral>  (271) 
2.50184e-12

>  <r_epik_State_Penalty>  (271) 
-0

>  <r_epik_Charging_Adjusted_Penalty>  (271) 
0

>  <i_epik_Tot_Q>  (271) 
0

>  <i_epik_Tot_abs_Q>  (271) 
0

>  <s_epik_Chemistry_Notes>  (271) 
This compound has an ester and may undergo hydrolysis at high or low pH.

>  <s_lp_Force_Field>  (271) 
OPLS3e

>  <r_lp_Energy>  (271) 
43.8506

>  <b_lp_Chiralities_Consistent>  (271) 
1

>  <s_lp_Variant>  (271) 
64:0-2

>  <s_i_glide_gridfile>  (271) 
pfpi4k_grid

>  <i_i_glide_lignum>  (271) 
25

>  <i_i_glide_rotatable_bonds>  (271) 
4

>  <r_i_docking_score>  (271) 
-2.95883

>  <r_i_glide_ligand_efficiency>  (271) 
-0.123285

>  <r_i_glide_ligand_efficiency_sa>  (271) 
-0.355614

>  <r_i_glide_ligand_efficiency_ln>  (271) 
-0.708184

>  <r_i_glide_gscore>  (271) 
-2.95883

>  <r_i_glide_lipo>  (271) 
-0.44973

>  <r_i_glide_hbond>  (271) 
-0.16

>  <r_i_glide_metal>  (271) 
-0

>  <r_i_glide_rewards>  (271) 
-1.17028

>  <r_i_glide_evdw>  (271) 
-24.5495

>  <r_i_glide_ecoul>  (271) 
-3.09916

>  <r_i_glide_erotb>  (271) 
0.522553

>  <r_i_glide_esite>  (271) 
-0.00902517

>  <r_i_glide_emodel>  (271) 
-31.5661

>  <r_i_glide_energy>  (271) 
-27.6487

>  <r_i_glide_einternal>  (271) 
2.2704

>  <r_i_glide_intrahb_reward>  (271) 
-0

>  <i_i_glide_confnum>  (271) 
4

>  <i_i_glide_posenum>  (271) 
33

>  <r_i_glide_eff_state_penalty>  (271) 
0

>  <ligand_id>  (271) 
64

>  <original_smiles>  (271) 
CC12COC3COC1C(OC(=O)C=Cc1ccccc1)C1OC1C32

>  <smiles>  (271) 
[H]C(C(=O)OC1([H])C2([H])OC2([H])C2([H])C3([H])OC([H])([H])C2(C([H])([H])[H])C1([H])OC3([H])[H])=C([H])c1c([H])c([H])c([H])c([H])c1[H]

$$$$
64:1:1
     RDKit          3D

 44 48  0  0  1  0  0  0  0  0999 V2000
   -0.5812   -7.6395    2.0806 C   0  0  0  0  0  0  0  0  0  0  0  0
    0.3285   -7.3875    3.2992 C   0  0  2  0  0  0  0  0  0  0  0  0
   -0.5159   -7.1265    4.5605 C   0  0  0  0  0  0  0  0  0  0  0  0
    0.2685   -7.5846    5.6608 O   0  0  0  0  0  0  0  0  0  0  0  0
    1.4939   -8.1017    5.1562 C   0  0  2  0  0  0  0  0  0  0  0  0
    2.4894   -6.9183    5.0859 C   0  0  0  0  0  0  0  0  0  0  0  0
    1.9769   -5.8544    4.2810 O   0  0  0  0  0  0  0  0  0  0  0  0
    1.3375   -6.2304    3.0586 C   0  0  1  0  0  0  0  0  0  0  0  0
    2.3786   -6.5656    1.9595 C   0  0  1  0  0  0  0  0  0  0  0  0
    3.4056   -5.5908    1.8870 O   0  0  0  0  0  0  0  0  0  0  0  0
    3.3526   -4.5658    0.9950 C   0  0  0  0  0  0  0  0  0  0  0  0
    2.4022   -4.3577    0.2591 O   0  0  0  0  0  0  0  0  0  0  0  0
    4.5693   -3.7520    1.0586 C   0  0  0  0  0  0  0  0  0  0  0  0
    4.9808   -2.8173    0.1615 C   0  0  0  0  0  0  0  0  0  0  0  0
    4.4383   -2.3931   -1.1484 C   0  0  0  0  0  0  0  0  0  0  0  0
    4.6286   -1.0614   -1.6018 C   0  0  0  0  0  0  0  0  0  0  0  0
    4.0529   -0.6276   -2.8143 C   0  0  0  0  0  0  0  0  0  0  0  0
    3.2536   -1.4952   -3.5800 C   0  0  0  0  0  0  0  0  0  0  0  0
    3.0730   -2.8262   -3.1418 C   0  0  0  0  0  0  0  0  0  0  0  0
    3.6951   -3.2549   -1.9633 C   0  0  0  0  0  0  0  0  0  0  0  0
    2.9935   -7.9366    2.0725 C   0  0  2  0  0  0  0  0  0  0  0  0
    2.1889   -8.9852    1.5113 O   0  0  0  0  0  0  0  0  0  0  0  0
    2.3375   -8.9726    2.9237 C   0  0  2  0  0  0  0  0  0  0  0  0
    1.1207   -8.6126    3.7641 C   0  0  2  0  0  0  0  0  0  0  0  0
   -1.2503   -8.4821    2.2554 H   0  0  0  0  0  0  0  0  0  0  0  0
   -0.0189   -7.8561    1.1717 H   0  0  0  0  0  0  0  0  0  0  0  0
   -1.1943   -6.7655    1.8712 H   0  0  0  0  0  0  0  0  0  0  0  0
   -0.7873   -6.0775    4.6759 H   0  0  0  0  0  0  0  0  0  0  0  0
   -1.4356   -7.7076    4.5429 H   0  0  0  0  0  0  0  0  0  0  0  0
    1.8811   -8.8965    5.7947 H   0  0  0  0  0  0  0  0  0  0  0  0
    2.6805   -6.5255    6.0839 H   0  0  0  0  0  0  0  0  0  0  0  0
    3.4561   -7.2339    4.6926 H   0  0  0  0  0  0  0  0  0  0  0  0
    0.7877   -5.3457    2.7404 H   0  0  0  0  0  0  0  0  0  0  0  0
    1.8465   -6.5974    1.0129 H   0  0  0  0  0  0  0  0  0  0  0  0
    5.2029   -3.9160    1.9163 H   0  0  0  0  0  0  0  0  0  0  0  0
    5.8840   -2.3020    0.4500 H   0  0  0  0  0  0  0  0  0  0  0  0
    5.1978   -0.3658   -0.9964 H   0  0  0  0  0  0  0  0  0  0  0  0
    4.2030    0.3894   -3.1396 H   0  0  0  0  0  0  0  0  0  0  0  0
    2.7737   -1.1563   -4.4960 H   0  0  0  0  0  0  0  0  0  0  0  0
    2.4407   -3.5059   -3.6913 H   0  0  0  0  0  0  0  0  0  0  0  0
    3.5613   -4.2681   -1.6312 H   0  0  0  0  0  0  0  0  0  0  0  0
    4.0508   -8.0223    1.8204 H   0  0  0  0  0  0  0  0  0  0  0  0
    2.9665   -9.7704    3.3117 H   0  0  0  0  0  0  0  0  0  0  0  0
    0.4787   -9.4898    3.8368 H   0  0  0  0  0  0  0  0  0  0  0  0
  2  1  1  6
  1 25  1  0
  1 26  1  0
  1 27  1  0
  2  8  1  0
  2 24  1  0
  2  3  1  0
  3  4  1  0
  3 28  1  0
  3 29  1  0
  4  5  1  0
  5 24  1  0
  5  6  1  0
  5 30  1  1
  6  7  1  0
  6 31  1  0
  6 32  1  0
  7  8  1  0
  8  9  1  0
  8 33  1  6
  9 10  1  0
  9 21  1  0
  9 34  1  6
 10 11  1  0
 11 12  2  0
 11 13  1  0
 13 14  2  3
 13 35  1  0
 14 15  1  0
 14 36  1  0
 15 20  1  0
 15 16  2  0
 16 17  1  0
 16 37  1  0
 17 18  2  0
 17 38  1  0
 18 19  1  0
 18 39  1  0
 19 20  2  0
 19 40  1  0
 20 41  1  0
 21 23  1  0
 21 22  1  0
 21 42  1  6
 22 23  1  0
 23 24  1  0
 23 43  1  1
 24 44  1  1
M  END
>  <i_m_ct_stereo_status>  (272) 
1

>  <s_m_source_file>  (272) 
/var/tmp/pbs.5076255.sched01/tmpfes5ahby/80lk6pwr5_.sdf

>  <i_m_source_file_index>  (272) 
25

>  <i_lp_mmshare_version>  (272) 
48012

>  <i_f3d_flags>  (272) 
0

>  <s_epik_input>  (272) 
W0NIM11bQ0BAXTEyW0NASF0zT1tDSDJdW0NAQEhdKE9bQ0gyXTEpW0NAQEhdMltDQEBIXTRbQ0BASF0oTzQpW0NAQEhdM09DKD1PKS9bQ0hdPVtDSF0vYzVbY0hdW2NIXVtjSF1bY0hdW2NIXTU=

>  <s_epik_cmdline>  (272) 
J2VwaWtfcHl0aG9uJywgJy1waHQnLCAnMi4wJywgJy1waCcsICc3LjAnLCAnLXRuJywgJzgnLCAnLW1hJywgJzIwMCcsICctaW1hZScsICc8aW5maWxlLm1hZT4nLCAnLW9tYWUnLCAnPG91dGZpbGUubWFlPic=

>  <r_lp_tautomer_probability>  (272) 
1

>  <r_epik_Ionization_Penalty>  (272) 
2.50184e-12

>  <r_epik_Ionization_Penalty_Charging>  (272) 
0

>  <r_epik_Ionization_Penalty_Neutral>  (272) 
2.50184e-12

>  <r_epik_State_Penalty>  (272) 
-0

>  <r_epik_Charging_Adjusted_Penalty>  (272) 
0

>  <i_epik_Tot_Q>  (272) 
0

>  <i_epik_Tot_abs_Q>  (272) 
0

>  <s_epik_Chemistry_Notes>  (272) 
This compound has an ester and may undergo hydrolysis at high or low pH.

>  <s_lp_Force_Field>  (272) 
OPLS3e

>  <r_lp_Energy>  (272) 
43.8506

>  <b_lp_Chiralities_Consistent>  (272) 
1

>  <s_lp_Variant>  (272) 
64:0-2

>  <s_i_glide_gridfile>  (272) 
pfpi4k_grid

>  <i_i_glide_lignum>  (272) 
25

>  <i_i_glide_rotatable_bonds>  (272) 
4

>  <r_i_docking_score>  (272) 
-2.54577

>  <r_i_glide_ligand_efficiency>  (272) 
-0.106074

>  <r_i_glide_ligand_efficiency_sa>  (272) 
-0.305969

>  <r_i_glide_ligand_efficiency_ln>  (272) 
-0.609319

>  <r_i_glide_gscore>  (272) 
-2.54577

>  <r_i_glide_lipo>  (272) 
-0.469118

>  <r_i_glide_hbond>  (272) 
0

>  <r_i_glide_metal>  (272) 
-0

>  <r_i_glide_rewards>  (272) 
-1.17028

>  <r_i_glide_evdw>  (272) 
-28.4532

>  <r_i_glide_ecoul>  (272) 
-0.0229462

>  <r_i_glide_erotb>  (272) 
0.522553

>  <r_i_glide_esite>  (272) 
-0.00281951

>  <r_i_glide_emodel>  (272) 
-31.5191

>  <r_i_glide_energy>  (272) 
-28.4762

>  <r_i_glide_einternal>  (272) 
2.18909

>  <r_i_glide_intrahb_reward>  (272) 
-0

>  <i_i_glide_confnum>  (272) 
2

>  <i_i_glide_posenum>  (272) 
1

>  <r_i_glide_eff_state_penalty>  (272) 
0

>  <ligand_id>  (272) 
64

>  <original_smiles>  (272) 
CC12COC3COC1C(OC(=O)C=Cc1ccccc1)C1OC1C32

>  <smiles>  (272) 
[H]C(C(=O)OC1([H])C2([H])OC2([H])C2([H])C3([H])OC([H])([H])C2(C([H])([H])[H])C1([H])OC3([H])[H])=C([H])c1c([H])c([H])c([H])c([H])c1[H]

$$$$
64:1:2
     RDKit          3D

 44 48  0  0  1  0  0  0  0  0999 V2000
   -1.0092   -7.9302    2.5667 C   0  0  0  0  0  0  0  0  0  0  0  0
    0.0234   -7.7274    3.6988 C   0  0  2  0  0  0  0  0  0  0  0  0
   -0.5533   -6.8213    4.8036 C   0  0  0  0  0  0  0  0  0  0  0  0
    0.0903   -7.2257    6.0154 O   0  0  0  0  0  0  0  0  0  0  0  0
    0.9861   -8.2934    5.7174 C   0  0  2  0  0  0  0  0  0  0  0  0
    2.3439   -7.6488    5.3428 C   0  0  0  0  0  0  0  0  0  0  0  0
    2.1963   -6.7321    4.2563 O   0  0  0  0  0  0  0  0  0  0  0  0
    1.3617   -7.1450    3.1688 C   0  0  1  0  0  0  0  0  0  0  0  0
    2.1149   -8.1186    2.2140 C   0  0  1  0  0  0  0  0  0  0  0  0
    3.4348   -7.6714    1.9109 O   0  0  0  0  0  0  0  0  0  0  0  0
    3.6229   -6.6215    1.0893 C   0  0  0  0  0  0  0  0  0  0  0  0
    2.7001   -5.9806    0.5830 O   0  0  0  0  0  0  0  0  0  0  0  0
    5.0550   -6.3982    0.8344 C   0  0  0  0  0  0  0  0  0  0  0  0
    5.6275   -5.3288    0.2332 C   0  0  0  0  0  0  0  0  0  0  0  0
    5.0427   -4.0473   -0.2194 C   0  0  0  0  0  0  0  0  0  0  0  0
    5.5139   -3.4223   -1.3973 C   0  0  0  0  0  0  0  0  0  0  0  0
    4.9419   -2.2193   -1.8525 C   0  0  0  0  0  0  0  0  0  0  0  0
    3.8840   -1.6305   -1.1393 C   0  0  0  0  0  0  0  0  0  0  0  0
    3.4178   -2.2348    0.0389 C   0  0  0  0  0  0  0  0  0  0  0  0
    4.0139   -3.4152    0.5117 C   0  0  0  0  0  0  0  0  0  0  0  0
    2.1676   -9.5456    2.7285 C   0  0  2  0  0  0  0  0  0  0  0  0
    0.9739  -10.3096    2.4882 O   0  0  0  0  0  0  0  0  0  0  0  0
    1.2563   -9.9832    3.8386 C   0  0  2  0  0  0  0  0  0  0  0  0
    0.3400   -8.9745    4.5131 C   0  0  2  0  0  0  0  0  0  0  0  0
   -1.9332   -8.3647    2.9523 H   0  0  0  0  0  0  0  0  0  0  0  0
   -0.6521   -8.5908    1.7777 H   0  0  0  0  0  0  0  0  0  0  0  0
   -1.2638   -6.9846    2.0927 H   0  0  0  0  0  0  0  0  0  0  0  0
   -0.3964   -5.7584    4.6080 H   0  0  0  0  0  0  0  0  0  0  0  0
   -1.6265   -6.9859    4.9134 H   0  0  0  0  0  0  0  0  0  0  0  0
    1.0955   -8.9707    6.5612 H   0  0  0  0  0  0  0  0  0  0  0  0
    2.7483   -7.1028    6.1957 H   0  0  0  0  0  0  0  0  0  0  0  0
    3.0854   -8.4049    5.0812 H   0  0  0  0  0  0  0  0  0  0  0  0
    1.1279   -6.2311    2.6290 H   0  0  0  0  0  0  0  0  0  0  0  0
    1.5682   -8.1759    1.2702 H   0  0  0  0  0  0  0  0  0  0  0  0
    5.7110   -7.1964    1.1512 H   0  0  0  0  0  0  0  0  0  0  0  0
    6.6947   -5.4013    0.0914 H   0  0  0  0  0  0  0  0  0  0  0  0
    6.3192   -3.8573   -1.9764 H   0  0  0  0  0  0  0  0  0  0  0  0
    5.3073   -1.7507   -2.7604 H   0  0  0  0  0  0  0  0  0  0  0  0
    3.4233   -0.7158   -1.4902 H   0  0  0  0  0  0  0  0  0  0  0  0
    2.5993   -1.7919    0.5880 H   0  0  0  0  0  0  0  0  0  0  0  0
    3.6621   -3.8361    1.4389 H   0  0  0  0  0  0  0  0  0  0  0  0
    3.0918  -10.1012    2.5511 H   0  0  0  0  0  0  0  0  0  0  0  0
    1.5677  -10.8212    4.4507 H   0  0  0  0  0  0  0  0  0  0  0  0
   -0.5839   -9.4746    4.8079 H   0  0  0  0  0  0  0  0  0  0  0  0
  2  1  1  6
  1 25  1  0
  1 26  1  0
  1 27  1  0
  2  8  1  0
  2 24  1  0
  2  3  1  0
  3  4  1  0
  3 28  1  0
  3 29  1  0
  4  5  1  0
  5 24  1  0
  5  6  1  0
  5 30  1  1
  6  7  1  0
  6 31  1  0
  6 32  1  0
  7  8  1  0
  8  9  1  0
  8 33  1  6
  9 10  1  0
  9 21  1  0
  9 34  1  6
 10 11  1  0
 11 12  2  0
 11 13  1  0
 13 14  2  3
 13 35  1  0
 14 15  1  0
 14 36  1  0
 15 20  1  0
 15 16  2  0
 16 17  1  0
 16 37  1  0
 17 18  2  0
 17 38  1  0
 18 19  1  0
 18 39  1  0
 19 20  2  0
 19 40  1  0
 20 41  1  0
 21 23  1  0
 21 22  1  0
 21 42  1  1
 22 23  1  0
 23 24  1  0
 23 43  1  1
 24 44  1  1
M  END
>  <i_m_ct_stereo_status>  (273) 
1

>  <s_m_source_file>  (273) 
/var/tmp/pbs.5076255.sched01/tmpfes5ahby/80lk6pwr5_.sdf

>  <i_m_source_file_index>  (273) 
25

>  <i_lp_mmshare_version>  (273) 
48012

>  <i_f3d_flags>  (273) 
0

>  <s_epik_input>  (273) 
W0NIM11bQ0BAXTEyW0NASF0zT1tDSDJdW0NAQEhdKE9bQ0gyXTEpW0NAQEhdMltDQEBIXTRbQ0BASF0oTzQpW0NAQEhdM09DKD1PKS9bQ0hdPVtDSF0vYzVbY0hdW2NIXVtjSF1bY0hdW2NIXTU=

>  <s_epik_cmdline>  (273) 
J2VwaWtfcHl0aG9uJywgJy1waHQnLCAnMi4wJywgJy1waCcsICc3LjAnLCAnLXRuJywgJzgnLCAnLW1hJywgJzIwMCcsICctaW1hZScsICc8aW5maWxlLm1hZT4nLCAnLW9tYWUnLCAnPG91dGZpbGUubWFlPic=

>  <r_lp_tautomer_probability>  (273) 
1

>  <r_epik_Ionization_Penalty>  (273) 
2.50184e-12

>  <r_epik_Ionization_Penalty_Charging>  (273) 
0

>  <r_epik_Ionization_Penalty_Neutral>  (273) 
2.50184e-12

>  <r_epik_State_Penalty>  (273) 
-0

>  <r_epik_Charging_Adjusted_Penalty>  (273) 
0

>  <i_epik_Tot_Q>  (273) 
0

>  <i_epik_Tot_abs_Q>  (273) 
0

>  <s_epik_Chemistry_Notes>  (273) 
This compound has an ester and may undergo hydrolysis at high or low pH.

>  <s_lp_Force_Field>  (273) 
OPLS3e

>  <r_lp_Energy>  (273) 
43.8506

>  <b_lp_Chiralities_Consistent>  (273) 
1

>  <s_lp_Variant>  (273) 
64:0-2

>  <s_i_glide_gridfile>  (273) 
pfpi4k_grid

>  <i_i_glide_lignum>  (273) 
25

>  <i_i_glide_rotatable_bonds>  (273) 
4

>  <r_i_docking_score>  (273) 
-2.50856

>  <r_i_glide_ligand_efficiency>  (273) 
-0.104523

>  <r_i_glide_ligand_efficiency_sa>  (273) 
-0.301498

>  <r_i_glide_ligand_efficiency_ln>  (273) 
-0.600414

>  <r_i_glide_gscore>  (273) 
-2.50856

>  <r_i_glide_lipo>  (273) 
-0.422695

>  <r_i_glide_hbond>  (273) 
0

>  <r_i_glide_metal>  (273) 
-0

>  <r_i_glide_rewards>  (273) 
-1.25811

>  <r_i_glide_evdw>  (273) 
-27.7784

>  <r_i_glide_ecoul>  (273) 
0.25742

>  <r_i_glide_erotb>  (273) 
0.522553

>  <r_i_glide_esite>  (273) 
0

>  <r_i_glide_emodel>  (273) 
-30.9662

>  <r_i_glide_energy>  (273) 
-27.521

>  <r_i_glide_einternal>  (273) 
1.96249

>  <r_i_glide_intrahb_reward>  (273) 
-0

>  <i_i_glide_confnum>  (273) 
2

>  <i_i_glide_posenum>  (273) 
31

>  <r_i_glide_eff_state_penalty>  (273) 
0

>  <ligand_id>  (273) 
64

>  <original_smiles>  (273) 
CC12COC3COC1C(OC(=O)C=Cc1ccccc1)C1OC1C32

>  <smiles>  (273) 
[H]C(C(=O)OC1([H])C2([H])OC2([H])C2([H])C3([H])OC([H])([H])C2(C([H])([H])[H])C1([H])OC3([H])[H])=C([H])c1c([H])c([H])c([H])c([H])c1[H]

$$$$
65:0:0
     RDKit          3D

 16 18  0  0  1  0  0  0  0  0999 V2000
    3.8495   -4.0889    1.6786 C   0  0  0  0  0  0  0  0  0  0  0  0
    3.1460   -4.0845    0.4904 N   0  0  0  0  0  0  0  0  0  0  0  0
    3.7940   -3.1297   -0.0886 C   0  0  0  0  0  0  0  0  0  0  0  0
    3.4517   -2.6961   -1.4319 C   0  0  0  0  0  0  0  0  0  0  0  0
    2.4831   -3.0869   -2.3833 C   0  0  0  0  0  0  0  0  0  0  0  0
    2.6168   -2.3173   -3.5212 C   0  0  0  0  0  0  0  0  0  0  0  0
    3.9075   -1.1025   -3.4271 S   0  0  0  0  0  0  0  0  0  0  0  0
    4.2954   -1.6679   -1.8116 C   0  0  0  0  0  0  0  0  0  0  0  0
    5.3298   -1.0862   -1.1020 N   0  0  0  0  0  0  0  0  0  0  0  0
    5.5694   -1.5491    0.1473 C   0  0  0  0  0  0  0  0  0  0  0  0
    4.7720   -2.5727    0.5913 N   0  0  0  0  0  0  0  0  0  0  0  0
    4.8498   -3.1897    1.7973 N   0  0  0  0  0  0  0  0  0  0  0  0
    3.6213   -4.7697    2.4841 H   0  0  0  0  0  0  0  0  0  0  0  0
    1.7668   -3.8786   -2.2187 H   0  0  0  0  0  0  0  0  0  0  0  0
    2.0088   -2.3862   -4.4090 H   0  0  0  0  0  0  0  0  0  0  0  0
    6.3518   -1.1463    0.7726 H   0  0  0  0  0  0  0  0  0  0  0  0
  1 12  2  0
  1  2  1  0
  1 13  1  0
  2  3  2  0
  3 11  1  0
  3  4  1  0
  4  8  2  0
  4  5  1  0
  5  6  2  0
  5 14  1  0
  6  7  1  0
  6 15  1  0
  7  8  1  0
  8  9  1  0
  9 10  2  0
 10 11  1  0
 10 16  1  0
 11 12  1  0
M  END
>  <i_m_ct_stereo_status>  (274) 
1

>  <s_m_source_file>  (274) 
/var/tmp/pbs.5076255.sched01/tmpfes5ahby/80lk6pwr5_.sdf

>  <i_m_source_file_index>  (274) 
26

>  <i_lp_mmshare_version>  (274) 
48012

>  <i_f3d_flags>  (274) 
0

>  <s_epik_input>  (274) 
bjFbY0hdbm4yW2NIXW5jKGMzYzEyKXNbY0hdW2NIXTM=

>  <s_epik_cmdline>  (274) 
J2VwaWtfcHl0aG9uJywgJy1waHQnLCAnMi4wJywgJy1waCcsICc3LjAnLCAnLXRuJywgJzgnLCAnLW1hJywgJzIwMCcsICctaW1hZScsICc8aW5maWxlLm1hZT4nLCAnLW9tYWUnLCAnPG91dGZpbGUubWFlPic=

>  <r_lp_tautomer_probability>  (274) 
1

>  <r_epik_Ionization_Penalty>  (274) 
3.16876e-05

>  <r_epik_Ionization_Penalty_Charging>  (274) 
0

>  <r_epik_Ionization_Penalty_Neutral>  (274) 
3.16876e-05

>  <r_epik_State_Penalty>  (274) 
-0

>  <r_epik_Charging_Adjusted_Penalty>  (274) 
0

>  <i_epik_Tot_Q>  (274) 
0

>  <i_epik_Tot_abs_Q>  (274) 
0

>  <s_lp_Force_Field>  (274) 
OPLS3e

>  <r_lp_Energy>  (274) 
17.8854

>  <b_lp_Chiralities_Consistent>  (274) 
1

>  <s_lp_Variant>  (274) 
65:0-1

>  <s_i_glide_gridfile>  (274) 
pfpi4k_grid

>  <i_i_glide_lignum>  (274) 
26

>  <i_i_glide_rotatable_bonds>  (274) 
0

>  <r_i_docking_score>  (274) 
-3.98774

>  <r_i_glide_ligand_efficiency>  (274) 
-0.332311

>  <r_i_glide_ligand_efficiency_sa>  (274) 
-0.760803

>  <r_i_glide_ligand_efficiency_ln>  (274) 
-1.14429

>  <r_i_glide_gscore>  (274) 
-3.98774

>  <r_i_glide_lipo>  (274) 
-0.46183

>  <r_i_glide_hbond>  (274) 
0

>  <r_i_glide_metal>  (274) 
-0

>  <r_i_glide_rewards>  (274) 
-2.26986

>  <r_i_glide_evdw>  (274) 
-20.0316

>  <r_i_glide_ecoul>  (274) 
-1.69595

>  <r_i_glide_erotb>  (274) 
0

>  <r_i_glide_esite>  (274) 
-7.06457e-05

>  <r_i_glide_emodel>  (274) 
-27.3499

>  <r_i_glide_energy>  (274) 
-21.7275

>  <r_i_glide_einternal>  (274) 
0

>  <r_i_glide_intrahb_reward>  (274) 
-0

>  <i_i_glide_confnum>  (274) 
1

>  <i_i_glide_posenum>  (274) 
32

>  <r_i_glide_eff_state_penalty>  (274) 
0

>  <ligand_id>  (274) 
65

>  <original_smiles>  (274) 
c1nc2c3ccsc3ncn2n1

>  <smiles>  (274) 
[H]c1nc2c3c([H])c([H])sc3nc([H])n2n1

$$$$
65:0:1
     RDKit          3D

 16 18  0  0  1  0  0  0  0  0999 V2000
    2.6933   -5.3112    1.2705 C   0  0  0  0  0  0  0  0  0  0  0  0
    2.2633   -4.8679    0.0388 N   0  0  0  0  0  0  0  0  0  0  0  0
    3.1254   -3.9164   -0.1206 C   0  0  0  0  0  0  0  0  0  0  0  0
    3.1503   -3.0996   -1.3270 C   0  0  0  0  0  0  0  0  0  0  0  0
    2.4015   -3.0685   -2.5281 C   0  0  0  0  0  0  0  0  0  0  0  0
    2.8735   -2.0624   -3.3513 C   0  0  0  0  0  0  0  0  0  0  0  0
    4.2110   -1.1293   -2.6468 S   0  0  0  0  0  0  0  0  0  0  0  0
    4.1544   -2.1526   -1.2197 C   0  0  0  0  0  0  0  0  0  0  0  0
    5.0440   -1.9456   -0.1841 N   0  0  0  0  0  0  0  0  0  0  0  0
    4.9515   -2.7585    0.8949 C   0  0  0  0  0  0  0  0  0  0  0  0
    3.9780   -3.7233    0.8631 N   0  0  0  0  0  0  0  0  0  0  0  0
    3.7203   -4.6410    1.8309 N   0  0  0  0  0  0  0  0  0  0  0  0
    2.2235   -6.1399    1.7772 H   0  0  0  0  0  0  0  0  0  0  0  0
    1.5931   -3.7557   -2.7322 H   0  0  0  0  0  0  0  0  0  0  0  0
    2.4863   -1.7911   -4.3234 H   0  0  0  0  0  0  0  0  0  0  0  0
    5.6045   -2.6621    1.7489 H   0  0  0  0  0  0  0  0  0  0  0  0
  1 12  2  0
  1  2  1  0
  1 13  1  0
  2  3  2  0
  3 11  1  0
  3  4  1  0
  4  8  2  0
  4  5  1  0
  5  6  2  0
  5 14  1  0
  6  7  1  0
  6 15  1  0
  7  8  1  0
  8  9  1  0
  9 10  2  0
 10 11  1  0
 10 16  1  0
 11 12  1  0
M  END
>  <i_m_ct_stereo_status>  (275) 
1

>  <s_m_source_file>  (275) 
/var/tmp/pbs.5076255.sched01/tmpfes5ahby/80lk6pwr5_.sdf

>  <i_m_source_file_index>  (275) 
26

>  <i_lp_mmshare_version>  (275) 
48012

>  <i_f3d_flags>  (275) 
0

>  <s_epik_input>  (275) 
bjFbY0hdbm4yW2NIXW5jKGMzYzEyKXNbY0hdW2NIXTM=

>  <s_epik_cmdline>  (275) 
J2VwaWtfcHl0aG9uJywgJy1waHQnLCAnMi4wJywgJy1waCcsICc3LjAnLCAnLXRuJywgJzgnLCAnLW1hJywgJzIwMCcsICctaW1hZScsICc8aW5maWxlLm1hZT4nLCAnLW9tYWUnLCAnPG91dGZpbGUubWFlPic=

>  <r_lp_tautomer_probability>  (275) 
1

>  <r_epik_Ionization_Penalty>  (275) 
3.16876e-05

>  <r_epik_Ionization_Penalty_Charging>  (275) 
0

>  <r_epik_Ionization_Penalty_Neutral>  (275) 
3.16876e-05

>  <r_epik_State_Penalty>  (275) 
-0

>  <r_epik_Charging_Adjusted_Penalty>  (275) 
0

>  <i_epik_Tot_Q>  (275) 
0

>  <i_epik_Tot_abs_Q>  (275) 
0

>  <s_lp_Force_Field>  (275) 
OPLS3e

>  <r_lp_Energy>  (275) 
17.8854

>  <b_lp_Chiralities_Consistent>  (275) 
1

>  <s_lp_Variant>  (275) 
65:0-1

>  <s_i_glide_gridfile>  (275) 
pfpi4k_grid

>  <i_i_glide_lignum>  (275) 
26

>  <i_i_glide_rotatable_bonds>  (275) 
0

>  <r_i_docking_score>  (275) 
-3.63405

>  <r_i_glide_ligand_efficiency>  (275) 
-0.302837

>  <r_i_glide_ligand_efficiency_sa>  (275) 
-0.693324

>  <r_i_glide_ligand_efficiency_ln>  (275) 
-1.0428

>  <r_i_glide_gscore>  (275) 
-3.63405

>  <r_i_glide_lipo>  (275) 
-0.216467

>  <r_i_glide_hbond>  (275) 
-0.00175804

>  <r_i_glide_metal>  (275) 
-0

>  <r_i_glide_rewards>  (275) 
-2.26249

>  <r_i_glide_evdw>  (275) 
-17.9841

>  <r_i_glide_ecoul>  (275) 
-1.46508

>  <r_i_glide_erotb>  (275) 
0

>  <r_i_glide_esite>  (275) 
-0.0343606

>  <r_i_glide_emodel>  (275) 
-24.5691

>  <r_i_glide_energy>  (275) 
-19.4492

>  <r_i_glide_einternal>  (275) 
0

>  <r_i_glide_intrahb_reward>  (275) 
-0

>  <i_i_glide_confnum>  (275) 
2

>  <i_i_glide_posenum>  (275) 
36

>  <r_i_glide_eff_state_penalty>  (275) 
0

>  <ligand_id>  (275) 
65

>  <original_smiles>  (275) 
c1nc2c3ccsc3ncn2n1

>  <smiles>  (275) 
[H]c1nc2c3c([H])c([H])sc3nc([H])n2n1

$$$$
65:0:2
     RDKit          3D

 16 18  0  0  1  0  0  0  0  0999 V2000
    4.5064   -6.8406    2.7772 C   0  0  0  0  0  0  0  0  0  0  0  0
    3.5378   -7.4514    3.5477 N   0  0  0  0  0  0  0  0  0  0  0  0
    2.5328   -7.2288    2.7717 C   0  0  0  0  0  0  0  0  0  0  0  0
    1.1987   -7.6846    3.1224 C   0  0  0  0  0  0  0  0  0  0  0  0
    0.6457   -8.3927    4.2166 C   0  0  0  0  0  0  0  0  0  0  0  0
   -0.7160   -8.5473    4.0227 C   0  0  0  0  0  0  0  0  0  0  0  0
   -1.3105   -7.8607    2.4954 S   0  0  0  0  0  0  0  0  0  0  0  0
    0.3138   -7.3155    2.1254 C   0  0  0  0  0  0  0  0  0  0  0  0
    0.5603   -6.6149    0.9592 N   0  0  0  0  0  0  0  0  0  0  0  0
    1.8365   -6.2246    0.7228 C   0  0  0  0  0  0  0  0  0  0  0  0
    2.7729   -6.5662    1.6623 N   0  0  0  0  0  0  0  0  0  0  0  0
    4.0981   -6.2798    1.6195 N   0  0  0  0  0  0  0  0  0  0  0  0
    5.5421   -6.7993    3.0774 H   0  0  0  0  0  0  0  0  0  0  0  0
    1.2274   -8.7464    5.0550 H   0  0  0  0  0  0  0  0  0  0  0  0
   -1.4113   -9.0546    4.6780 H   0  0  0  0  0  0  0  0  0  0  0  0
    2.1229   -5.6853   -0.1697 H   0  0  0  0  0  0  0  0  0  0  0  0
  1 12  2  0
  1  2  1  0
  1 13  1  0
  2  3  2  0
  3 11  1  0
  3  4  1  0
  4  8  2  0
  4  5  1  0
  5  6  2  0
  5 14  1  0
  6  7  1  0
  6 15  1  0
  7  8  1  0
  8  9  1  0
  9 10  2  0
 10 11  1  0
 10 16  1  0
 11 12  1  0
M  END
>  <i_m_ct_stereo_status>  (276) 
1

>  <s_m_source_file>  (276) 
/var/tmp/pbs.5076255.sched01/tmpfes5ahby/80lk6pwr5_.sdf

>  <i_m_source_file_index>  (276) 
26

>  <i_lp_mmshare_version>  (276) 
48012

>  <i_f3d_flags>  (276) 
0

>  <s_epik_input>  (276) 
bjFbY0hdbm4yW2NIXW5jKGMzYzEyKXNbY0hdW2NIXTM=

>  <s_epik_cmdline>  (276) 
J2VwaWtfcHl0aG9uJywgJy1waHQnLCAnMi4wJywgJy1waCcsICc3LjAnLCAnLXRuJywgJzgnLCAnLW1hJywgJzIwMCcsICctaW1hZScsICc8aW5maWxlLm1hZT4nLCAnLW9tYWUnLCAnPG91dGZpbGUubWFlPic=

>  <r_lp_tautomer_probability>  (276) 
1

>  <r_epik_Ionization_Penalty>  (276) 
3.16876e-05

>  <r_epik_Ionization_Penalty_Charging>  (276) 
0

>  <r_epik_Ionization_Penalty_Neutral>  (276) 
3.16876e-05

>  <r_epik_State_Penalty>  (276) 
-0

>  <r_epik_Charging_Adjusted_Penalty>  (276) 
0

>  <i_epik_Tot_Q>  (276) 
0

>  <i_epik_Tot_abs_Q>  (276) 
0

>  <s_lp_Force_Field>  (276) 
OPLS3e

>  <r_lp_Energy>  (276) 
17.8854

>  <b_lp_Chiralities_Consistent>  (276) 
1

>  <s_lp_Variant>  (276) 
65:0-1

>  <s_i_glide_gridfile>  (276) 
pfpi4k_grid

>  <i_i_glide_lignum>  (276) 
26

>  <i_i_glide_rotatable_bonds>  (276) 
0

>  <r_i_docking_score>  (276) 
-3.58059

>  <r_i_glide_ligand_efficiency>  (276) 
-0.298382

>  <r_i_glide_ligand_efficiency_sa>  (276) 
-0.683125

>  <r_i_glide_ligand_efficiency_ln>  (276) 
-1.02746

>  <r_i_glide_gscore>  (276) 
-3.58059

>  <r_i_glide_lipo>  (276) 
0

>  <r_i_glide_hbond>  (276) 
-0.142233

>  <r_i_glide_metal>  (276) 
-0

>  <r_i_glide_rewards>  (276) 
-2.21419

>  <r_i_glide_evdw>  (276) 
-15.8207

>  <r_i_glide_ecoul>  (276) 
-2.51476

>  <r_i_glide_erotb>  (276) 
0

>  <r_i_glide_esite>  (276) 
-0.0559165

>  <r_i_glide_emodel>  (276) 
-23.3836

>  <r_i_glide_energy>  (276) 
-18.3355

>  <r_i_glide_einternal>  (276) 
0

>  <r_i_glide_intrahb_reward>  (276) 
-0

>  <i_i_glide_confnum>  (276) 
1

>  <i_i_glide_posenum>  (276) 
2

>  <r_i_glide_eff_state_penalty>  (276) 
0

>  <ligand_id>  (276) 
65

>  <original_smiles>  (276) 
c1nc2c3ccsc3ncn2n1

>  <smiles>  (276) 
[H]c1nc2c3c([H])c([H])sc3nc([H])n2n1

$$$$
66:0:0
     RDKit          3D

 90 95  0  0  1  0  0  0  0  0999 V2000
    8.4131   -2.6306   -0.0911 C   0  0  0  0  0  0  0  0  0  0  0  0
    6.9739   -3.1731   -0.0257 C   0  0  0  0  0  0  0  0  0  0  0  0
    6.3618   -3.0426   -1.4466 C   0  0  0  0  0  0  0  0  0  0  0  0
    7.0266   -4.6266    0.4560 C   0  0  0  0  0  0  0  0  0  0  0  0
    5.6242   -5.2140    0.6215 C   0  0  0  0  0  0  0  0  0  0  0  0
    4.6920   -4.4170    1.5776 C   0  0  1  0  0  0  0  0  0  0  0  0
    3.3137   -5.0915    1.3714 C   0  0  0  0  0  0  0  0  0  0  0  0
    5.1577   -4.6113    3.0333 C   0  0  0  0  0  0  0  0  0  0  0  0
    4.2661   -3.8793    4.0416 C   0  0  0  0  0  0  0  0  0  0  0  0
    4.0912   -2.3629    3.7758 C   0  0  2  0  0  0  0  0  0  0  0  0
    3.0821   -1.7295    4.8123 C   0  0  1  0  0  0  0  0  0  0  0  0
    3.6528   -0.3666    5.2764 C   0  0  0  0  0  0  0  0  0  0  0  0
    2.7138    0.4589    6.1268 C   0  0  0  0  0  0  0  0  0  0  0  0
    3.1554    0.9910    7.1463 O   0  0  0  0  0  0  0  0  0  0  0  0
    1.3044    0.5415    5.7050 C   0  0  0  0  0  0  0  0  0  0  0  0
    0.6553    1.7429    5.6593 C   0  0  0  0  0  0  0  0  0  0  0  0
    1.3071    3.1144    5.8356 C   0  0  0  0  0  0  0  0  0  0  0  0
    1.0013    4.0288    4.6381 C   0  0  0  0  0  0  0  0  0  0  0  0
   -0.5112    4.1419    4.3960 C   0  0  1  0  0  0  0  0  0  0  0  0
   -0.7595    5.0166    3.3068 O   0  0  0  0  0  0  0  0  0  0  0  0
   -1.2126    2.7596    4.2217 C   0  0  0  0  0  0  0  0  0  0  0  0
   -2.7282    3.0279    4.1732 C   0  0  0  0  0  0  0  0  0  0  0  0
   -0.7980    2.0879    2.9004 C   0  0  0  0  0  0  0  0  0  0  0  0
   -0.8504    1.8677    5.4552 C   0  0  1  0  0  0  0  0  0  0  0  0
   -1.5612    0.5056    5.5946 C   0  0  0  0  0  0  0  0  0  0  0  0
   -0.8041   -0.6523    4.9383 C   0  0  0  0  0  0  0  0  0  0  0  0
    0.6643   -0.8346    5.4357 C   0  0  2  0  0  0  0  0  0  0  0  0
    0.5518   -1.5465    6.8209 C   0  0  0  0  0  0  0  0  0  0  0  0
    1.5491   -1.7091    4.4092 C   0  0  2  0  0  0  0  0  0  0  0  0
    0.9730   -3.1531    4.4151 C   0  0  0  0  0  0  0  0  0  0  0  0
    1.4704   -1.1758    2.9494 C   0  0  0  0  0  0  0  0  0  0  0  0
    2.3698   -1.9145    1.9290 C   0  0  0  0  0  0  0  0  0  0  0  0
    3.8801   -1.9450    2.2706 C   0  0  1  0  0  0  0  0  0  0  0  0
    4.3425   -0.4729    2.0525 C   0  0  0  0  0  0  0  0  0  0  0  0
    4.6883   -2.8730    1.2514 C   0  0  1  0  0  0  0  0  0  0  0  0
    6.1523   -2.3729    1.0020 C   0  0  0  0  0  0  0  0  0  0  0  0
    9.0081   -3.1788   -0.8249 H   0  0  0  0  0  0  0  0  0  0  0  0
    8.9153   -2.7140    0.8710 H   0  0  0  0  0  0  0  0  0  0  0  0
    8.4370   -1.5789   -0.3721 H   0  0  0  0  0  0  0  0  0  0  0  0
    5.3375   -3.4199   -1.5018 H   0  0  0  0  0  0  0  0  0  0  0  0
    6.9392   -3.5925   -2.1968 H   0  0  0  0  0  0  0  0  0  0  0  0
    6.3217   -1.9982   -1.7694 H   0  0  0  0  0  0  0  0  0  0  0  0
    7.6087   -5.2223   -0.2436 H   0  0  0  0  0  0  0  0  0  0  0  0
    7.5707   -4.6975    1.3958 H   0  0  0  0  0  0  0  0  0  0  0  0
    5.1552   -5.3023   -0.3577 H   0  0  0  0  0  0  0  0  0  0  0  0
    5.7255   -6.2413    0.9733 H   0  0  0  0  0  0  0  0  0  0  0  0
    2.5980   -4.8719    2.1541 H   0  0  0  0  0  0  0  0  0  0  0  0
    3.4032   -6.1792    1.3635 H   0  0  0  0  0  0  0  0  0  0  0  0
    2.8692   -4.7972    0.4194 H   0  0  0  0  0  0  0  0  0  0  0  0
    5.2132   -5.6739    3.2829 H   0  0  0  0  0  0  0  0  0  0  0  0
    6.1727   -4.2423    3.1478 H   0  0  0  0  0  0  0  0  0  0  0  0
    3.3199   -4.4008    4.1275 H   0  0  0  0  0  0  0  0  0  0  0  0
    4.7281   -3.9972    5.0204 H   0  0  0  0  0  0  0  0  0  0  0  0
    5.0771   -1.9742    4.0443 H   0  0  0  0  0  0  0  0  0  0  0  0
    3.1422   -2.3508    5.7083 H   0  0  0  0  0  0  0  0  0  0  0  0
    4.5524   -0.5507    5.8626 H   0  0  0  0  0  0  0  0  0  0  0  0
    3.9556    0.2711    4.4547 H   0  0  0  0  0  0  0  0  0  0  0  0
    0.9146    3.5639    6.7509 H   0  0  0  0  0  0  0  0  0  0  0  0
    2.3911    3.0686    5.9580 H   0  0  0  0  0  0  0  0  0  0  0  0
    1.4236    5.0166    4.8208 H   0  0  0  0  0  0  0  0  0  0  0  0
    1.5058    3.6429    3.7518 H   0  0  0  0  0  0  0  0  0  0  0  0
   -0.9401    4.6300    5.2717 H   0  0  0  0  0  0  0  0  0  0  0  0
   -0.3083    4.6886    2.5280 H   0  0  0  0  0  0  0  0  0  0  0  0
   -3.3055    2.1421    3.9255 H   0  0  0  0  0  0  0  0  0  0  0  0
   -2.9894    3.7585    3.4071 H   0  0  0  0  0  0  0  0  0  0  0  0
   -3.0870    3.4027    5.1322 H   0  0  0  0  0  0  0  0  0  0  0  0
   -1.4135    1.2204    2.6616 H   0  0  0  0  0  0  0  0  0  0  0  0
    0.2471    1.7815    2.9041 H   0  0  0  0  0  0  0  0  0  0  0  0
   -0.9341    2.7811    2.0795 H   0  0  0  0  0  0  0  0  0  0  0  0
   -1.2012    2.4386    6.3167 H   0  0  0  0  0  0  0  0  0  0  0  0
   -1.6619    0.2925    6.6581 H   0  0  0  0  0  0  0  0  0  0  0  0
   -2.5706    0.5281    5.2056 H   0  0  0  0  0  0  0  0  0  0  0  0
   -1.3797   -1.5671    5.0869 H   0  0  0  0  0  0  0  0  0  0  0  0
   -0.8509   -0.4668    3.8766 H   0  0  0  0  0  0  0  0  0  0  0  0
   -0.0743   -2.4394    6.7846 H   0  0  0  0  0  0  0  0  0  0  0  0
    0.1105   -0.8885    7.5718 H   0  0  0  0  0  0  0  0  0  0  0  0
    1.5212   -1.8525    7.2173 H   0  0  0  0  0  0  0  0  0  0  0  0
   -0.1063   -3.1723    4.2663 H   0  0  0  0  0  0  0  0  0  0  0  0
    1.1875   -3.6798    5.3454 H   0  0  0  0  0  0  0  0  0  0  0  0
    1.3710   -3.7728    3.6230 H   0  0  0  0  0  0  0  0  0  0  0  0
    0.4667   -1.2767    2.5453 H   0  0  0  0  0  0  0  0  0  0  0  0
    1.6723   -0.1079    2.9361 H   0  0  0  0  0  0  0  0  0  0  0  0
    1.9697   -2.9064    1.7724 H   0  0  0  0  0  0  0  0  0  0  0  0
    2.2371   -1.4407    0.9557 H   0  0  0  0  0  0  0  0  0  0  0  0
    4.3671   -0.2175    0.9916 H   0  0  0  0  0  0  0  0  0  0  0  0
    5.3336   -0.2931    2.4719 H   0  0  0  0  0  0  0  0  0  0  0  0
    3.6846    0.2754    2.4835 H   0  0  0  0  0  0  0  0  0  0  0  0
    4.1863   -2.7509    0.2957 H   0  0  0  0  0  0  0  0  0  0  0  0
    6.6738   -2.3912    1.9539 H   0  0  0  0  0  0  0  0  0  0  0  0
    6.1940   -1.3409    0.6587 H   0  0  0  0  0  0  0  0  0  0  0  0
  1  2  1  0
  1 37  1  0
  1 38  1  0
  1 39  1  0
  2 36  1  0
  2  3  1  0
  2  4  1  0
  3 40  1  0
  3 41  1  0
  3 42  1  0
  4  5  1  0
  4 43  1  0
  4 44  1  0
  5  6  1  0
  5 45  1  0
  5 46  1  0
  6 35  1  0
  6  7  1  1
  6  8  1  0
  7 47  1  0
  7 48  1  0
  7 49  1  0
  8  9  1  0
  8 50  1  0
  8 51  1  0
  9 10  1  0
  9 52  1  0
  9 53  1  0
 10 33  1  0
 10 11  1  0
 10 54  1  1
 11 29  1  0
 11 12  1  0
 11 55  1  1
 12 13  1  0
 12 56  1  0
 12 57  1  0
 13 14  2  0
 13 15  1  0
 15 27  1  0
 15 16  2  0
 16 24  1  0
 16 17  1  0
 17 18  1  0
 17 58  1  0
 17 59  1  0
 18 19  1  0
 18 60  1  0
 18 61  1  0
 19 20  1  0
 19 21  1  0
 19 62  1  1
 20 63  1  0
 21 22  1  0
 21 23  1  0
 21 24  1  0
 22 64  1  0
 22 65  1  0
 22 66  1  0
 23 67  1  0
 23 68  1  0
 23 69  1  0
 24 25  1  0
 24 70  1  1
 25 26  1  0
 25 71  1  0
 25 72  1  0
 26 27  1  0
 26 73  1  0
 26 74  1  0
 27 28  1  1
 27 29  1  0
 28 75  1  0
 28 76  1  0
 28 77  1  0
 29 30  1  6
 29 31  1  0
 30 78  1  0
 30 79  1  0
 30 80  1  0
 31 32  1  0
 31 81  1  0
 31 82  1  0
 32 33  1  0
 32 83  1  0
 32 84  1  0
 33 34  1  1
 33 35  1  0
 34 85  1  0
 34 86  1  0
 34 87  1  0
 35 36  1  0
 35 88  1  6
 36 89  1  0
 36 90  1  0
M  END
>  <i_m_ct_stereo_status>  (277) 
1

>  <s_m_source_file>  (277) 
/var/tmp/pbs.5076255.sched01/tmpfes5ahby/80lk6pwr5_.sdf

>  <i_m_source_file_index>  (277) 
27

>  <i_lp_mmshare_version>  (277) 
48012

>  <i_f3d_flags>  (277) 
0

>  <s_epik_input>  (277) 
W0NIMl0xW0NIMl1DKFtDSDNdKShbQ0gzXSlbQ0gyXVtDQEBIXShbQ0BAXTEyW0NIM10pW0NAXTMoW0NIM10pW0NASF0oW0NIMl1bQ0gyXTIpW0NAQEhdNFtDQF0oW0NIM10pKFtDSDJdW0NIMl0zKVtDQEBdNShbQ0gzXSlDKEMoPU8pW0NIMl00KT1DNltDQEhdKFtDSDJdW0NIMl01KUMoW0NIM10pKFtDSDNdKVtDQEhdKFtPSF0pW0NIMl1bQ0gyXTY=

>  <s_epik_cmdline>  (277) 
J2VwaWtfcHl0aG9uJywgJy1waHQnLCAnMi4wJywgJy1waCcsICc3LjAnLCAnLXRuJywgJzgnLCAnLW1hJywgJzIwMCcsICctaW1hZScsICc8aW5maWxlLm1hZT4nLCAnLW9tYWUnLCAnPG91dGZpbGUubWFlPic=

>  <r_lp_tautomer_probability>  (277) 
1

>  <r_epik_Ionization_Penalty>  (277) 
3.45753e-07

>  <r_epik_Ionization_Penalty_Charging>  (277) 
0

>  <r_epik_Ionization_Penalty_Neutral>  (277) 
3.45753e-07

>  <r_epik_State_Penalty>  (277) 
-0

>  <r_epik_Charging_Adjusted_Penalty>  (277) 
0

>  <i_epik_Tot_Q>  (277) 
0

>  <i_epik_Tot_abs_Q>  (277) 
0

>  <s_lp_Force_Field>  (277) 
OPLS3e

>  <r_lp_Energy>  (277) 
106.418

>  <b_lp_Chiralities_Consistent>  (277) 
1

>  <s_lp_Variant>  (277) 
66:0-1

>  <s_i_glide_gridfile>  (277) 
pfpi4k_grid

>  <i_i_glide_lignum>  (277) 
27

>  <i_i_glide_rotatable_bonds>  (277) 
1

>  <r_i_docking_score>  (277) 
-3.39073

>  <r_i_glide_ligand_efficiency>  (277) 
-0.0941871

>  <r_i_glide_ligand_efficiency_sa>  (277) 
-0.310999

>  <r_i_glide_ligand_efficiency_ln>  (277) 
-0.739767

>  <r_i_glide_gscore>  (277) 
-3.39073

>  <r_i_glide_lipo>  (277) 
-0.675087

>  <r_i_glide_hbond>  (277) 
-0.244299

>  <r_i_glide_metal>  (277) 
-0

>  <r_i_glide_rewards>  (277) 
-0.0355135

>  <r_i_glide_evdw>  (277) 
-33.2584

>  <r_i_glide_ecoul>  (277) 
-5.15277

>  <r_i_glide_erotb>  (277) 
0

>  <r_i_glide_esite>  (277) 
0

>  <r_i_glide_emodel>  (277) 
-46.7106

>  <r_i_glide_energy>  (277) 
-38.4112

>  <r_i_glide_einternal>  (277) 
0.00958425

>  <r_i_glide_intrahb_reward>  (277) 
-0

>  <i_i_glide_confnum>  (277) 
2

>  <i_i_glide_posenum>  (277) 
13

>  <r_i_glide_eff_state_penalty>  (277) 
0

>  <ligand_id>  (277) 
66

>  <original_smiles>  (277) 
CC1(C)CCC2(C)CCC3C4CC(=O)C5=C6CCC(O)C(C)(C)C6CCC5(C)C4(C)CCC3(C)C2C1

>  <smiles>  (277) 
[H]OC1([H])C([H])([H])C([H])([H])C2=C3C(=O)C([H])([H])C4([H])C5([H])C([H])([H])C([H])([H])C6(C([H])([H])[H])C([H])([H])C([H])([H])C(C([H])([H])[H])(C([H])([H])[H])C([H])([H])C6([H])C5(C([H])([H])[H])C([H])([H])C([H])([H])C4(C([H])([H])[H])C3(C([H])([H])[H])C([H])([H])C([H])([H])C2([H])C1(C([H])([H])[H])C([H])([H])[H]

$$$$
66:0:1
     RDKit          3D

 90 95  0  0  1  0  0  0  0  0999 V2000
    7.3656   -3.1356   -0.9441 C   0  0  0  0  0  0  0  0  0  0  0  0
    6.0211   -3.6376   -0.3718 C   0  0  0  0  0  0  0  0  0  0  0  0
    5.0429   -3.8209   -1.5584 C   0  0  0  0  0  0  0  0  0  0  0  0
    6.2515   -4.9537    0.3857 C   0  0  0  0  0  0  0  0  0  0  0  0
    4.9838   -5.4512    1.0636 C   0  0  0  0  0  0  0  0  0  0  0  0
    4.3174   -4.4393    2.0340 C   0  0  1  0  0  0  0  0  0  0  0  0
    2.9677   -5.1216    2.3695 C   0  0  0  0  0  0  0  0  0  0  0  0
    5.1788   -4.3011    3.3038 C   0  0  0  0  0  0  0  0  0  0  0  0
    4.5613   -3.3497    4.3330 C   0  0  0  0  0  0  0  0  0  0  0  0
    4.2444   -1.9312    3.7959 C   0  0  2  0  0  0  0  0  0  0  0  0
    3.5267   -1.0565    4.8941 C   0  0  1  0  0  0  0  0  0  0  0  0
    4.1397    0.3642    4.8616 C   0  0  0  0  0  0  0  0  0  0  0  0
    3.4324    1.3772    5.7335 C   0  0  0  0  0  0  0  0  0  0  0  0
    4.1061    2.1229    6.4437 O   0  0  0  0  0  0  0  0  0  0  0  0
    1.9560    1.3853    5.7022 C   0  0  0  0  0  0  0  0  0  0  0  0
    1.2658    2.5550    5.5662 C   0  0  0  0  0  0  0  0  0  0  0  0
    1.8714    3.9218    5.2507 C   0  0  0  0  0  0  0  0  0  0  0  0
    1.2102    4.5445    4.0110 C   0  0  0  0  0  0  0  0  0  0  0  0
   -0.3188    4.6235    4.1740 C   0  0  1  0  0  0  0  0  0  0  0  0
   -0.9153    5.2589    3.0540 O   0  0  0  0  0  0  0  0  0  0  0  0
   -0.9701    3.2427    4.4996 C   0  0  0  0  0  0  0  0  0  0  0  0
   -2.4528    3.5006    4.8185 C   0  0  0  0  0  0  0  0  0  0  0  0
   -0.8974    2.2899    3.2867 C   0  0  0  0  0  0  0  0  0  0  0  0
   -0.2510    2.6527    5.7625 C   0  0  1  0  0  0  0  0  0  0  0  0
   -0.8331    1.3727    6.4035 C   0  0  0  0  0  0  0  0  0  0  0  0
   -0.2298    0.0854    5.8350 C   0  0  0  0  0  0  0  0  0  0  0  0
    1.3319   -0.0062    5.9414 C   0  0  2  0  0  0  0  0  0  0  0  0
    1.6316   -0.3782    7.4269 C   0  0  0  0  0  0  0  0  0  0  0  0
    1.9421   -1.1074    4.9347 C   0  0  2  0  0  0  0  0  0  0  0  0
    1.4588   -2.4999    5.4236 C   0  0  0  0  0  0  0  0  0  0  0  0
    1.4404   -0.9244    3.4713 C   0  0  0  0  0  0  0  0  0  0  0  0
    2.0669   -1.8894    2.4386 C   0  0  0  0  0  0  0  0  0  0  0  0
    3.6145   -1.8612    2.3481 C   0  0  1  0  0  0  0  0  0  0  0  0
    3.9298   -0.4861    1.6863 C   0  0  0  0  0  0  0  0  0  0  0  0
    4.1610   -3.0088    1.3813 C   0  0  1  0  0  0  0  0  0  0  0  0
    5.4852   -2.6086    0.6426 C   0  0  0  0  0  0  0  0  0  0  0  0
    7.7885   -3.8475   -1.6569 H   0  0  0  0  0  0  0  0  0  0  0  0
    8.1088   -2.9814   -0.1609 H   0  0  0  0  0  0  0  0  0  0  0  0
    7.2353   -2.1957   -1.4800 H   0  0  0  0  0  0  0  0  0  0  0  0
    4.0599   -4.1780   -1.2426 H   0  0  0  0  0  0  0  0  0  0  0  0
    5.4222   -4.5478   -2.2807 H   0  0  0  0  0  0  0  0  0  0  0  0
    4.8850   -2.8782   -2.0908 H   0  0  0  0  0  0  0  0  0  0  0  0
    6.5877   -5.7266   -0.2989 H   0  0  0  0  0  0  0  0  0  0  0  0
    7.0459   -4.8321    1.1197 H   0  0  0  0  0  0  0  0  0  0  0  0
    4.2728   -5.7545    0.2978 H   0  0  0  0  0  0  0  0  0  0  0  0
    5.2311   -6.3707    1.5962 H   0  0  0  0  0  0  0  0  0  0  0  0
    2.4827   -4.7216    3.2499 H   0  0  0  0  0  0  0  0  0  0  0  0
    3.1074   -6.1824    2.5806 H   0  0  0  0  0  0  0  0  0  0  0  0
    2.2727   -5.0462    1.5358 H   0  0  0  0  0  0  0  0  0  0  0  0
    5.3430   -5.2787    3.7586 H   0  0  0  0  0  0  0  0  0  0  0  0
    6.1752   -3.9407    3.0390 H   0  0  0  0  0  0  0  0  0  0  0  0
    3.6940   -3.8127    4.7893 H   0  0  0  0  0  0  0  0  0  0  0  0
    5.2745   -3.2501    5.1472 H   0  0  0  0  0  0  0  0  0  0  0  0
    5.2476   -1.5090    3.6855 H   0  0  0  0  0  0  0  0  0  0  0  0
    3.8596   -1.4548    5.8524 H   0  0  0  0  0  0  0  0  0  0  0  0
    5.1703    0.3041    5.2048 H   0  0  0  0  0  0  0  0  0  0  0  0
    4.1787    0.7928    3.8680 H   0  0  0  0  0  0  0  0  0  0  0  0
    1.7195    4.5723    6.1132 H   0  0  0  0  0  0  0  0  0  0  0  0
    2.9452    3.8842    5.0783 H   0  0  0  0  0  0  0  0  0  0  0  0
    1.6165    5.5415    3.8394 H   0  0  0  0  0  0  0  0  0  0  0  0
    1.4675    3.9617    3.1248 H   0  0  0  0  0  0  0  0  0  0  0  0
   -0.5130    5.2942    5.0103 H   0  0  0  0  0  0  0  0  0  0  0  0
   -0.5166    4.8998    2.2513 H   0  0  0  0  0  0  0  0  0  0  0  0
   -3.0074    2.5791    4.9688 H   0  0  0  0  0  0  0  0  0  0  0  0
   -2.9562    4.0201    3.9989 H   0  0  0  0  0  0  0  0  0  0  0  0
   -2.5498    4.1109    5.7188 H   0  0  0  0  0  0  0  0  0  0  0  0
   -1.5164    1.4057    3.4376 H   0  0  0  0  0  0  0  0  0  0  0  0
    0.1233    1.9651    3.0881 H   0  0  0  0  0  0  0  0  0  0  0  0
   -1.2712    2.7656    2.3801 H   0  0  0  0  0  0  0  0  0  0  0  0
   -0.3783    3.4120    6.5381 H   0  0  0  0  0  0  0  0  0  0  0  0
   -0.6304    1.4070    7.4727 H   0  0  0  0  0  0  0  0  0  0  0  0
   -1.9176    1.3380    6.3306 H   0  0  0  0  0  0  0  0  0  0  0  0
   -0.6938   -0.7618    6.3363 H   0  0  0  0  0  0  0  0  0  0  0  0
   -0.5714    0.0247    4.8123 H   0  0  0  0  0  0  0  0  0  0  0  0
    1.0610   -1.2435    7.7617 H   0  0  0  0  0  0  0  0  0  0  0  0
    1.3774    0.4403    8.1016 H   0  0  0  0  0  0  0  0  0  0  0  0
    2.6834   -0.6030    7.5946 H   0  0  0  0  0  0  0  0  0  0  0  0
    0.3815   -2.5348    5.5824 H   0  0  0  0  0  0  0  0  0  0  0  0
    1.9439   -2.7988    6.3534 H   0  0  0  0  0  0  0  0  0  0  0  0
    1.6571   -3.2884    4.7116 H   0  0  0  0  0  0  0  0  0  0  0  0
    0.3694   -1.1053    3.3980 H   0  0  0  0  0  0  0  0  0  0  0  0
    1.5761    0.1105    3.1651 H   0  0  0  0  0  0  0  0  0  0  0  0
    1.6884   -2.8845    2.6199 H   0  0  0  0  0  0  0  0  0  0  0  0
    1.6589   -1.6404    1.4612 H   0  0  0  0  0  0  0  0  0  0  0  0
    3.6504   -0.4897    0.6323 H   0  0  0  0  0  0  0  0  0  0  0  0
    4.9891   -0.2353    1.7639 H   0  0  0  0  0  0  0  0  0  0  0  0
    3.3795    0.3502    2.1039 H   0  0  0  0  0  0  0  0  0  0  0  0
    3.4121   -3.0975    0.5996 H   0  0  0  0  0  0  0  0  0  0  0  0
    6.2591   -2.4077    1.3813 H   0  0  0  0  0  0  0  0  0  0  0  0
    5.3732   -1.6892    0.0731 H   0  0  0  0  0  0  0  0  0  0  0  0
  1  2  1  0
  1 37  1  0
  1 38  1  0
  1 39  1  0
  2 36  1  0
  2  3  1  0
  2  4  1  0
  3 40  1  0
  3 41  1  0
  3 42  1  0
  4  5  1  0
  4 43  1  0
  4 44  1  0
  5  6  1  0
  5 45  1  0
  5 46  1  0
  6 35  1  0
  6  7  1  1
  6  8  1  0
  7 47  1  0
  7 48  1  0
  7 49  1  0
  8  9  1  0
  8 50  1  0
  8 51  1  0
  9 10  1  0
  9 52  1  0
  9 53  1  0
 10 33  1  0
 10 11  1  0
 10 54  1  6
 11 29  1  0
 11 12  1  0
 11 55  1  1
 12 13  1  0
 12 56  1  0
 12 57  1  0
 13 14  2  0
 13 15  1  0
 15 27  1  0
 15 16  2  0
 16 24  1  0
 16 17  1  0
 17 18  1  0
 17 58  1  0
 17 59  1  0
 18 19  1  0
 18 60  1  0
 18 61  1  0
 19 20  1  0
 19 21  1  0
 19 62  1  1
 20 63  1  0
 21 22  1  0
 21 23  1  0
 21 24  1  0
 22 64  1  0
 22 65  1  0
 22 66  1  0
 23 67  1  0
 23 68  1  0
 23 69  1  0
 24 25  1  0
 24 70  1  1
 25 26  1  0
 25 71  1  0
 25 72  1  0
 26 27  1  0
 26 73  1  0
 26 74  1  0
 27 28  1  1
 27 29  1  0
 28 75  1  0
 28 76  1  0
 28 77  1  0
 29 30  1  1
 29 31  1  0
 30 78  1  0
 30 79  1  0
 30 80  1  0
 31 32  1  0
 31 81  1  0
 31 82  1  0
 32 33  1  0
 32 83  1  0
 32 84  1  0
 33 34  1  6
 33 35  1  0
 34 85  1  0
 34 86  1  0
 34 87  1  0
 35 36  1  0
 35 88  1  6
 36 89  1  0
 36 90  1  0
M  END
>  <i_m_ct_stereo_status>  (278) 
1

>  <s_m_source_file>  (278) 
/var/tmp/pbs.5076255.sched01/tmpfes5ahby/80lk6pwr5_.sdf

>  <i_m_source_file_index>  (278) 
27

>  <i_lp_mmshare_version>  (278) 
48012

>  <i_f3d_flags>  (278) 
0

>  <s_epik_input>  (278) 
W0NIMl0xW0NIMl1DKFtDSDNdKShbQ0gzXSlbQ0gyXVtDQEBIXShbQ0BAXTEyW0NIM10pW0NAXTMoW0NIM10pW0NASF0oW0NIMl1bQ0gyXTIpW0NAQEhdNFtDQF0oW0NIM10pKFtDSDJdW0NIMl0zKVtDQEBdNShbQ0gzXSlDKEMoPU8pW0NIMl00KT1DNltDQEhdKFtDSDJdW0NIMl01KUMoW0NIM10pKFtDSDNdKVtDQEhdKFtPSF0pW0NIMl1bQ0gyXTY=

>  <s_epik_cmdline>  (278) 
J2VwaWtfcHl0aG9uJywgJy1waHQnLCAnMi4wJywgJy1waCcsICc3LjAnLCAnLXRuJywgJzgnLCAnLW1hJywgJzIwMCcsICctaW1hZScsICc8aW5maWxlLm1hZT4nLCAnLW9tYWUnLCAnPG91dGZpbGUubWFlPic=

>  <r_lp_tautomer_probability>  (278) 
1

>  <r_epik_Ionization_Penalty>  (278) 
3.45753e-07

>  <r_epik_Ionization_Penalty_Charging>  (278) 
0

>  <r_epik_Ionization_Penalty_Neutral>  (278) 
3.45753e-07

>  <r_epik_State_Penalty>  (278) 
-0

>  <r_epik_Charging_Adjusted_Penalty>  (278) 
0

>  <i_epik_Tot_Q>  (278) 
0

>  <i_epik_Tot_abs_Q>  (278) 
0

>  <s_lp_Force_Field>  (278) 
OPLS3e

>  <r_lp_Energy>  (278) 
106.418

>  <b_lp_Chiralities_Consistent>  (278) 
1

>  <s_lp_Variant>  (278) 
66:0-1

>  <s_i_glide_gridfile>  (278) 
pfpi4k_grid

>  <i_i_glide_lignum>  (278) 
27

>  <i_i_glide_rotatable_bonds>  (278) 
1

>  <r_i_docking_score>  (278) 
-3.20498

>  <r_i_glide_ligand_efficiency>  (278) 
-0.0890273

>  <r_i_glide_ligand_efficiency_sa>  (278) 
-0.293962

>  <r_i_glide_ligand_efficiency_ln>  (278) 
-0.69924

>  <r_i_glide_gscore>  (278) 
-3.20498

>  <r_i_glide_lipo>  (278) 
-0.47284

>  <r_i_glide_hbond>  (278) 
-0.316661

>  <r_i_glide_metal>  (278) 
-0

>  <r_i_glide_rewards>  (278) 
-0.0355135

>  <r_i_glide_evdw>  (278) 
-27.8597

>  <r_i_glide_ecoul>  (278) 
-6.57986

>  <r_i_glide_erotb>  (278) 
0

>  <r_i_glide_esite>  (278) 
0

>  <r_i_glide_emodel>  (278) 
-42.0575

>  <r_i_glide_energy>  (278) 
-34.4396

>  <r_i_glide_einternal>  (278) 
0.288471

>  <r_i_glide_intrahb_reward>  (278) 
-0

>  <i_i_glide_confnum>  (278) 
1

>  <i_i_glide_posenum>  (278) 
7

>  <r_i_glide_eff_state_penalty>  (278) 
0

>  <ligand_id>  (278) 
66

>  <original_smiles>  (278) 
CC1(C)CCC2(C)CCC3C4CC(=O)C5=C6CCC(O)C(C)(C)C6CCC5(C)C4(C)CCC3(C)C2C1

>  <smiles>  (278) 
[H]OC1([H])C([H])([H])C([H])([H])C2=C3C(=O)C([H])([H])C4([H])C5([H])C([H])([H])C([H])([H])C6(C([H])([H])[H])C([H])([H])C([H])([H])C(C([H])([H])[H])(C([H])([H])[H])C([H])([H])C6([H])C5(C([H])([H])[H])C([H])([H])C([H])([H])C4(C([H])([H])[H])C3(C([H])([H])[H])C([H])([H])C([H])([H])C2([H])C1(C([H])([H])[H])C([H])([H])[H]

$$$$
66:0:2
     RDKit          3D

 90 95  0  0  1  0  0  0  0  0999 V2000
   -2.5724    3.2773    5.4543 C   0  0  0  0  0  0  0  0  0  0  0  0
   -1.0390    3.3559    5.4445 C   0  0  0  0  0  0  0  0  0  0  0  0
   -0.6218    4.6402    4.6845 C   0  0  0  0  0  0  0  0  0  0  0  0
   -0.5399    3.3759    6.8916 C   0  0  0  0  0  0  0  0  0  0  0  0
    0.9855    3.3295    6.9558 C   0  0  0  0  0  0  0  0  0  0  0  0
    1.6501    2.1446    6.1956 C   0  0  1  0  0  0  0  0  0  0  0  0
    3.1543    2.5089    6.2365 C   0  0  0  0  0  0  0  0  0  0  0  0
    1.4044    0.8323    6.9649 C   0  0  0  0  0  0  0  0  0  0  0  0
    2.0740   -0.3728    6.2927 C   0  0  0  0  0  0  0  0  0  0  0  0
    1.6839   -0.5930    4.8088 C   0  0  2  0  0  0  0  0  0  0  0  0
    2.4978   -1.7971    4.1925 C   0  0  1  0  0  0  0  0  0  0  0  0
    1.5378   -2.6476    3.3271 C   0  0  0  0  0  0  0  0  0  0  0  0
    2.2131   -3.7388    2.5236 C   0  0  0  0  0  0  0  0  0  0  0  0
    1.7152   -4.8651    2.5222 O   0  0  0  0  0  0  0  0  0  0  0  0
    3.4454   -3.3786    1.8072 C   0  0  0  0  0  0  0  0  0  0  0  0
    3.6257   -3.7118    0.4996 C   0  0  0  0  0  0  0  0  0  0  0  0
    2.5624   -4.2794   -0.4208 C   0  0  0  0  0  0  0  0  0  0  0  0
    2.4355   -3.4530   -1.7111 C   0  0  0  0  0  0  0  0  0  0  0  0
    3.7735   -3.2843   -2.4365 C   0  0  1  0  0  0  0  0  0  0  0  0
    3.5438   -2.4858   -3.5873 O   0  0  0  0  0  0  0  0  0  0  0  0
    4.8863   -2.7182   -1.5005 C   0  0  0  0  0  0  0  0  0  0  0  0
    6.2028   -2.8262   -2.2746 C   0  0  0  0  0  0  0  0  0  0  0  0
    4.6037   -1.2294   -1.1660 C   0  0  0  0  0  0  0  0  0  0  0  0
    4.9655   -3.6101   -0.2191 C   0  0  1  0  0  0  0  0  0  0  0  0
    6.1158   -3.3454    0.7693 C   0  0  0  0  0  0  0  0  0  0  0  0
    5.7386   -2.3337    1.8529 C   0  0  0  0  0  0  0  0  0  0  0  0
    4.4942   -2.7229    2.7123 C   0  0  2  0  0  0  0  0  0  0  0  0
    4.9566   -3.8303    3.7093 C   0  0  0  0  0  0  0  0  0  0  0  0
    3.8815   -1.4593    3.5020 C   0  0  2  0  0  0  0  0  0  0  0  0
    4.9153   -1.0336    4.5762 C   0  0  0  0  0  0  0  0  0  0  0  0
    3.6466   -0.2350    2.5718 C   0  0  0  0  0  0  0  0  0  0  0  0
    2.9782    0.9859    3.2503 C   0  0  0  0  0  0  0  0  0  0  0  0
    1.6071    0.7052    3.9198 C   0  0  1  0  0  0  0  0  0  0  0  0
    0.6433    0.4779    2.7164 C   0  0  0  0  0  0  0  0  0  0  0  0
    1.0845    1.9750    4.7329 C   0  0  1  0  0  0  0  0  0  0  0  0
   -0.4779    2.1008    4.7513 C   0  0  0  0  0  0  0  0  0  0  0  0
   -2.9961    4.1348    5.9688 H   0  0  0  0  0  0  0  0  0  0  0  0
   -2.9240    2.4005    5.9899 H   0  0  0  0  0  0  0  0  0  0  0  0
   -2.9814    3.2504    4.4450 H   0  0  0  0  0  0  0  0  0  0  0  0
    0.4606    4.7610    4.6159 H   0  0  0  0  0  0  0  0  0  0  0  0
   -0.9900    5.5347    5.1920 H   0  0  0  0  0  0  0  0  0  0  0  0
   -1.0023    4.6336    3.6570 H   0  0  0  0  0  0  0  0  0  0  0  0
   -0.9063    4.2619    7.4114 H   0  0  0  0  0  0  0  0  0  0  0  0
   -0.9472    2.5263    7.4348 H   0  0  0  0  0  0  0  0  0  0  0  0
    1.3757    4.2721    6.5711 H   0  0  0  0  0  0  0  0  0  0  0  0
    1.2774    3.3101    8.0054 H   0  0  0  0  0  0  0  0  0  0  0  0
    3.8146    1.6793    6.0160 H   0  0  0  0  0  0  0  0  0  0  0  0
    3.4526    2.8551    7.2290 H   0  0  0  0  0  0  0  0  0  0  0  0
    3.3843    3.3106    5.5322 H   0  0  0  0  0  0  0  0  0  0  0  0
    1.7468    0.9220    8.0019 H   0  0  0  0  0  0  0  0  0  0  0  0
    0.3383    0.6298    7.0296 H   0  0  0  0  0  0  0  0  0  0  0  0
    3.1475   -0.3149    6.4404 H   0  0  0  0  0  0  0  0  0  0  0  0
    1.7742   -1.2578    6.8512 H   0  0  0  0  0  0  0  0  0  0  0  0
    0.6513   -0.9410    4.8944 H   0  0  0  0  0  0  0  0  0  0  0  0
    2.7373   -2.4556    5.0301 H   0  0  0  0  0  0  0  0  0  0  0  0
    0.8096   -3.1232    3.9861 H   0  0  0  0  0  0  0  0  0  0  0  0
    0.9648   -2.0540    2.6219 H   0  0  0  0  0  0  0  0  0  0  0  0
    2.8678   -5.2887   -0.6673 H   0  0  0  0  0  0  0  0  0  0  0  0
    1.5915   -4.3792    0.0377 H   0  0  0  0  0  0  0  0  0  0  0  0
    1.6967   -3.9194   -2.3675 H   0  0  0  0  0  0  0  0  0  0  0  0
    2.0640   -2.4652   -1.4912 H   0  0  0  0  0  0  0  0  0  0  0  0
    4.1024   -4.2542   -2.7969 H   0  0  0  0  0  0  0  0  0  0  0  0
    2.7279   -2.7714   -3.9763 H   0  0  0  0  0  0  0  0  0  0  0  0
    7.0399   -2.3280   -1.7884 H   0  0  0  0  0  0  0  0  0  0  0  0
    6.0408   -2.3688   -3.2376 H   0  0  0  0  0  0  0  0  0  0  0  0
    6.4768   -3.8558   -2.4728 H   0  0  0  0  0  0  0  0  0  0  0  0
    5.4578   -0.7554   -0.6827 H   0  0  0  0  0  0  0  0  0  0  0  0
    3.7413   -1.1284   -0.5067 H   0  0  0  0  0  0  0  0  0  0  0  0
    4.3910   -0.6375   -2.0588 H   0  0  0  0  0  0  0  0  0  0  0  0
    5.1585   -4.6156   -0.6027 H   0  0  0  0  0  0  0  0  0  0  0  0
    6.3754   -4.2922    1.2426 H   0  0  0  0  0  0  0  0  0  0  0  0
    7.0295   -3.0300    0.2636 H   0  0  0  0  0  0  0  0  0  0  0  0
    6.6107   -2.1973    2.4800 H   0  0  0  0  0  0  0  0  0  0  0  0
    5.6120   -1.3894    1.3492 H   0  0  0  0  0  0  0  0  0  0  0  0
    5.8293   -3.5295    4.2812 H   0  0  0  0  0  0  0  0  0  0  0  0
    5.2199   -4.7553    3.1923 H   0  0  0  0  0  0  0  0  0  0  0  0
    4.1912   -4.0943    4.4429 H   0  0  0  0  0  0  0  0  0  0  0  0
    5.9007   -0.8930    4.1446 H   0  0  0  0  0  0  0  0  0  0  0  0
    4.9941   -1.7561    5.3883 H   0  0  0  0  0  0  0  0  0  0  0  0
    4.6903   -0.0840    5.0382 H   0  0  0  0  0  0  0  0  0  0  0  0
    4.5879    0.1514    2.1865 H   0  0  0  0  0  0  0  0  0  0  0  0
    3.0833   -0.5433    1.6933 H   0  0  0  0  0  0  0  0  0  0  0  0
    3.6861    1.4306    3.9364 H   0  0  0  0  0  0  0  0  0  0  0  0
    2.8536    1.7625    2.4928 H   0  0  0  0  0  0  0  0  0  0  0  0
    0.4359    1.4129    2.1874 H   0  0  0  0  0  0  0  0  0  0  0  0
   -0.3071    0.0501    3.0382 H   0  0  0  0  0  0  0  0  0  0  0  0
    1.0297   -0.1808    1.9442 H   0  0  0  0  0  0  0  0  0  0  0  0
    1.4260    2.8341    4.1611 H   0  0  0  0  0  0  0  0  0  0  0  0
   -0.8913    1.2206    5.2365 H   0  0  0  0  0  0  0  0  0  0  0  0
   -0.9020    2.1181    3.7477 H   0  0  0  0  0  0  0  0  0  0  0  0
  1  2  1  0
  1 37  1  0
  1 38  1  0
  1 39  1  0
  2 36  1  0
  2  3  1  0
  2  4  1  0
  3 40  1  0
  3 41  1  0
  3 42  1  0
  4  5  1  0
  4 43  1  0
  4 44  1  0
  5  6  1  0
  5 45  1  0
  5 46  1  0
  6 35  1  0
  6  7  1  6
  6  8  1  0
  7 47  1  0
  7 48  1  0
  7 49  1  0
  8  9  1  0
  8 50  1  0
  8 51  1  0
  9 10  1  0
  9 52  1  0
  9 53  1  0
 10 33  1  0
 10 11  1  0
 10 54  1  1
 11 29  1  0
 11 12  1  0
 11 55  1  1
 12 13  1  0
 12 56  1  0
 12 57  1  0
 13 14  2  0
 13 15  1  0
 15 27  1  0
 15 16  2  0
 16 24  1  0
 16 17  1  0
 17 18  1  0
 17 58  1  0
 17 59  1  0
 18 19  1  0
 18 60  1  0
 18 61  1  0
 19 20  1  0
 19 21  1  0
 19 62  1  6
 20 63  1  0
 21 22  1  0
 21 23  1  0
 21 24  1  0
 22 64  1  0
 22 65  1  0
 22 66  1  0
 23 67  1  0
 23 68  1  0
 23 69  1  0
 24 25  1  0
 24 70  1  6
 25 26  1  0
 25 71  1  0
 25 72  1  0
 26 27  1  0
 26 73  1  0
 26 74  1  0
 27 28  1  1
 27 29  1  0
 28 75  1  0
 28 76  1  0
 28 77  1  0
 29 30  1  1
 29 31  1  0
 30 78  1  0
 30 79  1  0
 30 80  1  0
 31 32  1  0
 31 81  1  0
 31 82  1  0
 32 33  1  0
 32 83  1  0
 32 84  1  0
 33 34  1  6
 33 35  1  0
 34 85  1  0
 34 86  1  0
 34 87  1  0
 35 36  1  0
 35 88  1  6
 36 89  1  0
 36 90  1  0
M  END
>  <i_m_ct_stereo_status>  (279) 
1

>  <s_m_source_file>  (279) 
/var/tmp/pbs.5076255.sched01/tmpfes5ahby/80lk6pwr5_.sdf

>  <i_m_source_file_index>  (279) 
27

>  <i_lp_mmshare_version>  (279) 
48012

>  <i_f3d_flags>  (279) 
0

>  <s_epik_input>  (279) 
W0NIMl0xW0NIMl1DKFtDSDNdKShbQ0gzXSlbQ0gyXVtDQEBIXShbQ0BAXTEyW0NIM10pW0NAXTMoW0NIM10pW0NASF0oW0NIMl1bQ0gyXTIpW0NAQEhdNFtDQF0oW0NIM10pKFtDSDJdW0NIMl0zKVtDQEBdNShbQ0gzXSlDKEMoPU8pW0NIMl00KT1DNltDQEhdKFtDSDJdW0NIMl01KUMoW0NIM10pKFtDSDNdKVtDQEhdKFtPSF0pW0NIMl1bQ0gyXTY=

>  <s_epik_cmdline>  (279) 
J2VwaWtfcHl0aG9uJywgJy1waHQnLCAnMi4wJywgJy1waCcsICc3LjAnLCAnLXRuJywgJzgnLCAnLW1hJywgJzIwMCcsICctaW1hZScsICc8aW5maWxlLm1hZT4nLCAnLW9tYWUnLCAnPG91dGZpbGUubWFlPic=

>  <r_lp_tautomer_probability>  (279) 
1

>  <r_epik_Ionization_Penalty>  (279) 
3.45753e-07

>  <r_epik_Ionization_Penalty_Charging>  (279) 
0

>  <r_epik_Ionization_Penalty_Neutral>  (279) 
3.45753e-07

>  <r_epik_State_Penalty>  (279) 
-0

>  <r_epik_Charging_Adjusted_Penalty>  (279) 
0

>  <i_epik_Tot_Q>  (279) 
0

>  <i_epik_Tot_abs_Q>  (279) 
0

>  <s_lp_Force_Field>  (279) 
OPLS3e

>  <r_lp_Energy>  (279) 
106.418

>  <b_lp_Chiralities_Consistent>  (279) 
1

>  <s_lp_Variant>  (279) 
66:0-1

>  <s_i_glide_gridfile>  (279) 
pfpi4k_grid

>  <i_i_glide_lignum>  (279) 
27

>  <i_i_glide_rotatable_bonds>  (279) 
1

>  <r_i_docking_score>  (279) 
-2.50995

>  <r_i_glide_ligand_efficiency>  (279) 
-0.0697209

>  <r_i_glide_ligand_efficiency_sa>  (279) 
-0.230213

>  <r_i_glide_ligand_efficiency_ln>  (279) 
-0.547604

>  <r_i_glide_gscore>  (279) 
-2.50995

>  <r_i_glide_lipo>  (279) 
-0.527321

>  <r_i_glide_hbond>  (279) 
0

>  <r_i_glide_metal>  (279) 
-0

>  <r_i_glide_rewards>  (279) 
-0.0355135

>  <r_i_glide_evdw>  (279) 
-28.2824

>  <r_i_glide_ecoul>  (279) 
-3.51653

>  <r_i_glide_erotb>  (279) 
0

>  <r_i_glide_esite>  (279) 
-0.00551588

>  <r_i_glide_emodel>  (279) 
-37.5114

>  <r_i_glide_energy>  (279) 
-31.799

>  <r_i_glide_einternal>  (279) 
0.605705

>  <r_i_glide_intrahb_reward>  (279) 
-0

>  <i_i_glide_confnum>  (279) 
1

>  <i_i_glide_posenum>  (279) 
14

>  <r_i_glide_eff_state_penalty>  (279) 
0

>  <ligand_id>  (279) 
66

>  <original_smiles>  (279) 
CC1(C)CCC2(C)CCC3C4CC(=O)C5=C6CCC(O)C(C)(C)C6CCC5(C)C4(C)CCC3(C)C2C1

>  <smiles>  (279) 
[H]OC1([H])C([H])([H])C([H])([H])C2=C3C(=O)C([H])([H])C4([H])C5([H])C([H])([H])C([H])([H])C6(C([H])([H])[H])C([H])([H])C([H])([H])C(C([H])([H])[H])(C([H])([H])[H])C([H])([H])C6([H])C5(C([H])([H])[H])C([H])([H])C([H])([H])C4(C([H])([H])[H])C3(C([H])([H])[H])C([H])([H])C([H])([H])C2([H])C1(C([H])([H])[H])C([H])([H])[H]

$$$$
67:0:0
     RDKit          3D

 36 39  0  0  1  0  0  0  0  0999 V2000
    7.1853   -2.9533   -0.9078 C   0  0  0  0  0  0  0  0  0  0  0  0
    6.3468   -1.8541   -1.3242 O   0  0  0  0  0  0  0  0  0  0  0  0
    5.0318   -1.7876   -0.8934 C   0  0  1  0  0  0  0  0  0  0  0  0
    4.0870   -1.7581   -2.1293 C   0  0  0  0  0  0  0  0  0  0  0  0
    3.8998   -3.2331   -2.5030 C   0  0  1  0  0  0  0  0  0  0  0  0
    4.8299   -3.6312   -3.6621 C   0  0  0  0  0  0  0  0  0  0  0  0
    4.0726   -4.0292   -1.1805 C   0  0  0  0  0  0  0  0  0  0  0  0
    4.5409   -3.0235   -0.0693 C   0  0  2  0  0  0  0  0  0  0  0  0
    3.5544   -2.3253    0.8128 C   0  0  0  0  0  0  0  0  0  0  0  0
    2.6049   -2.7268    1.8414 C   0  0  0  0  0  0  0  0  0  0  0  0
    2.2234   -3.8714    2.1194 O   0  0  0  0  0  0  0  0  0  0  0  0
    2.1784   -1.4411    2.4428 C   0  0  0  0  0  0  0  0  0  0  0  0
    1.2133   -1.1884    3.4369 C   0  0  0  0  0  0  0  0  0  0  0  0
    0.9735    0.1610    3.8166 C   0  0  0  0  0  0  0  0  0  0  0  0
    1.7015    1.2151    3.2012 C   0  0  0  0  0  0  0  0  0  0  0  0
    2.6723    0.9465    2.2067 C   0  0  0  0  0  0  0  0  0  0  0  0
    2.8868   -0.3994    1.8307 C   0  0  0  0  0  0  0  0  0  0  0  0
    3.7365   -1.0286    0.8329 C   0  0  0  0  0  0  0  0  0  0  0  0
    4.7242   -0.6032   -0.0112 N   0  0  0  0  0  0  0  0  0  0  0  0
    8.1168   -2.9088   -1.4152 H   0  0  0  0  0  0  0  0  0  0  0  0
    6.6681   -3.9199   -1.0932 H   0  0  0  0  0  0  0  0  0  0  0  0
    7.4086   -2.8397    0.1561 H   0  0  0  0  0  0  0  0  0  0  0  0
    3.1010   -1.3648   -1.8441 H   0  0  0  0  0  0  0  0  0  0  0  0
    4.4532   -1.1049   -2.9372 H   0  0  0  0  0  0  0  0  0  0  0  0
    2.8698   -3.3960   -2.8692 H   0  0  0  0  0  0  0  0  0  0  0  0
    5.8848   -3.4300   -3.4425 H   0  0  0  0  0  0  0  0  0  0  0  0
    4.5950   -3.0725   -4.5635 H   0  0  0  0  0  0  0  0  0  0  0  0
    4.7480   -4.6866   -3.9113 H   0  0  0  0  0  0  0  0  0  0  0  0
    3.1896   -4.5729   -0.8870 H   0  0  0  0  0  0  0  0  0  0  0  0
    4.9098   -4.7253   -1.3317 H   0  0  0  0  0  0  0  0  0  0  0  0
    5.2997   -3.4337    0.5513 H   0  0  0  0  0  0  0  0  0  0  0  0
    4.6915    0.3241   -0.4181 H   0  0  0  0  0  0  0  0  0  0  0  0
    0.6600   -1.9951    3.8965 H   0  0  0  0  0  0  0  0  0  0  0  0
    0.2507    0.3847    4.5666 H   0  0  0  0  0  0  0  0  0  0  0  0
    1.5040    2.2274    3.4933 H   0  0  0  0  0  0  0  0  0  0  0  0
    3.2121    1.7330    1.7405 H   0  0  0  0  0  0  0  0  0  0  0  0
  1  2  1  0
  1 20  1  0
  1 21  1  0
  1 22  1  0
  3  2  1  6
  3  8  1  0
  3  4  1  0
  3 19  1  0
  4  5  1  0
  4 23  1  0
  4 24  1  0
  5  6  1  0
  5  7  1  0
  5 25  1  6
  6 26  1  0
  6 27  1  0
  6 28  1  0
  7  8  1  0
  7 29  1  0
  7 30  1  0
  8 31  1  1
  8  9  1  0
  9 10  1  0
  9 18  2  0
 10 11  2  0
 10 12  1  0
 12 17  2  0
 12 13  1  0
 13 14  2  0
 13 33  1  0
 14 15  1  0
 14 34  1  0
 15 16  2  0
 15 35  1  0
 16 17  1  0
 16 36  1  0
 17 18  1  0
 18 19  1  0
 19 32  1  0
M  END
>  <i_m_ct_stereo_status>  (280) 
1

>  <s_m_source_file>  (280) 
/var/tmp/pbs.5076255.sched01/tmpfes5ahby/80lk6pwr5_.sdf

>  <i_m_source_file_index>  (280) 
28

>  <i_lp_mmshare_version>  (280) 
48012

>  <i_f3d_flags>  (280) 
0

>  <s_epik_input>  (280) 
W0NIM11PW0NAXTEyW0NASF0oW0NIMl1bQ0BASF0oW0NIMl0xKVtDSDNdKVtDQEhdM0MoPU4yKWM0YyhDMz1PKVtjSF1bY0hdW2NIXVtjSF00

>  <s_epik_cmdline>  (280) 
J2VwaWtfcHl0aG9uJywgJy1waHQnLCAnMi4wJywgJy1waCcsICc3LjAnLCAnLXRuJywgJzgnLCAnLW1hJywgJzIwMCcsICctaW1hZScsICc8aW5maWxlLm1hZT4nLCAnLW9tYWUnLCAnPG91dGZpbGUubWFlPic=

>  <r_lp_tautomer_probability>  (280) 
1

>  <r_epik_Ionization_Penalty>  (280) 
0.151023

>  <r_epik_Ionization_Penalty_Charging>  (280) 
0.151023

>  <r_epik_Ionization_Penalty_Neutral>  (280) 
9.69737e-10

>  <r_epik_State_Penalty>  (280) 
0.140314

>  <r_epik_Charging_Adjusted_Penalty>  (280) 
0.291337

>  <i_epik_Tot_Q>  (280) 
0

>  <i_epik_Tot_abs_Q>  (280) 
0

>  <s_epik_Chemistry_Notes>  (280) 
This compound has an imine and may undergo hydrolysis.

>  <s_lp_Force_Field>  (280) 
OPLS3e

>  <r_lp_Energy>  (280) 
18.0728

>  <b_lp_Chiralities_Consistent>  (280) 
1

>  <s_lp_Variant>  (280) 
67:0-1

>  <s_i_glide_gridfile>  (280) 
pfpi4k_grid

>  <i_i_glide_lignum>  (280) 
28

>  <i_i_glide_rotatable_bonds>  (280) 
1

>  <r_i_docking_score>  (280) 
-3.94664

>  <r_i_glide_ligand_efficiency>  (280) 
-0.207718

>  <r_i_glide_ligand_efficiency_sa>  (280) 
-0.554275

>  <r_i_glide_ligand_efficiency_ln>  (280) 
-1.00056

>  <r_i_glide_gscore>  (280) 
-3.94664

>  <r_i_glide_lipo>  (280) 
-0.190168

>  <r_i_glide_hbond>  (280) 
-0.474483

>  <r_i_glide_metal>  (280) 
-0

>  <r_i_glide_rewards>  (280) 
-1.66833

>  <r_i_glide_evdw>  (280) 
-21.1446

>  <r_i_glide_ecoul>  (280) 
-3.4232

>  <r_i_glide_erotb>  (280) 
0

>  <r_i_glide_esite>  (280) 
-0.0429536

>  <r_i_glide_emodel>  (280) 
-20.0147

>  <r_i_glide_energy>  (280) 
-24.5678

>  <r_i_glide_einternal>  (280) 
18.1361

>  <r_i_glide_intrahb_reward>  (280) 
-0

>  <i_i_glide_confnum>  (280) 
2

>  <i_i_glide_posenum>  (280) 
10

>  <r_i_glide_eff_state_penalty>  (280) 
0

>  <ligand_id>  (280) 
67

>  <original_smiles>  (280) 
COC12CC(C)CC1C1C(=O)c3ccccc3C1=N2

>  <smiles>  (280) 
[H]c1c([H])c([H])c2c(c1[H])C(=O)C1=C2N([H])C2(OC([H])([H])[H])C([H])([H])C([H])(C([H])([H])[H])C([H])([H])C12[H]

$$$$
67:0:1
     RDKit          3D

 36 39  0  0  1  0  0  0  0  0999 V2000
    4.6077   -1.0485    3.4317 C   0  0  0  0  0  0  0  0  0  0  0  0
    3.7296   -2.1406    3.2205 O   0  0  0  0  0  0  0  0  0  0  0  0
    2.3695   -1.8743    3.4403 C   0  0  1  0  0  0  0  0  0  0  0  0
    1.5856   -3.1207    3.0066 C   0  0  0  0  0  0  0  0  0  0  0  0
    1.5905   -4.1002    4.1995 C   0  0  1  0  0  0  0  0  0  0  0  0
    2.6365   -5.2179    3.9787 C   0  0  0  0  0  0  0  0  0  0  0  0
    1.7990   -3.2236    5.4545 C   0  0  0  0  0  0  0  0  0  0  0  0
    2.0546   -1.7768    4.9824 C   0  0  2  0  0  0  0  0  0  0  0  0
    0.9309   -0.7736    4.8651 C   0  0  0  0  0  0  0  0  0  0  0  0
   -0.0837   -0.1876    5.7518 C   0  0  0  0  0  0  0  0  0  0  0  0
   -0.4044   -0.5046    6.8955 O   0  0  0  0  0  0  0  0  0  0  0  0
   -0.7217    0.8455    4.8887 C   0  0  0  0  0  0  0  0  0  0  0  0
   -1.7648    1.7480    5.1859 C   0  0  0  0  0  0  0  0  0  0  0  0
   -2.1802    2.6277    4.1569 C   0  0  0  0  0  0  0  0  0  0  0  0
   -1.5532    2.6123    2.8903 C   0  0  0  0  0  0  0  0  0  0  0  0
   -0.5038    1.7273    2.6062 C   0  0  0  0  0  0  0  0  0  0  0  0
   -0.1197    0.8322    3.6196 C   0  0  0  0  0  0  0  0  0  0  0  0
    0.8795   -0.1900    3.6959 C   0  0  0  0  0  0  0  0  0  0  0  0
    1.7921   -0.6841    2.7848 N   0  0  0  0  0  0  0  0  0  0  0  0
    5.6255   -1.4264    3.5498 H   0  0  0  0  0  0  0  0  0  0  0  0
    4.3725   -0.4527    4.3169 H   0  0  0  0  0  0  0  0  0  0  0  0
    4.5675   -0.3864    2.5673 H   0  0  0  0  0  0  0  0  0  0  0  0
    0.5456   -2.8246    2.8829 H   0  0  0  0  0  0  0  0  0  0  0  0
    1.9395   -3.5349    2.0569 H   0  0  0  0  0  0  0  0  0  0  0  0
    0.6093   -4.5978    4.2694 H   0  0  0  0  0  0  0  0  0  0  0  0
    3.6313   -4.7994    3.8193 H   0  0  0  0  0  0  0  0  0  0  0  0
    2.3983   -5.8148    3.0944 H   0  0  0  0  0  0  0  0  0  0  0  0
    2.6907   -5.9008    4.8253 H   0  0  0  0  0  0  0  0  0  0  0  0
    1.0201   -3.3303    6.2187 H   0  0  0  0  0  0  0  0  0  0  0  0
    2.7119   -3.5724    5.9157 H   0  0  0  0  0  0  0  0  0  0  0  0
    2.8416   -1.3126    5.5777 H   0  0  0  0  0  0  0  0  0  0  0  0
    1.6555   -0.6528    1.7744 H   0  0  0  0  0  0  0  0  0  0  0  0
   -2.2465    1.7441    6.1615 H   0  0  0  0  0  0  0  0  0  0  0  0
   -3.0007    3.3079    4.3414 H   0  0  0  0  0  0  0  0  0  0  0  0
   -1.8955    3.3030    2.1276 H   0  0  0  0  0  0  0  0  0  0  0  0
   -0.0293    1.7239    1.6351 H   0  0  0  0  0  0  0  0  0  0  0  0
  1  2  1  0
  1 20  1  0
  1 21  1  0
  1 22  1  0
  3  2  1  1
  3  8  1  0
  3  4  1  0
  3 19  1  0
  4  5  1  0
  4 23  1  0
  4 24  1  0
  5  6  1  0
  5  7  1  0
  5 25  1  1
  6 26  1  0
  6 27  1  0
  6 28  1  0
  7  8  1  0
  7 29  1  0
  7 30  1  0
  8 31  1  1
  8  9  1  0
  9 10  1  0
  9 18  2  0
 10 11  2  0
 10 12  1  0
 12 17  2  0
 12 13  1  0
 13 14  2  0
 13 33  1  0
 14 15  1  0
 14 34  1  0
 15 16  2  0
 15 35  1  0
 16 17  1  0
 16 36  1  0
 17 18  1  0
 18 19  1  0
 19 32  1  0
M  END
>  <i_m_ct_stereo_status>  (281) 
1

>  <s_m_source_file>  (281) 
/var/tmp/pbs.5076255.sched01/tmpfes5ahby/80lk6pwr5_.sdf

>  <i_m_source_file_index>  (281) 
28

>  <i_lp_mmshare_version>  (281) 
48012

>  <i_f3d_flags>  (281) 
0

>  <s_epik_input>  (281) 
W0NIM11PW0NAXTEyW0NASF0oW0NIMl1bQ0BASF0oW0NIMl0xKVtDSDNdKVtDQEhdM0MoPU4yKWM0YyhDMz1PKVtjSF1bY0hdW2NIXVtjSF00

>  <s_epik_cmdline>  (281) 
J2VwaWtfcHl0aG9uJywgJy1waHQnLCAnMi4wJywgJy1waCcsICc3LjAnLCAnLXRuJywgJzgnLCAnLW1hJywgJzIwMCcsICctaW1hZScsICc8aW5maWxlLm1hZT4nLCAnLW9tYWUnLCAnPG91dGZpbGUubWFlPic=

>  <r_lp_tautomer_probability>  (281) 
1

>  <r_epik_Ionization_Penalty>  (281) 
0.151023

>  <r_epik_Ionization_Penalty_Charging>  (281) 
0.151023

>  <r_epik_Ionization_Penalty_Neutral>  (281) 
9.69737e-10

>  <r_epik_State_Penalty>  (281) 
0.140314

>  <r_epik_Charging_Adjusted_Penalty>  (281) 
0.291337

>  <i_epik_Tot_Q>  (281) 
0

>  <i_epik_Tot_abs_Q>  (281) 
0

>  <s_epik_Chemistry_Notes>  (281) 
This compound has an imine and may undergo hydrolysis.

>  <s_lp_Force_Field>  (281) 
OPLS3e

>  <r_lp_Energy>  (281) 
18.0728

>  <b_lp_Chiralities_Consistent>  (281) 
1

>  <s_lp_Variant>  (281) 
67:0-1

>  <s_i_glide_gridfile>  (281) 
pfpi4k_grid

>  <i_i_glide_lignum>  (281) 
28

>  <i_i_glide_rotatable_bonds>  (281) 
1

>  <r_i_docking_score>  (281) 
-2.92643

>  <r_i_glide_ligand_efficiency>  (281) 
-0.154022

>  <r_i_glide_ligand_efficiency_sa>  (281) 
-0.410994

>  <r_i_glide_ligand_efficiency_ln>  (281) 
-0.741912

>  <r_i_glide_gscore>  (281) 
-2.92643

>  <r_i_glide_lipo>  (281) 
-0.0766529

>  <r_i_glide_hbond>  (281) 
-0.0122245

>  <r_i_glide_metal>  (281) 
-0

>  <r_i_glide_rewards>  (281) 
-1.66833

>  <r_i_glide_evdw>  (281) 
-15.5059

>  <r_i_glide_ecoul>  (281) 
-2.35286

>  <r_i_glide_erotb>  (281) 
0

>  <r_i_glide_esite>  (281) 
-0.0409947

>  <r_i_glide_emodel>  (281) 
-20.4382

>  <r_i_glide_energy>  (281) 
-17.8588

>  <r_i_glide_einternal>  (281) 
2.1689

>  <r_i_glide_intrahb_reward>  (281) 
-0

>  <i_i_glide_confnum>  (281) 
2

>  <i_i_glide_posenum>  (281) 
12

>  <r_i_glide_eff_state_penalty>  (281) 
0

>  <ligand_id>  (281) 
67

>  <original_smiles>  (281) 
COC12CC(C)CC1C1C(=O)c3ccccc3C1=N2

>  <smiles>  (281) 
[H]c1c([H])c([H])c2c(c1[H])C(=O)C1=C2N([H])C2(OC([H])([H])[H])C([H])([H])C([H])(C([H])([H])[H])C([H])([H])C12[H]

$$$$
67:0:2
     RDKit          3D

 36 39  0  0  1  0  0  0  0  0999 V2000
    6.6187    0.5241    6.1031 C   0  0  0  0  0  0  0  0  0  0  0  0
    5.3673    0.5100    6.7760 O   0  0  0  0  0  0  0  0  0  0  0  0
    4.3031   -0.1159    6.1139 C   0  0  1  0  0  0  0  0  0  0  0  0
    4.5588   -1.6295    5.8877 C   0  0  0  0  0  0  0  0  0  0  0  0
    4.2114   -2.3234    7.2122 C   0  0  1  0  0  0  0  0  0  0  0  0
    5.4935   -2.6545    8.0043 C   0  0  0  0  0  0  0  0  0  0  0  0
    3.2132   -1.3825    7.9285 C   0  0  0  0  0  0  0  0  0  0  0  0
    3.0853   -0.0877    7.0925 C   0  0  2  0  0  0  0  0  0  0  0  0
    1.9922    0.1134    6.0675 C   0  0  0  0  0  0  0  0  0  0  0  0
    0.5252    0.0641    6.0098 C   0  0  0  0  0  0  0  0  0  0  0  0
   -0.2783   -0.2710    6.8859 O   0  0  0  0  0  0  0  0  0  0  0  0
    0.2419    0.4839    4.6083 C   0  0  0  0  0  0  0  0  0  0  0  0
   -0.9908    0.6416    3.9452 C   0  0  0  0  0  0  0  0  0  0  0  0
   -0.9678    1.0711    2.6016 C   0  0  0  0  0  0  0  0  0  0  0  0
    0.2529    1.3406    1.9447 C   0  0  0  0  0  0  0  0  0  0  0  0
    1.4838    1.1908    2.6107 C   0  0  0  0  0  0  0  0  0  0  0  0
    1.4497    0.7470    3.9399 C   0  0  0  0  0  0  0  0  0  0  0  0
    2.4792    0.4898    4.9108 C   0  0  0  0  0  0  0  0  0  0  0  0
    3.8474    0.5371    4.8742 N   0  0  0  0  0  0  0  0  0  0  0  0
    7.2894    1.1916    6.6487 H   0  0  0  0  0  0  0  0  0  0  0  0
    6.5071    0.8975    5.0820 H   0  0  0  0  0  0  0  0  0  0  0  0
    7.0883   -0.4633    6.0812 H   0  0  0  0  0  0  0  0  0  0  0  0
    3.8224   -1.9744    5.1639 H   0  0  0  0  0  0  0  0  0  0  0  0
    5.5352   -1.8740    5.4661 H   0  0  0  0  0  0  0  0  0  0  0  0
    3.7155   -3.2776    6.9996 H   0  0  0  0  0  0  0  0  0  0  0  0
    6.0791   -1.7574    8.2077 H   0  0  0  0  0  0  0  0  0  0  0  0
    6.1378   -3.3366    7.4460 H   0  0  0  0  0  0  0  0  0  0  0  0
    5.2686   -3.1285    8.9583 H   0  0  0  0  0  0  0  0  0  0  0  0
    2.2582   -1.8538    8.1752 H   0  0  0  0  0  0  0  0  0  0  0  0
    3.6643   -1.1151    8.8811 H   0  0  0  0  0  0  0  0  0  0  0  0
    3.1276    0.8060    7.7187 H   0  0  0  0  0  0  0  0  0  0  0  0
    4.3795    0.4672    4.0148 H   0  0  0  0  0  0  0  0  0  0  0  0
   -1.9302    0.4355    4.4465 H   0  0  0  0  0  0  0  0  0  0  0  0
   -1.8896    1.2052    2.0539 H   0  0  0  0  0  0  0  0  0  0  0  0
    0.2239    1.6570    0.9131 H   0  0  0  0  0  0  0  0  0  0  0  0
    2.4142    1.4038    2.1094 H   0  0  0  0  0  0  0  0  0  0  0  0
  1  2  1  0
  1 20  1  0
  1 21  1  0
  1 22  1  0
  3  2  1  1
  3  8  1  0
  3  4  1  0
  3 19  1  0
  4  5  1  0
  4 23  1  0
  4 24  1  0
  5  6  1  0
  5  7  1  0
  5 25  1  6
  6 26  1  0
  6 27  1  0
  6 28  1  0
  7  8  1  0
  7 29  1  0
  7 30  1  0
  8 31  1  1
  8  9  1  0
  9 10  1  0
  9 18  2  0
 10 11  2  0
 10 12  1  0
 12 17  2  0
 12 13  1  0
 13 14  2  0
 13 33  1  0
 14 15  1  0
 14 34  1  0
 15 16  2  0
 15 35  1  0
 16 17  1  0
 16 36  1  0
 17 18  1  0
 18 19  1  0
 19 32  1  0
M  END
>  <i_m_ct_stereo_status>  (282) 
1

>  <s_m_source_file>  (282) 
/var/tmp/pbs.5076255.sched01/tmpfes5ahby/80lk6pwr5_.sdf

>  <i_m_source_file_index>  (282) 
28

>  <i_lp_mmshare_version>  (282) 
48012

>  <i_f3d_flags>  (282) 
0

>  <s_epik_input>  (282) 
W0NIM11PW0NAXTEyW0NASF0oW0NIMl1bQ0BASF0oW0NIMl0xKVtDSDNdKVtDQEhdM0MoPU4yKWM0YyhDMz1PKVtjSF1bY0hdW2NIXVtjSF00

>  <s_epik_cmdline>  (282) 
J2VwaWtfcHl0aG9uJywgJy1waHQnLCAnMi4wJywgJy1waCcsICc3LjAnLCAnLXRuJywgJzgnLCAnLW1hJywgJzIwMCcsICctaW1hZScsICc8aW5maWxlLm1hZT4nLCAnLW9tYWUnLCAnPG91dGZpbGUubWFlPic=

>  <r_lp_tautomer_probability>  (282) 
1

>  <r_epik_Ionization_Penalty>  (282) 
0.151023

>  <r_epik_Ionization_Penalty_Charging>  (282) 
0.151023

>  <r_epik_Ionization_Penalty_Neutral>  (282) 
9.69737e-10

>  <r_epik_State_Penalty>  (282) 
0.140314

>  <r_epik_Charging_Adjusted_Penalty>  (282) 
0.291337

>  <i_epik_Tot_Q>  (282) 
0

>  <i_epik_Tot_abs_Q>  (282) 
0

>  <s_epik_Chemistry_Notes>  (282) 
This compound has an imine and may undergo hydrolysis.

>  <s_lp_Force_Field>  (282) 
OPLS3e

>  <r_lp_Energy>  (282) 
18.0728

>  <b_lp_Chiralities_Consistent>  (282) 
1

>  <s_lp_Variant>  (282) 
67:0-1

>  <s_i_glide_gridfile>  (282) 
pfpi4k_grid

>  <i_i_glide_lignum>  (282) 
28

>  <i_i_glide_rotatable_bonds>  (282) 
1

>  <r_i_docking_score>  (282) 
-2.7478

>  <r_i_glide_ligand_efficiency>  (282) 
-0.144621

>  <r_i_glide_ligand_efficiency_sa>  (282) 
-0.385907

>  <r_i_glide_ligand_efficiency_ln>  (282) 
-0.696625

>  <r_i_glide_gscore>  (282) 
-2.7478

>  <r_i_glide_lipo>  (282) 
-0.140965

>  <r_i_glide_hbond>  (282) 
0

>  <r_i_glide_metal>  (282) 
-0

>  <r_i_glide_rewards>  (282) 
-1.67096

>  <r_i_glide_evdw>  (282) 
-13.0134

>  <r_i_glide_ecoul>  (282) 
-1.84101

>  <r_i_glide_erotb>  (282) 
0

>  <r_i_glide_esite>  (282) 
-0.00904928

>  <r_i_glide_emodel>  (282) 
-18.1722

>  <r_i_glide_energy>  (282) 
-14.8544

>  <r_i_glide_einternal>  (282) 
0.00231483

>  <r_i_glide_intrahb_reward>  (282) 
-0

>  <i_i_glide_confnum>  (282) 
2

>  <i_i_glide_posenum>  (282) 
9

>  <r_i_glide_eff_state_penalty>  (282) 
0

>  <ligand_id>  (282) 
67

>  <original_smiles>  (282) 
COC12CC(C)CC1C1C(=O)c3ccccc3C1=N2

>  <smiles>  (282) 
[H]c1c([H])c([H])c2c(c1[H])C(=O)C1=C2N([H])C2(OC([H])([H])[H])C([H])([H])C([H])(C([H])([H])[H])C([H])([H])C12[H]

$$$$
67:1:0
     RDKit          3D

 37 40  0  0  1  0  0  0  0  0999 V2000
    4.3105   -0.9567   -1.5974 C   0  0  0  0  0  0  0  0  0  0  0  0
    4.7277   -0.6577   -0.2739 O   0  0  0  0  0  0  0  0  0  0  0  0
    3.9837   -1.1969    0.7770 C   0  0  1  0  0  0  0  0  0  0  0  0
    3.9863   -2.7512    0.7535 C   0  0  0  0  0  0  0  0  0  0  0  0
    5.2128   -3.1326    1.5825 C   0  0  1  0  0  0  0  0  0  0  0  0
    6.5120   -3.1293    0.7509 C   0  0  0  0  0  0  0  0  0  0  0  0
    5.1902   -2.1067    2.7331 C   0  0  0  0  0  0  0  0  0  0  0  0
    4.7099   -0.7787    2.1024 C   0  0  2  0  0  0  0  0  0  0  0  0
    3.6091    0.0035    2.8033 C   0  0  0  0  0  0  0  0  0  0  0  0
    3.4057    0.7894    3.8732 C   0  0  0  0  0  0  0  0  0  0  0  0
    4.2561    1.1196    4.8539 O   0  0  0  0  0  0  0  0  0  0  0  0
    2.0695    1.4124    3.7461 C   0  0  0  0  0  0  0  0  0  0  0  0
    1.3578    2.3059    4.5744 C   0  0  0  0  0  0  0  0  0  0  0  0
    0.0459    2.6724    4.1791 C   0  0  0  0  0  0  0  0  0  0  0  0
   -0.5285    2.1745    2.9767 C   0  0  0  0  0  0  0  0  0  0  0  0
    0.1965    1.3057    2.1297 C   0  0  0  0  0  0  0  0  0  0  0  0
    1.4988    0.9380    2.5491 C   0  0  0  0  0  0  0  0  0  0  0  0
    2.5080    0.0593    1.9838 C   0  0  0  0  0  0  0  0  0  0  0  0
    2.6150   -0.5875    0.8857 N   0  0  0  0  0  0  0  0  0  0  0  0
    4.7674   -0.2185   -2.2578 H   0  0  0  0  0  0  0  0  0  0  0  0
    3.2263   -0.9084   -1.7205 H   0  0  0  0  0  0  0  0  0  0  0  0
    4.6697   -1.9397   -1.9065 H   0  0  0  0  0  0  0  0  0  0  0  0
    3.0987   -3.1187    1.2745 H   0  0  0  0  0  0  0  0  0  0  0  0
    3.9651   -3.1907   -0.2438 H   0  0  0  0  0  0  0  0  0  0  0  0
    5.0998   -4.1384    1.9826 H   0  0  0  0  0  0  0  0  0  0  0  0
    6.7342   -2.1451    0.3430 H   0  0  0  0  0  0  0  0  0  0  0  0
    6.4470   -3.8189   -0.0880 H   0  0  0  0  0  0  0  0  0  0  0  0
    7.3712   -3.4311    1.3470 H   0  0  0  0  0  0  0  0  0  0  0  0
    4.5285   -2.4473    3.5371 H   0  0  0  0  0  0  0  0  0  0  0  0
    6.1823   -1.9808    3.1615 H   0  0  0  0  0  0  0  0  0  0  0  0
    5.5496   -0.1231    1.8591 H   0  0  0  0  0  0  0  0  0  0  0  0
    1.8718   -0.6810    0.1710 H   0  0  0  0  0  0  0  0  0  0  0  0
    1.7797    2.6870    5.4915 H   0  0  0  0  0  0  0  0  0  0  0  0
   -0.5330    3.3502    4.8025 H   0  0  0  0  0  0  0  0  0  0  0  0
   -1.5289    2.4832    2.7015 H   0  0  0  0  0  0  0  0  0  0  0  0
   -0.2361    0.9326    1.2175 H   0  0  0  0  0  0  0  0  0  0  0  0
    3.7906    1.7026    5.4311 H   0  0  0  0  0  0  0  0  0  0  0  0
  1  2  1  0
  1 20  1  0
  1 21  1  0
  1 22  1  0
  3  2  1  6
  3  8  1  0
  3  4  1  0
  3 19  1  0
  4  5  1  0
  4 23  1  0
  4 24  1  0
  5  6  1  0
  5  7  1  0
  5 25  1  1
  6 26  1  0
  6 27  1  0
  6 28  1  0
  7  8  1  0
  7 29  1  0
  7 30  1  0
  8 31  1  6
  8  9  1  0
  9 10  2  0
  9 18  1  0
 10 11  1  0
 10 12  1  0
 11 37  1  0
 12 17  2  0
 12 13  1  0
 13 14  2  0
 13 33  1  0
 14 15  1  0
 14 34  1  0
 15 16  2  0
 15 35  1  0
 16 17  1  0
 16 36  1  0
 17 18  1  0
 18 19  2  0
 19 32  1  0
M  CHG  1  19   1
M  END
>  <i_m_ct_stereo_status>  (283) 
1

>  <s_m_source_file>  (283) 
/var/tmp/pbs.5076255.sched01/tmpfes5ahby/80lk6pwr5_.sdf

>  <i_m_source_file_index>  (283) 
29

>  <i_lp_mmshare_version>  (283) 
48012

>  <i_f3d_flags>  (283) 
0

>  <s_epik_input>  (283) 
W0NIM11PW0NAXTEyW0NASF0oW0NIMl1bQ0BASF0oW0NIMl0xKVtDSDNdKVtDQEhdM0MoPU4yKWM0YyhDMz1PKVtjSF1bY0hdW2NIXVtjSF00

>  <s_epik_cmdline>  (283) 
J2VwaWtfcHl0aG9uJywgJy1waHQnLCAnMi4wJywgJy1waCcsICc3LjAnLCAnLXRuJywgJzgnLCAnLW1hJywgJzIwMCcsICctaW1hZScsICc8aW5maWxlLm1hZT4nLCAnLW9tYWUnLCAnPG91dGZpbGUubWFlPic=

>  <r_epik_Ionization_Penalty>  (283) 
0.883774

>  <r_epik_Ionization_Penalty_Charging>  (283) 
0

>  <r_epik_Ionization_Penalty_Neutral>  (283) 
0.883774

>  <r_epik_State_Penalty>  (283) 
0.922217

>  <r_epik_Charging_Adjusted_Penalty>  (283) 
0.922217

>  <i_epik_Tot_Q>  (283) 
1

>  <i_epik_Tot_abs_Q>  (283) 
1

>  <s_epik_Chemistry_Notes>  (283) 
This compound has an imine and may undergo hydrolysis.

>  <s_lp_Force_Field>  (283) 
OPLS3e

>  <r_lp_Energy>  (283) 
22.6306

>  <b_lp_Chiralities_Consistent>  (283) 
1

>  <s_lp_Variant>  (283) 
67:0-2

>  <s_i_glide_gridfile>  (283) 
pfpi4k_grid

>  <i_i_glide_lignum>  (283) 
29

>  <i_i_glide_rotatable_bonds>  (283) 
2

>  <r_i_docking_score>  (283) 
-4.54371

>  <r_i_glide_ligand_efficiency>  (283) 
-0.239142

>  <r_i_glide_ligand_efficiency_sa>  (283) 
-0.638128

>  <r_i_glide_ligand_efficiency_ln>  (283) 
-1.15193

>  <r_i_glide_gscore>  (283) 
-4.54371

>  <r_i_glide_lipo>  (283) 
-0.306446

>  <r_i_glide_hbond>  (283) 
-0.197318

>  <r_i_glide_metal>  (283) 
-0

>  <r_i_glide_rewards>  (283) 
-1.66146

>  <r_i_glide_evdw>  (283) 
-17.3414

>  <r_i_glide_ecoul>  (283) 
-9.35427

>  <r_i_glide_erotb>  (283) 
0

>  <r_i_glide_esite>  (283) 
-0.108273

>  <r_i_glide_emodel>  (283) 
-35.6297

>  <r_i_glide_energy>  (283) 
-26.6957

>  <r_i_glide_einternal>  (283) 
2.06698

>  <r_i_glide_intrahb_reward>  (283) 
-0

>  <i_i_glide_confnum>  (283) 
1

>  <i_i_glide_posenum>  (283) 
17

>  <r_i_glide_eff_state_penalty>  (283) 
0

>  <ligand_id>  (283) 
67

>  <original_smiles>  (283) 
COC12CC(C)CC1C1C(=O)c3ccccc3C1=N2

>  <smiles>  (283) 
[H]OC1=C2C(=[N+]([H])C3(OC([H])([H])[H])C([H])([H])C([H])(C([H])([H])[H])C([H])([H])C23[H])c2c([H])c([H])c([H])c([H])c21

$$$$
67:1:1
     RDKit          3D

 37 40  0  0  1  0  0  0  0  0999 V2000
    3.0789    0.4128    3.6582 C   0  0  0  0  0  0  0  0  0  0  0  0
    2.6697   -0.8616    3.1814 O   0  0  0  0  0  0  0  0  0  0  0  0
    3.6299   -1.6580    2.5453 C   0  0  1  0  0  0  0  0  0  0  0  0
    4.7745   -2.0737    3.5073 C   0  0  0  0  0  0  0  0  0  0  0  0
    4.2901   -3.3858    4.1312 C   0  0  1  0  0  0  0  0  0  0  0  0
    3.3902   -3.1525    5.3574 C   0  0  0  0  0  0  0  0  0  0  0  0
    3.5947   -4.0974    2.9558 C   0  0  0  0  0  0  0  0  0  0  0  0
    2.8966   -2.9860    2.1408 C   0  0  2  0  0  0  0  0  0  0  0  0
    3.0737   -2.9654    0.6345 C   0  0  0  0  0  0  0  0  0  0  0  0
    2.6559   -3.5915   -0.4732 C   0  0  0  0  0  0  0  0  0  0  0  0
    1.8890   -4.6764   -0.5963 O   0  0  0  0  0  0  0  0  0  0  0  0
    3.1008   -2.8264   -1.6488 C   0  0  0  0  0  0  0  0  0  0  0  0
    2.9206   -3.0221   -3.0296 C   0  0  0  0  0  0  0  0  0  0  0  0
    3.4760   -2.0671   -3.9079 C   0  0  0  0  0  0  0  0  0  0  0  0
    4.1643   -0.9305   -3.4162 C   0  0  0  0  0  0  0  0  0  0  0  0
    4.3262   -0.7243   -2.0218 C   0  0  0  0  0  0  0  0  0  0  0  0
    3.7854   -1.6996   -1.1657 C   0  0  0  0  0  0  0  0  0  0  0  0
    3.7461   -1.8248    0.2819 C   0  0  0  0  0  0  0  0  0  0  0  0
    4.1052   -1.0692    1.2541 N   0  0  0  0  0  0  0  0  0  0  0  0
    2.1711    0.9940    3.8378 H   0  0  0  0  0  0  0  0  0  0  0  0
    3.6925    0.9532    2.9305 H   0  0  0  0  0  0  0  0  0  0  0  0
    3.6171    0.3353    4.6082 H   0  0  0  0  0  0  0  0  0  0  0  0
    5.6654   -2.2895    2.9101 H   0  0  0  0  0  0  0  0  0  0  0  0
    5.0520   -1.3028    4.2284 H   0  0  0  0  0  0  0  0  0  0  0  0
    5.1452   -3.9736    4.4676 H   0  0  0  0  0  0  0  0  0  0  0  0
    2.4868   -2.6007    5.1032 H   0  0  0  0  0  0  0  0  0  0  0  0
    3.9118   -2.5835    6.1245 H   0  0  0  0  0  0  0  0  0  0  0  0
    3.0802   -4.0938    5.8053 H   0  0  0  0  0  0  0  0  0  0  0  0
    4.3266   -4.6327    2.3459 H   0  0  0  0  0  0  0  0  0  0  0  0
    2.8812   -4.8416    3.3092 H   0  0  0  0  0  0  0  0  0  0  0  0
    1.8402   -2.9024    2.4023 H   0  0  0  0  0  0  0  0  0  0  0  0
    4.5738   -0.1755    1.1608 H   0  0  0  0  0  0  0  0  0  0  0  0
    2.3853   -3.8764   -3.4243 H   0  0  0  0  0  0  0  0  0  0  0  0
    3.3806   -2.1869   -4.9727 H   0  0  0  0  0  0  0  0  0  0  0  0
    4.5769   -0.2225   -4.1178 H   0  0  0  0  0  0  0  0  0  0  0  0
    4.8407    0.1392   -1.6462 H   0  0  0  0  0  0  0  0  0  0  0  0
    2.1184   -5.0470   -1.4397 H   0  0  0  0  0  0  0  0  0  0  0  0
  1  2  1  0
  1 20  1  0
  1 21  1  0
  1 22  1  0
  3  2  1  1
  3  8  1  0
  3  4  1  0
  3 19  1  0
  4  5  1  0
  4 23  1  0
  4 24  1  0
  5  6  1  0
  5  7  1  0
  5 25  1  1
  6 26  1  0
  6 27  1  0
  6 28  1  0
  7  8  1  0
  7 29  1  0
  7 30  1  0
  8 31  1  6
  8  9  1  0
  9 10  2  0
  9 18  1  0
 10 11  1  0
 10 12  1  0
 11 37  1  0
 12 17  2  0
 12 13  1  0
 13 14  2  0
 13 33  1  0
 14 15  1  0
 14 34  1  0
 15 16  2  0
 15 35  1  0
 16 17  1  0
 16 36  1  0
 17 18  1  0
 18 19  2  0
 19 32  1  0
M  CHG  1  19   1
M  END
>  <i_m_ct_stereo_status>  (284) 
1

>  <s_m_source_file>  (284) 
/var/tmp/pbs.5076255.sched01/tmpfes5ahby/80lk6pwr5_.sdf

>  <i_m_source_file_index>  (284) 
29

>  <i_lp_mmshare_version>  (284) 
48012

>  <i_f3d_flags>  (284) 
0

>  <s_epik_input>  (284) 
W0NIM11PW0NAXTEyW0NASF0oW0NIMl1bQ0BASF0oW0NIMl0xKVtDSDNdKVtDQEhdM0MoPU4yKWM0YyhDMz1PKVtjSF1bY0hdW2NIXVtjSF00

>  <s_epik_cmdline>  (284) 
J2VwaWtfcHl0aG9uJywgJy1waHQnLCAnMi4wJywgJy1waCcsICc3LjAnLCAnLXRuJywgJzgnLCAnLW1hJywgJzIwMCcsICctaW1hZScsICc8aW5maWxlLm1hZT4nLCAnLW9tYWUnLCAnPG91dGZpbGUubWFlPic=

>  <r_epik_Ionization_Penalty>  (284) 
0.883774

>  <r_epik_Ionization_Penalty_Charging>  (284) 
0

>  <r_epik_Ionization_Penalty_Neutral>  (284) 
0.883774

>  <r_epik_State_Penalty>  (284) 
0.922217

>  <r_epik_Charging_Adjusted_Penalty>  (284) 
0.922217

>  <i_epik_Tot_Q>  (284) 
1

>  <i_epik_Tot_abs_Q>  (284) 
1

>  <s_epik_Chemistry_Notes>  (284) 
This compound has an imine and may undergo hydrolysis.

>  <s_lp_Force_Field>  (284) 
OPLS3e

>  <r_lp_Energy>  (284) 
22.6306

>  <b_lp_Chiralities_Consistent>  (284) 
1

>  <s_lp_Variant>  (284) 
67:0-2

>  <s_i_glide_gridfile>  (284) 
pfpi4k_grid

>  <i_i_glide_lignum>  (284) 
29

>  <i_i_glide_rotatable_bonds>  (284) 
2

>  <r_i_docking_score>  (284) 
-4.16272

>  <r_i_glide_ligand_efficiency>  (284) 
-0.219091

>  <r_i_glide_ligand_efficiency_sa>  (284) 
-0.584622

>  <r_i_glide_ligand_efficiency_ln>  (284) 
-1.05534

>  <r_i_glide_gscore>  (284) 
-4.16272

>  <r_i_glide_lipo>  (284) 
-0.37887

>  <r_i_glide_hbond>  (284) 
-0.327728

>  <r_i_glide_metal>  (284) 
-0

>  <r_i_glide_rewards>  (284) 
-1.66146

>  <r_i_glide_evdw>  (284) 
-16.2616

>  <r_i_glide_ecoul>  (284) 
-6.25854

>  <r_i_glide_erotb>  (284) 
0

>  <r_i_glide_esite>  (284) 
-0.0428023

>  <r_i_glide_emodel>  (284) 
-29.7615

>  <r_i_glide_energy>  (284) 
-22.5202

>  <r_i_glide_einternal>  (284) 
2.72311

>  <r_i_glide_intrahb_reward>  (284) 
-0

>  <i_i_glide_confnum>  (284) 
2

>  <i_i_glide_posenum>  (284) 
3

>  <r_i_glide_eff_state_penalty>  (284) 
0

>  <ligand_id>  (284) 
67

>  <original_smiles>  (284) 
COC12CC(C)CC1C1C(=O)c3ccccc3C1=N2

>  <smiles>  (284) 
[H]OC1=C2C(=[N+]([H])C3(OC([H])([H])[H])C([H])([H])C([H])(C([H])([H])[H])C([H])([H])C23[H])c2c([H])c([H])c([H])c([H])c21

$$$$
67:1:2
     RDKit          3D

 37 40  0  0  1  0  0  0  0  0999 V2000
   -2.3993    2.8615    2.8335 C   0  0  0  0  0  0  0  0  0  0  0  0
   -2.0647    3.4115    4.1102 O   0  0  0  0  0  0  0  0  0  0  0  0
   -0.9481    2.8440    4.7366 C   0  0  1  0  0  0  0  0  0  0  0  0
   -0.6607    3.6463    6.0201 C   0  0  0  0  0  0  0  0  0  0  0  0
   -1.4186    2.9075    7.1351 C   0  0  1  0  0  0  0  0  0  0  0  0
   -2.8867    3.3601    7.2457 C   0  0  0  0  0  0  0  0  0  0  0  0
   -1.2306    1.4269    6.7616 C   0  0  0  0  0  0  0  0  0  0  0  0
   -1.2770    1.3783    5.2199 C   0  0  2  0  0  0  0  0  0  0  0  0
   -0.1832    0.6035    4.5025 C   0  0  0  0  0  0  0  0  0  0  0  0
    0.1753   -0.6517    4.2028 C   0  0  0  0  0  0  0  0  0  0  0  0
   -0.3653   -1.8030    4.6155 O   0  0  0  0  0  0  0  0  0  0  0  0
    1.2362   -0.6090    3.1753 C   0  0  0  0  0  0  0  0  0  0  0  0
    1.9542   -1.6283    2.5245 C   0  0  0  0  0  0  0  0  0  0  0  0
    2.9404   -1.2383    1.5930 C   0  0  0  0  0  0  0  0  0  0  0  0
    3.1695    0.1243    1.2966 C   0  0  0  0  0  0  0  0  0  0  0  0
    2.4202    1.1442    1.9285 C   0  0  0  0  0  0  0  0  0  0  0  0
    1.4670    0.7465    2.8789 C   0  0  0  0  0  0  0  0  0  0  0  0
    0.5538    1.4800    3.7375 C   0  0  0  0  0  0  0  0  0  0  0  0
    0.2434    2.7122    3.8431 N   0  0  0  0  0  0  0  0  0  0  0  0
   -3.4472    3.0466    2.5889 H   0  0  0  0  0  0  0  0  0  0  0  0
   -2.2246    1.7852    2.7533 H   0  0  0  0  0  0  0  0  0  0  0  0
   -1.7758    3.3378    2.0780 H   0  0  0  0  0  0  0  0  0  0  0  0
    0.4067    3.5774    6.2447 H   0  0  0  0  0  0  0  0  0  0  0  0
   -0.9167    4.7033    5.9071 H   0  0  0  0  0  0  0  0  0  0  0  0
   -0.9529    3.1172    8.1039 H   0  0  0  0  0  0  0  0  0  0  0  0
   -3.4341    3.1794    6.3219 H   0  0  0  0  0  0  0  0  0  0  0  0
   -2.9461    4.4253    7.4681 H   0  0  0  0  0  0  0  0  0  0  0  0
   -3.4082    2.8468    8.0504 H   0  0  0  0  0  0  0  0  0  0  0  0
   -0.2768    1.0604    7.1517 H   0  0  0  0  0  0  0  0  0  0  0  0
   -2.0171    0.8285    7.2138 H   0  0  0  0  0  0  0  0  0  0  0  0
   -2.2704    1.0733    4.8814 H   0  0  0  0  0  0  0  0  0  0  0  0
    0.6235    3.4815    3.2853 H   0  0  0  0  0  0  0  0  0  0  0  0
    1.7720   -2.6731    2.7535 H   0  0  0  0  0  0  0  0  0  0  0  0
    3.5299   -1.9966    1.0930 H   0  0  0  0  0  0  0  0  0  0  0  0
    3.9356    0.3896    0.5763 H   0  0  0  0  0  0  0  0  0  0  0  0
    2.5822    2.1862    1.7016 H   0  0  0  0  0  0  0  0  0  0  0  0
   -1.0029   -1.5918    5.2838 H   0  0  0  0  0  0  0  0  0  0  0  0
  1  2  1  0
  1 20  1  0
  1 21  1  0
  1 22  1  0
  3  2  1  6
  3  8  1  0
  3  4  1  0
  3 19  1  0
  4  5  1  0
  4 23  1  0
  4 24  1  0
  5  6  1  0
  5  7  1  0
  5 25  1  1
  6 26  1  0
  6 27  1  0
  6 28  1  0
  7  8  1  0
  7 29  1  0
  7 30  1  0
  8 31  1  1
  8  9  1  0
  9 10  2  0
  9 18  1  0
 10 11  1  0
 10 12  1  0
 11 37  1  0
 12 17  2  0
 12 13  1  0
 13 14  2  0
 13 33  1  0
 14 15  1  0
 14 34  1  0
 15 16  2  0
 15 35  1  0
 16 17  1  0
 16 36  1  0
 17 18  1  0
 18 19  2  0
 19 32  1  0
M  CHG  1  19   1
M  END
>  <i_m_ct_stereo_status>  (285) 
1

>  <s_m_source_file>  (285) 
/var/tmp/pbs.5076255.sched01/tmpfes5ahby/80lk6pwr5_.sdf

>  <i_m_source_file_index>  (285) 
29

>  <i_lp_mmshare_version>  (285) 
48012

>  <i_f3d_flags>  (285) 
0

>  <s_epik_input>  (285) 
W0NIM11PW0NAXTEyW0NASF0oW0NIMl1bQ0BASF0oW0NIMl0xKVtDSDNdKVtDQEhdM0MoPU4yKWM0YyhDMz1PKVtjSF1bY0hdW2NIXVtjSF00

>  <s_epik_cmdline>  (285) 
J2VwaWtfcHl0aG9uJywgJy1waHQnLCAnMi4wJywgJy1waCcsICc3LjAnLCAnLXRuJywgJzgnLCAnLW1hJywgJzIwMCcsICctaW1hZScsICc8aW5maWxlLm1hZT4nLCAnLW9tYWUnLCAnPG91dGZpbGUubWFlPic=

>  <r_epik_Ionization_Penalty>  (285) 
0.883774

>  <r_epik_Ionization_Penalty_Charging>  (285) 
0

>  <r_epik_Ionization_Penalty_Neutral>  (285) 
0.883774

>  <r_epik_State_Penalty>  (285) 
0.922217

>  <r_epik_Charging_Adjusted_Penalty>  (285) 
0.922217

>  <i_epik_Tot_Q>  (285) 
1

>  <i_epik_Tot_abs_Q>  (285) 
1

>  <s_epik_Chemistry_Notes>  (285) 
This compound has an imine and may undergo hydrolysis.

>  <s_lp_Force_Field>  (285) 
OPLS3e

>  <r_lp_Energy>  (285) 
22.6306

>  <b_lp_Chiralities_Consistent>  (285) 
1

>  <s_lp_Variant>  (285) 
67:0-2

>  <s_i_glide_gridfile>  (285) 
pfpi4k_grid

>  <i_i_glide_lignum>  (285) 
29

>  <i_i_glide_rotatable_bonds>  (285) 
2

>  <r_i_docking_score>  (285) 
-3.31944

>  <r_i_glide_ligand_efficiency>  (285) 
-0.174707

>  <r_i_glide_ligand_efficiency_sa>  (285) 
-0.466189

>  <r_i_glide_ligand_efficiency_ln>  (285) 
-0.841548

>  <r_i_glide_gscore>  (285) 
-3.31944

>  <r_i_glide_lipo>  (285) 
-0.201124

>  <r_i_glide_hbond>  (285) 
0

>  <r_i_glide_metal>  (285) 
-0

>  <r_i_glide_rewards>  (285) 
-1.66146

>  <r_i_glide_evdw>  (285) 
-18.2569

>  <r_i_glide_ecoul>  (285) 
-3.04517

>  <r_i_glide_erotb>  (285) 
0

>  <r_i_glide_esite>  (285) 
-0.0872341

>  <r_i_glide_emodel>  (285) 
-27.198

>  <r_i_glide_energy>  (285) 
-21.3021

>  <r_i_glide_einternal>  (285) 
2.37268

>  <r_i_glide_intrahb_reward>  (285) 
-0

>  <i_i_glide_confnum>  (285) 
2

>  <i_i_glide_posenum>  (285) 
33

>  <r_i_glide_eff_state_penalty>  (285) 
0

>  <ligand_id>  (285) 
67

>  <original_smiles>  (285) 
COC12CC(C)CC1C1C(=O)c3ccccc3C1=N2

>  <smiles>  (285) 
[H]OC1=C2C(=[N+]([H])C3(OC([H])([H])[H])C([H])([H])C([H])(C([H])([H])[H])C([H])([H])C23[H])c2c([H])c([H])c([H])c([H])c21

$$$$
69:0:0
     RDKit          3D

 20 22  0  0  1  0  0  0  0  0999 V2000
    2.0592   -9.4777    2.5363 C   0  0  0  0  0  0  0  0  0  0  0  0
    1.1836   -8.3182    2.5071 N   0  0  0  0  0  0  0  0  0  0  0  0
    1.0132   -7.6454    1.3416 N   0  0  0  0  0  0  0  0  0  0  0  0
    0.1844   -6.6797    1.5862 N   0  0  0  0  0  0  0  0  0  0  0  0
   -0.1783   -6.6569    2.9141 N   0  0  0  0  0  0  0  0  0  0  0  0
    0.4833   -7.6774    3.4643 C   0  0  0  0  0  0  0  0  0  0  0  0
    0.4084   -7.9923    4.8981 C   0  0  0  0  0  0  0  0  0  0  0  0
    0.3254   -9.3273    5.3418 C   0  0  0  0  0  0  0  0  0  0  0  0
    0.2312   -9.6688    6.7032 C   0  0  0  0  0  0  0  0  0  0  0  0
    0.2545   -8.5648    7.5273 N   0  0  0  0  0  0  0  0  0  0  0  0
    0.1889   -8.6043    8.8719 N   0  0  0  0  0  0  0  0  0  0  0  0
    0.2177   -7.3511    9.2170 N   0  0  0  0  0  0  0  0  0  0  0  0
    0.2948   -6.4774    8.1367 N   0  0  0  0  0  0  0  0  0  0  0  0
    0.3308   -7.2540    7.0561 C   0  0  0  0  0  0  0  0  0  0  0  0
    0.3998   -6.9287    5.7376 N   0  0  0  0  0  0  0  0  0  0  0  0
    1.5112  -10.3651    2.8546 H   0  0  0  0  0  0  0  0  0  0  0  0
    2.8927   -9.2947    3.2165 H   0  0  0  0  0  0  0  0  0  0  0  0
    2.4573   -9.6837    1.5392 H   0  0  0  0  0  0  0  0  0  0  0  0
    0.2906  -10.1399    4.6395 H   0  0  0  0  0  0  0  0  0  0  0  0
    0.1520  -10.6545    7.1303 H   0  0  0  0  0  0  0  0  0  0  0  0
  1  2  1  0
  1 16  1  0
  1 17  1  0
  1 18  1  0
  2  6  1  0
  2  3  1  0
  3  4  2  0
  4  5  1  0
  5  6  2  0
  6  7  1  0
  7 15  2  0
  7  8  1  0
  8  9  2  0
  8 19  1  0
  9 10  1  0
  9 20  1  0
 10 14  1  0
 10 11  1  0
 11 12  2  0
 12 13  1  0
 13 14  2  0
 14 15  1  0
M  END
>  <i_m_ct_stereo_status>  (286) 
1

>  <s_m_source_file>  (286) 
/var/tmp/pbs.5076255.sched01/tmpfes5ahby/80lk6pwr5_.sdf

>  <i_m_source_file_index>  (286) 
31

>  <i_lp_mmshare_version>  (286) 
48012

>  <i_f3d_flags>  (286) 
0

>  <s_epik_input>  (286) 
W0NIM11uMW5ubmMxLWMoW2NIXVtjSF0yKW5jKG4yMylubm4z

>  <s_epik_cmdline>  (286) 
J2VwaWtfcHl0aG9uJywgJy1waHQnLCAnMi4wJywgJy1waCcsICc3LjAnLCAnLXRuJywgJzgnLCAnLW1hJywgJzIwMCcsICctaW1hZScsICc8aW5maWxlLm1hZT4nLCAnLW9tYWUnLCAnPG91dGZpbGUubWFlPic=

>  <r_lp_tautomer_probability>  (286) 
1

>  <r_epik_Ionization_Penalty>  (286) 
1.69796e-09

>  <r_epik_Ionization_Penalty_Charging>  (286) 
0

>  <r_epik_Ionization_Penalty_Neutral>  (286) 
1.69796e-09

>  <r_epik_State_Penalty>  (286) 
-0

>  <r_epik_Charging_Adjusted_Penalty>  (286) 
0

>  <i_epik_Tot_Q>  (286) 
0

>  <i_epik_Tot_abs_Q>  (286) 
0

>  <s_lp_Force_Field>  (286) 
OPLS3e

>  <r_lp_Energy>  (286) 
19.8496

>  <b_lp_Chiralities_Consistent>  (286) 
1

>  <s_lp_Variant>  (286) 
69:0-1

>  <s_i_glide_gridfile>  (286) 
pfpi4k_grid

>  <i_i_glide_lignum>  (286) 
31

>  <i_i_glide_rotatable_bonds>  (286) 
1

>  <r_i_docking_score>  (286) 
-3.85935

>  <r_i_glide_ligand_efficiency>  (286) 
-0.25729

>  <r_i_glide_ligand_efficiency_sa>  (286) 
-0.634531

>  <r_i_glide_ligand_efficiency_ln>  (286) 
-1.0408

>  <r_i_glide_gscore>  (286) 
-3.85935

>  <r_i_glide_lipo>  (286) 
-0.0573238

>  <r_i_glide_hbond>  (286) 
0

>  <r_i_glide_metal>  (286) 
-0

>  <r_i_glide_rewards>  (286) 
-2.02388

>  <r_i_glide_evdw>  (286) 
-16.1841

>  <r_i_glide_ecoul>  (286) 
-5.80344

>  <r_i_glide_erotb>  (286) 
0.397778

>  <r_i_glide_esite>  (286) 
-0.496196

>  <r_i_glide_emodel>  (286) 
-27.174

>  <r_i_glide_energy>  (286) 
-21.9876

>  <r_i_glide_einternal>  (286) 
3.49106

>  <r_i_glide_intrahb_reward>  (286) 
-0

>  <i_i_glide_confnum>  (286) 
2

>  <i_i_glide_posenum>  (286) 
10

>  <r_i_glide_eff_state_penalty>  (286) 
0

>  <ligand_id>  (286) 
69

>  <original_smiles>  (286) 
Cn1nnnc1-c1ccn2nnnc2n1

>  <smiles>  (286) 
[H]c1c(-c2nnnn2C([H])([H])[H])nc2nnnn2c1[H]

$$$$
69:0:1
     RDKit          3D

 20 22  0  0  1  0  0  0  0  0999 V2000
   -1.0803   -9.3450    2.7079 C   0  0  0  0  0  0  0  0  0  0  0  0
   -0.3505   -8.0900    2.7886 N   0  0  0  0  0  0  0  0  0  0  0  0
   -0.1407   -7.3785    1.6531 N   0  0  0  0  0  0  0  0  0  0  0  0
    0.5333   -6.3269    1.9886 N   0  0  0  0  0  0  0  0  0  0  0  0
    0.7325   -6.2811    3.3484 N   0  0  0  0  0  0  0  0  0  0  0  0
    0.1813   -7.4007    3.8217 C   0  0  0  0  0  0  0  0  0  0  0  0
    0.2066   -7.7546    5.2519 C   0  0  0  0  0  0  0  0  0  0  0  0
    0.2144   -9.1043    5.6712 C   0  0  0  0  0  0  0  0  0  0  0  0
    0.2165   -9.4850    7.0269 C   0  0  0  0  0  0  0  0  0  0  0  0
    0.2333   -8.3932    7.8783 N   0  0  0  0  0  0  0  0  0  0  0  0
    0.2313   -8.4563    9.2224 N   0  0  0  0  0  0  0  0  0  0  0  0
    0.2496   -7.2120    9.5906 N   0  0  0  0  0  0  0  0  0  0  0  0
    0.2377   -6.3179    8.5259 N   0  0  0  0  0  0  0  0  0  0  0  0
    0.2386   -7.0709    7.4316 C   0  0  0  0  0  0  0  0  0  0  0  0
    0.2174   -6.7169    6.1221 N   0  0  0  0  0  0  0  0  0  0  0  0
   -1.9739   -9.2950    3.3311 H   0  0  0  0  0  0  0  0  0  0  0  0
   -0.4500  -10.1770    3.0190 H   0  0  0  0  0  0  0  0  0  0  0  0
   -1.3835   -9.5514    1.6793 H   0  0  0  0  0  0  0  0  0  0  0  0
    0.2253   -9.9110    4.9621 H   0  0  0  0  0  0  0  0  0  0  0  0
    0.2127  -10.4963    7.4087 H   0  0  0  0  0  0  0  0  0  0  0  0
  1  2  1  0
  1 16  1  0
  1 17  1  0
  1 18  1  0
  2  6  1  0
  2  3  1  0
  3  4  2  0
  4  5  1  0
  5  6  2  0
  6  7  1  0
  7 15  2  0
  7  8  1  0
  8  9  2  0
  8 19  1  0
  9 10  1  0
  9 20  1  0
 10 14  1  0
 10 11  1  0
 11 12  2  0
 12 13  1  0
 13 14  2  0
 14 15  1  0
M  END
>  <i_m_ct_stereo_status>  (287) 
1

>  <s_m_source_file>  (287) 
/var/tmp/pbs.5076255.sched01/tmpfes5ahby/80lk6pwr5_.sdf

>  <i_m_source_file_index>  (287) 
31

>  <i_lp_mmshare_version>  (287) 
48012

>  <i_f3d_flags>  (287) 
0

>  <s_epik_input>  (287) 
W0NIM11uMW5ubmMxLWMoW2NIXVtjSF0yKW5jKG4yMylubm4z

>  <s_epik_cmdline>  (287) 
J2VwaWtfcHl0aG9uJywgJy1waHQnLCAnMi4wJywgJy1waCcsICc3LjAnLCAnLXRuJywgJzgnLCAnLW1hJywgJzIwMCcsICctaW1hZScsICc8aW5maWxlLm1hZT4nLCAnLW9tYWUnLCAnPG91dGZpbGUubWFlPic=

>  <r_lp_tautomer_probability>  (287) 
1

>  <r_epik_Ionization_Penalty>  (287) 
1.69796e-09

>  <r_epik_Ionization_Penalty_Charging>  (287) 
0

>  <r_epik_Ionization_Penalty_Neutral>  (287) 
1.69796e-09

>  <r_epik_State_Penalty>  (287) 
-0

>  <r_epik_Charging_Adjusted_Penalty>  (287) 
0

>  <i_epik_Tot_Q>  (287) 
0

>  <i_epik_Tot_abs_Q>  (287) 
0

>  <s_lp_Force_Field>  (287) 
OPLS3e

>  <r_lp_Energy>  (287) 
19.8496

>  <b_lp_Chiralities_Consistent>  (287) 
1

>  <s_lp_Variant>  (287) 
69:0-1

>  <s_i_glide_gridfile>  (287) 
pfpi4k_grid

>  <i_i_glide_lignum>  (287) 
31

>  <i_i_glide_rotatable_bonds>  (287) 
1

>  <r_i_docking_score>  (287) 
-3.83952

>  <r_i_glide_ligand_efficiency>  (287) 
-0.255968

>  <r_i_glide_ligand_efficiency_sa>  (287) 
-0.631272

>  <r_i_glide_ligand_efficiency_ln>  (287) 
-1.03546

>  <r_i_glide_gscore>  (287) 
-3.83952

>  <r_i_glide_lipo>  (287) 
-0.089587

>  <r_i_glide_hbond>  (287) 
0

>  <r_i_glide_metal>  (287) 
-0

>  <r_i_glide_rewards>  (287) 
-2.02388

>  <r_i_glide_evdw>  (287) 
-18.3407

>  <r_i_glide_ecoul>  (287) 
-4.76517

>  <r_i_glide_erotb>  (287) 
0.397778

>  <r_i_glide_esite>  (287) 
-0.492025

>  <r_i_glide_emodel>  (287) 
-28.4138

>  <r_i_glide_energy>  (287) 
-23.1059

>  <r_i_glide_einternal>  (287) 
3.03437

>  <r_i_glide_intrahb_reward>  (287) 
-0

>  <i_i_glide_confnum>  (287) 
3

>  <i_i_glide_posenum>  (287) 
32

>  <r_i_glide_eff_state_penalty>  (287) 
0

>  <ligand_id>  (287) 
69

>  <original_smiles>  (287) 
Cn1nnnc1-c1ccn2nnnc2n1

>  <smiles>  (287) 
[H]c1c(-c2nnnn2C([H])([H])[H])nc2nnnn2c1[H]

$$$$
69:0:2
     RDKit          3D

 20 22  0  0  1  0  0  0  0  0999 V2000
    0.3832  -10.4437    3.3102 C   0  0  0  0  0  0  0  0  0  0  0  0
   -0.3879   -9.2213    3.4683 N   0  0  0  0  0  0  0  0  0  0  0  0
   -1.2185   -8.8478    2.4701 N   0  0  0  0  0  0  0  0  0  0  0  0
   -1.7796   -7.7424    2.8301 N   0  0  0  0  0  0  0  0  0  0  0  0
   -1.3376   -7.3515    4.0656 N   0  0  0  0  0  0  0  0  0  0  0  0
   -0.4707   -8.2934    4.4485 C   0  0  0  0  0  0  0  0  0  0  0  0
    0.2181   -8.2542    5.7438 C   0  0  0  0  0  0  0  0  0  0  0  0
    0.8141   -9.4127    6.3194 C   0  0  0  0  0  0  0  0  0  0  0  0
    1.4931   -9.4099    7.5470 C   0  0  0  0  0  0  0  0  0  0  0  0
    1.4720   -8.1668    8.1387 N   0  0  0  0  0  0  0  0  0  0  0  0
    2.0269   -7.8879    9.3189 N   0  0  0  0  0  0  0  0  0  0  0  0
    1.7771   -6.6307    9.4843 N   0  0  0  0  0  0  0  0  0  0  0  0
    1.0603   -6.0668    8.4385 N   0  0  0  0  0  0  0  0  0  0  0  0
    0.8650   -7.0469    7.5604 C   0  0  0  0  0  0  0  0  0  0  0  0
    0.2399   -7.0484    6.3648 N   0  0  0  0  0  0  0  0  0  0  0  0
    0.0677  -11.1979    4.0339 H   0  0  0  0  0  0  0  0  0  0  0  0
    1.4512  -10.2325    3.4142 H   0  0  0  0  0  0  0  0  0  0  0  0
    0.2074  -10.8881    2.3252 H   0  0  0  0  0  0  0  0  0  0  0  0
    0.7722  -10.3771    5.8503 H   0  0  0  0  0  0  0  0  0  0  0  0
    1.9842  -10.2553    8.0343 H   0  0  0  0  0  0  0  0  0  0  0  0
  1  2  1  0
  1 16  1  0
  1 17  1  0
  1 18  1  0
  2  6  1  0
  2  3  1  0
  3  4  2  0
  4  5  1  0
  5  6  2  0
  6  7  1  0
  7 15  2  0
  7  8  1  0
  8  9  2  0
  8 19  1  0
  9 10  1  0
  9 20  1  0
 10 14  1  0
 10 11  1  0
 11 12  2  0
 12 13  1  0
 13 14  2  0
 14 15  1  0
M  END
>  <i_m_ct_stereo_status>  (288) 
1

>  <s_m_source_file>  (288) 
/var/tmp/pbs.5076255.sched01/tmpfes5ahby/80lk6pwr5_.sdf

>  <i_m_source_file_index>  (288) 
31

>  <i_lp_mmshare_version>  (288) 
48012

>  <i_f3d_flags>  (288) 
0

>  <s_epik_input>  (288) 
W0NIM11uMW5ubmMxLWMoW2NIXVtjSF0yKW5jKG4yMylubm4z

>  <s_epik_cmdline>  (288) 
J2VwaWtfcHl0aG9uJywgJy1waHQnLCAnMi4wJywgJy1waCcsICc3LjAnLCAnLXRuJywgJzgnLCAnLW1hJywgJzIwMCcsICctaW1hZScsICc8aW5maWxlLm1hZT4nLCAnLW9tYWUnLCAnPG91dGZpbGUubWFlPic=

>  <r_lp_tautomer_probability>  (288) 
1

>  <r_epik_Ionization_Penalty>  (288) 
1.69796e-09

>  <r_epik_Ionization_Penalty_Charging>  (288) 
0

>  <r_epik_Ionization_Penalty_Neutral>  (288) 
1.69796e-09

>  <r_epik_State_Penalty>  (288) 
-0

>  <r_epik_Charging_Adjusted_Penalty>  (288) 
0

>  <i_epik_Tot_Q>  (288) 
0

>  <i_epik_Tot_abs_Q>  (288) 
0

>  <s_lp_Force_Field>  (288) 
OPLS3e

>  <r_lp_Energy>  (288) 
19.8496

>  <b_lp_Chiralities_Consistent>  (288) 
1

>  <s_lp_Variant>  (288) 
69:0-1

>  <s_i_glide_gridfile>  (288) 
pfpi4k_grid

>  <i_i_glide_lignum>  (288) 
31

>  <i_i_glide_rotatable_bonds>  (288) 
1

>  <r_i_docking_score>  (288) 
-3.44269

>  <r_i_glide_ligand_efficiency>  (288) 
-0.229513

>  <r_i_glide_ligand_efficiency_sa>  (288) 
-0.566027

>  <r_i_glide_ligand_efficiency_ln>  (288) 
-0.928437

>  <r_i_glide_gscore>  (288) 
-3.44269

>  <r_i_glide_lipo>  (288) 
0

>  <r_i_glide_hbond>  (288) 
0

>  <r_i_glide_metal>  (288) 
-0

>  <r_i_glide_rewards>  (288) 
-2.02388

>  <r_i_glide_evdw>  (288) 
-18.3822

>  <r_i_glide_ecoul>  (288) 
-4.20802

>  <r_i_glide_erotb>  (288) 
0.397778

>  <r_i_glide_esite>  (288) 
-0.266276

>  <r_i_glide_emodel>  (288) 
-27.1725

>  <r_i_glide_energy>  (288) 
-22.5903

>  <r_i_glide_einternal>  (288) 
3.01774

>  <r_i_glide_intrahb_reward>  (288) 
-0

>  <i_i_glide_confnum>  (288) 
6

>  <i_i_glide_posenum>  (288) 
6

>  <r_i_glide_eff_state_penalty>  (288) 
0

>  <ligand_id>  (288) 
69

>  <original_smiles>  (288) 
Cn1nnnc1-c1ccn2nnnc2n1

>  <smiles>  (288) 
[H]c1c(-c2nnnn2C([H])([H])[H])nc2nnnn2c1[H]

$$$$
70:0:0
     RDKit          3D

 32 32  0  0  1  0  0  0  0  0999 V2000
   -2.0904    3.1277    3.3241 O   0  0  0  0  0  0  0  0  0  0  0  0
   -0.7318    2.9630    2.9400 N   0  0  0  0  0  0  0  0  0  0  0  0
   -0.0180    1.9877    3.5011 C   0  0  0  0  0  0  0  0  0  0  0  0
   -0.4672    1.1988    4.3464 O   0  0  0  0  0  0  0  0  0  0  0  0
    1.4473    1.8808    3.0455 C   0  0  0  0  0  0  0  0  0  0  0  0
    1.7793    0.5638    2.3288 C   0  0  0  0  0  0  0  0  0  0  0  0
    3.2715    0.4697    1.9812 C   0  0  0  0  0  0  0  0  0  0  0  0
    3.6153   -0.8430    1.2640 C   0  0  0  0  0  0  0  0  0  0  0  0
    5.1186   -0.9620    0.8746 C   0  0  0  0  0  0  0  0  0  0  0  0
    5.3692   -2.1344    0.0956 O   0  0  0  0  0  0  0  0  0  0  0  0
    4.9102   -2.1795   -1.2041 C   0  0  0  0  0  0  0  0  0  0  0  0
    5.0256   -3.4088   -1.9160 C   0  0  0  0  0  0  0  0  0  0  0  0
    4.5481   -3.4827   -3.2457 C   0  0  0  0  0  0  0  0  0  0  0  0
    3.9443   -2.3337   -3.8065 C   0  0  0  0  0  0  0  0  0  0  0  0
    3.8593   -1.1588   -3.1573 N   0  0  0  0  0  0  0  0  0  0  0  0
    4.3215   -1.0924   -1.9012 C   0  0  0  0  0  0  0  0  0  0  0  0
   -0.4639    3.5922    2.1646 H   0  0  0  0  0  0  0  0  0  0  0  0
    1.6958    2.7278    2.4025 H   0  0  0  0  0  0  0  0  0  0  0  0
    2.0575    1.9817    3.9399 H   0  0  0  0  0  0  0  0  0  0  0  0
    1.1779    0.4882    1.4193 H   0  0  0  0  0  0  0  0  0  0  0  0
    1.4945   -0.2852    2.9507 H   0  0  0  0  0  0  0  0  0  0  0  0
    3.5356    1.3061    1.3364 H   0  0  0  0  0  0  0  0  0  0  0  0
    3.8784    0.5654    2.8823 H   0  0  0  0  0  0  0  0  0  0  0  0
    3.3396   -1.6924    1.8942 H   0  0  0  0  0  0  0  0  0  0  0  0
    2.9676   -0.9008    0.3874 H   0  0  0  0  0  0  0  0  0  0  0  0
    5.5092   -0.0858    0.3499 H   0  0  0  0  0  0  0  0  0  0  0  0
    5.7169   -1.0393    1.7939 H   0  0  0  0  0  0  0  0  0  0  0  0
    5.4621   -4.2734   -1.4425 H   0  0  0  0  0  0  0  0  0  0  0  0
    4.6124   -4.4051   -3.8198 H   0  0  0  0  0  0  0  0  0  0  0  0
    3.5307   -2.3338   -4.8051 H   0  0  0  0  0  0  0  0  0  0  0  0
    4.2391   -0.1176   -1.4325 H   0  0  0  0  0  0  0  0  0  0  0  0
   -2.4206    3.7191    2.6779 H   0  0  0  0  0  0  0  0  0  0  0  0
  1  2  1  0
  1 32  1  0
  2 17  1  0
  2  3  1  0
  3  5  1  0
  3  4  2  0
  5  6  1  0
  5 18  1  0
  5 19  1  0
  6  7  1  0
  6 20  1  0
  6 21  1  0
  7  8  1  0
  7 22  1  0
  7 23  1  0
  8  9  1  0
  8 24  1  0
  8 25  1  0
  9 10  1  0
  9 26  1  0
  9 27  1  0
 10 11  1  0
 11 16  2  0
 11 12  1  0
 12 13  2  0
 12 28  1  0
 13 14  1  0
 13 29  1  0
 14 15  2  0
 14 30  1  0
 15 16  1  0
 16 31  1  0
M  END
>  <i_m_ct_stereo_status>  (289) 
1

>  <s_m_source_file>  (289) 
/var/tmp/pbs.5076255.sched01/tmpfes5ahby/80lk6pwr5_.sdf

>  <i_m_source_file_index>  (289) 
32

>  <i_lp_mmshare_version>  (289) 
48012

>  <i_f3d_flags>  (289) 
0

>  <s_epik_input>  (289) 
W09IXS9OPUMoXFtPSF0pW0NIMl1bQ0gyXVtDSDJdW0NIMl1bQ0gyXU9jMVtjSF1bY0hdW2NIXW5bY0hdMQ==

>  <s_epik_cmdline>  (289) 
J2VwaWtfcHl0aG9uJywgJy1waHQnLCAnMi4wJywgJy1waCcsICc3LjAnLCAnLXRuJywgJzgnLCAnLW1hJywgJzIwMCcsICctaW1hZScsICc8aW5maWxlLm1hZT4nLCAnLW9tYWUnLCAnPG91dGZpbGUubWFlPic=

>  <r_lp_tautomer_probability>  (289) 
1

>  <r_epik_Ionization_Penalty>  (289) 
0.00613535

>  <r_epik_Ionization_Penalty_Charging>  (289) 
0

>  <r_epik_Ionization_Penalty_Neutral>  (289) 
0.00613535

>  <r_epik_State_Penalty>  (289) 
-0

>  <r_epik_Charging_Adjusted_Penalty>  (289) 
0

>  <i_epik_Tot_Q>  (289) 
0

>  <i_epik_Tot_abs_Q>  (289) 
0

>  <s_epik_Chemistry_Notes>  (289) 
This compound has a N-S or N-O group and may undergo hydrolysis at high or low pH.

>  <s_lp_Force_Field>  (289) 
OPLS3e

>  <r_lp_Energy>  (289) 
14.0713

>  <b_lp_Chiralities_Consistent>  (289) 
1

>  <s_lp_Variant>  (289) 
70:0-1

>  <s_i_glide_gridfile>  (289) 
pfpi4k_grid

>  <i_i_glide_lignum>  (289) 
32

>  <i_i_glide_rotatable_bonds>  (289) 
9

>  <r_i_docking_score>  (289) 
0.305861

>  <r_i_glide_ligand_efficiency>  (289) 
0.0191163

>  <r_i_glide_ligand_efficiency_sa>  (289) 
0.0481702

>  <r_i_glide_ligand_efficiency_ln>  (289) 
0.0810747

>  <r_i_glide_gscore>  (289) 
0.305861

>  <r_i_glide_lipo>  (289) 
-0.531424

>  <r_i_glide_hbond>  (289) 
-0.16

>  <r_i_glide_metal>  (289) 
-0

>  <r_i_glide_rewards>  (289) 
-1.88007

>  <r_i_glide_evdw>  (289) 
-23.1972

>  <r_i_glide_ecoul>  (289) 
-3.62351

>  <r_i_glide_erotb>  (289) 
4.71695

>  <r_i_glide_esite>  (289) 
-0.136202

>  <r_i_glide_emodel>  (289) 
-22.9854

>  <r_i_glide_energy>  (289) 
-26.8207

>  <r_i_glide_einternal>  (289) 
5.75891

>  <r_i_glide_intrahb_reward>  (289) 
-0

>  <i_i_glide_confnum>  (289) 
12

>  <i_i_glide_posenum>  (289) 
1

>  <r_i_glide_eff_state_penalty>  (289) 
0

>  <ligand_id>  (289) 
70

>  <original_smiles>  (289) 
ON=C(O)CCCCCOc1cccnc1

>  <smiles>  (289) 
[H]ON([H])C(=O)C([H])([H])C([H])([H])C([H])([H])C([H])([H])C([H])([H])Oc1c([H])nc([H])c([H])c1[H]

$$$$
70:0:1
     RDKit          3D

 32 32  0  0  1  0  0  0  0  0999 V2000
   -1.0837    3.6058    3.2767 O   0  0  0  0  0  0  0  0  0  0  0  0
   -0.3706    2.4682    2.8759 N   0  0  0  0  0  0  0  0  0  0  0  0
   -0.4664    1.3582    3.6317 C   0  0  0  0  0  0  0  0  0  0  0  0
   -1.2308    1.2532    4.5918 O   0  0  0  0  0  0  0  0  0  0  0  0
    0.4761    0.2096    3.2435 C   0  0  0  0  0  0  0  0  0  0  0  0
    0.2876   -1.0758    4.0766 C   0  0  0  0  0  0  0  0  0  0  0  0
    1.3988   -2.1050    3.8263 C   0  0  0  0  0  0  0  0  0  0  0  0
    1.1427   -3.4253    4.5687 C   0  0  0  0  0  0  0  0  0  0  0  0
    2.2966   -4.4520    4.4324 C   0  0  0  0  0  0  0  0  0  0  0  0
    1.8854   -5.7434    4.8729 O   0  0  0  0  0  0  0  0  0  0  0  0
    1.0302   -6.4779    4.0614 C   0  0  0  0  0  0  0  0  0  0  0  0
    0.5196   -7.7057    4.5217 C   0  0  0  0  0  0  0  0  0  0  0  0
   -0.3669   -8.4296    3.7000 C   0  0  0  0  0  0  0  0  0  0  0  0
   -0.7090   -7.9012    2.4429 C   0  0  0  0  0  0  0  0  0  0  0  0
   -0.2432   -6.7198    1.9889 N   0  0  0  0  0  0  0  0  0  0  0  0
    0.6308   -6.0434    2.7775 C   0  0  0  0  0  0  0  0  0  0  0  0
    0.2278    2.6820    2.0835 H   0  0  0  0  0  0  0  0  0  0  0  0
    0.3391   -0.0109    2.1834 H   0  0  0  0  0  0  0  0  0  0  0  0
    1.4979    0.5704    3.3594 H   0  0  0  0  0  0  0  0  0  0  0  0
   -0.6836   -1.5109    3.8431 H   0  0  0  0  0  0  0  0  0  0  0  0
    0.2659   -0.8398    5.1408 H   0  0  0  0  0  0  0  0  0  0  0  0
    1.4803   -2.3030    2.7560 H   0  0  0  0  0  0  0  0  0  0  0  0
    2.3585   -1.6920    4.1384 H   0  0  0  0  0  0  0  0  0  0  0  0
    0.9618   -3.2382    5.6290 H   0  0  0  0  0  0  0  0  0  0  0  0
    0.2064   -3.8292    4.1861 H   0  0  0  0  0  0  0  0  0  0  0  0
    2.6750   -4.5202    3.4095 H   0  0  0  0  0  0  0  0  0  0  0  0
    3.1453   -4.1186    5.0441 H   0  0  0  0  0  0  0  0  0  0  0  0
    0.7816   -8.0873    5.5056 H   0  0  0  0  0  0  0  0  0  0  0  0
   -0.7850   -9.3870    4.0158 H   0  0  0  0  0  0  0  0  0  0  0  0
   -1.3796   -8.4205    1.7648 H   0  0  0  0  0  0  0  0  0  0  0  0
    0.9620   -5.1130    2.3502 H   0  0  0  0  0  0  0  0  0  0  0  0
   -0.8701    4.2207    2.5777 H   0  0  0  0  0  0  0  0  0  0  0  0
  1  2  1  0
  1 32  1  0
  2 17  1  0
  2  3  1  0
  3  5  1  0
  3  4  2  0
  5  6  1  0
  5 18  1  0
  5 19  1  0
  6  7  1  0
  6 20  1  0
  6 21  1  0
  7  8  1  0
  7 22  1  0
  7 23  1  0
  8  9  1  0
  8 24  1  0
  8 25  1  0
  9 10  1  0
  9 26  1  0
  9 27  1  0
 10 11  1  0
 11 16  2  0
 11 12  1  0
 12 13  2  0
 12 28  1  0
 13 14  1  0
 13 29  1  0
 14 15  2  0
 14 30  1  0
 15 16  1  0
 16 31  1  0
M  END
>  <i_m_ct_stereo_status>  (290) 
1

>  <s_m_source_file>  (290) 
/var/tmp/pbs.5076255.sched01/tmpfes5ahby/80lk6pwr5_.sdf

>  <i_m_source_file_index>  (290) 
32

>  <i_lp_mmshare_version>  (290) 
48012

>  <i_f3d_flags>  (290) 
0

>  <s_epik_input>  (290) 
W09IXS9OPUMoXFtPSF0pW0NIMl1bQ0gyXVtDSDJdW0NIMl1bQ0gyXU9jMVtjSF1bY0hdW2NIXW5bY0hdMQ==

>  <s_epik_cmdline>  (290) 
J2VwaWtfcHl0aG9uJywgJy1waHQnLCAnMi4wJywgJy1waCcsICc3LjAnLCAnLXRuJywgJzgnLCAnLW1hJywgJzIwMCcsICctaW1hZScsICc8aW5maWxlLm1hZT4nLCAnLW9tYWUnLCAnPG91dGZpbGUubWFlPic=

>  <r_lp_tautomer_probability>  (290) 
1

>  <r_epik_Ionization_Penalty>  (290) 
0.00613535

>  <r_epik_Ionization_Penalty_Charging>  (290) 
0

>  <r_epik_Ionization_Penalty_Neutral>  (290) 
0.00613535

>  <r_epik_State_Penalty>  (290) 
-0

>  <r_epik_Charging_Adjusted_Penalty>  (290) 
0

>  <i_epik_Tot_Q>  (290) 
0

>  <i_epik_Tot_abs_Q>  (290) 
0

>  <s_epik_Chemistry_Notes>  (290) 
This compound has a N-S or N-O group and may undergo hydrolysis at high or low pH.

>  <s_lp_Force_Field>  (290) 
OPLS3e

>  <r_lp_Energy>  (290) 
14.0713

>  <b_lp_Chiralities_Consistent>  (290) 
1

>  <s_lp_Variant>  (290) 
70:0-1

>  <s_i_glide_gridfile>  (290) 
pfpi4k_grid

>  <i_i_glide_lignum>  (290) 
32

>  <i_i_glide_rotatable_bonds>  (290) 
9

>  <r_i_docking_score>  (290) 
0.418405

>  <r_i_glide_ligand_efficiency>  (290) 
0.0261503

>  <r_i_glide_ligand_efficiency_sa>  (290) 
0.0658946

>  <r_i_glide_ligand_efficiency_ln>  (290) 
0.110906

>  <r_i_glide_gscore>  (290) 
0.418405

>  <r_i_glide_lipo>  (290) 
-0.0381789

>  <r_i_glide_hbond>  (290) 
-0.236443

>  <r_i_glide_metal>  (290) 
-0

>  <r_i_glide_rewards>  (290) 
-1.88007

>  <r_i_glide_evdw>  (290) 
-15.7297

>  <r_i_glide_ecoul>  (290) 
-8.2434

>  <r_i_glide_erotb>  (290) 
4.71695

>  <r_i_glide_esite>  (290) 
-0.120852

>  <r_i_glide_emodel>  (290) 
-19.9788

>  <r_i_glide_energy>  (290) 
-23.9731

>  <r_i_glide_einternal>  (290) 
5.50895

>  <r_i_glide_intrahb_reward>  (290) 
-0

>  <i_i_glide_confnum>  (290) 
12

>  <i_i_glide_posenum>  (290) 
2

>  <r_i_glide_eff_state_penalty>  (290) 
0

>  <ligand_id>  (290) 
70

>  <original_smiles>  (290) 
ON=C(O)CCCCCOc1cccnc1

>  <smiles>  (290) 
[H]ON([H])C(=O)C([H])([H])C([H])([H])C([H])([H])C([H])([H])C([H])([H])Oc1c([H])nc([H])c([H])c1[H]

$$$$
70:0:2
     RDKit          3D

 32 32  0  0  1  0  0  0  0  0999 V2000
   -0.3729    2.5293    2.4975 O   0  0  0  0  0  0  0  0  0  0  0  0
    0.3950    1.4228    2.0763 N   0  0  0  0  0  0  0  0  0  0  0  0
    0.4365    0.3685    2.8912 C   0  0  0  0  0  0  0  0  0  0  0  0
   -0.2363    0.2508    3.9241 O   0  0  0  0  0  0  0  0  0  0  0  0
    1.4238   -0.7263    2.4824 C   0  0  0  0  0  0  0  0  0  0  0  0
    1.2975   -2.0307    3.2853 C   0  0  0  0  0  0  0  0  0  0  0  0
    2.2883   -3.1038    2.8103 C   0  0  0  0  0  0  0  0  0  0  0  0
    2.1009   -4.3908    3.6230 C   0  0  0  0  0  0  0  0  0  0  0  0
    3.0360   -5.5429    3.1319 C   0  0  0  0  0  0  0  0  0  0  0  0
    2.6841   -6.8270    3.6587 O   0  0  0  0  0  0  0  0  0  0  0  0
    1.4826   -7.3789    3.2386 C   0  0  0  0  0  0  0  0  0  0  0  0
    1.0667   -8.6281    3.7443 C   0  0  0  0  0  0  0  0  0  0  0  0
   -0.1975   -9.1235    3.3383 C   0  0  0  0  0  0  0  0  0  0  0  0
   -1.0165   -8.3255    2.5110 C   0  0  0  0  0  0  0  0  0  0  0  0
   -0.6326   -7.1369    2.0326 N   0  0  0  0  0  0  0  0  0  0  0  0
    0.6175   -6.7333    2.3178 C   0  0  0  0  0  0  0  0  0  0  0  0
    0.8673    1.6039    1.2114 H   0  0  0  0  0  0  0  0  0  0  0  0
    1.2857   -0.9372    1.4227 H   0  0  0  0  0  0  0  0  0  0  0  0
    2.4347   -0.3333    2.5914 H   0  0  0  0  0  0  0  0  0  0  0  0
    0.2719   -2.4039    3.2237 H   0  0  0  0  0  0  0  0  0  0  0  0
    1.4840   -1.8377    4.3418 H   0  0  0  0  0  0  0  0  0  0  0  0
    2.1294   -3.2872    1.7388 H   0  0  0  0  0  0  0  0  0  0  0  0
    3.3170   -2.7567    2.9159 H   0  0  0  0  0  0  0  0  0  0  0  0
    2.2443   -4.2476    4.6951 H   0  0  0  0  0  0  0  0  0  0  0  0
    1.0266   -4.5966    3.5468 H   0  0  0  0  0  0  0  0  0  0  0  0
    3.1115   -5.6283    2.0442 H   0  0  0  0  0  0  0  0  0  0  0  0
    4.0589   -5.3031    3.4247 H   0  0  0  0  0  0  0  0  0  0  0  0
    1.6949   -9.2286    4.3991 H   0  0  0  0  0  0  0  0  0  0  0  0
   -0.5521  -10.0913    3.6467 H   0  0  0  0  0  0  0  0  0  0  0  0
   -1.9914   -8.6474    2.1695 H   0  0  0  0  0  0  0  0  0  0  0  0
    0.8590   -5.8138    1.8088 H   0  0  0  0  0  0  0  0  0  0  0  0
   -0.2016    3.1957    1.8345 H   0  0  0  0  0  0  0  0  0  0  0  0
  1  2  1  0
  1 32  1  0
  2 17  1  0
  2  3  1  0
  3  5  1  0
  3  4  2  0
  5  6  1  0
  5 18  1  0
  5 19  1  0
  6  7  1  0
  6 20  1  0
  6 21  1  0
  7  8  1  0
  7 22  1  0
  7 23  1  0
  8  9  1  0
  8 24  1  0
  8 25  1  0
  9 10  1  0
  9 26  1  0
  9 27  1  0
 10 11  1  0
 11 16  2  0
 11 12  1  0
 12 13  2  0
 12 28  1  0
 13 14  1  0
 13 29  1  0
 14 15  2  0
 14 30  1  0
 15 16  1  0
 16 31  1  0
M  END
>  <i_m_ct_stereo_status>  (291) 
1

>  <s_m_source_file>  (291) 
/var/tmp/pbs.5076255.sched01/tmpfes5ahby/80lk6pwr5_.sdf

>  <i_m_source_file_index>  (291) 
32

>  <i_lp_mmshare_version>  (291) 
48012

>  <i_f3d_flags>  (291) 
0

>  <s_epik_input>  (291) 
W09IXS9OPUMoXFtPSF0pW0NIMl1bQ0gyXVtDSDJdW0NIMl1bQ0gyXU9jMVtjSF1bY0hdW2NIXW5bY0hdMQ==

>  <s_epik_cmdline>  (291) 
J2VwaWtfcHl0aG9uJywgJy1waHQnLCAnMi4wJywgJy1waCcsICc3LjAnLCAnLXRuJywgJzgnLCAnLW1hJywgJzIwMCcsICctaW1hZScsICc8aW5maWxlLm1hZT4nLCAnLW9tYWUnLCAnPG91dGZpbGUubWFlPic=

>  <r_lp_tautomer_probability>  (291) 
1

>  <r_epik_Ionization_Penalty>  (291) 
0.00613535

>  <r_epik_Ionization_Penalty_Charging>  (291) 
0

>  <r_epik_Ionization_Penalty_Neutral>  (291) 
0.00613535

>  <r_epik_State_Penalty>  (291) 
-0

>  <r_epik_Charging_Adjusted_Penalty>  (291) 
0

>  <i_epik_Tot_Q>  (291) 
0

>  <i_epik_Tot_abs_Q>  (291) 
0

>  <s_epik_Chemistry_Notes>  (291) 
This compound has a N-S or N-O group and may undergo hydrolysis at high or low pH.

>  <s_lp_Force_Field>  (291) 
OPLS3e

>  <r_lp_Energy>  (291) 
14.0713

>  <b_lp_Chiralities_Consistent>  (291) 
1

>  <s_lp_Variant>  (291) 
70:0-1

>  <s_i_glide_gridfile>  (291) 
pfpi4k_grid

>  <i_i_glide_lignum>  (291) 
32

>  <i_i_glide_rotatable_bonds>  (291) 
9

>  <r_i_docking_score>  (291) 
0.6479

>  <r_i_glide_ligand_efficiency>  (291) 
0.0404937

>  <r_i_glide_ligand_efficiency_sa>  (291) 
0.102038

>  <r_i_glide_ligand_efficiency_ln>  (291) 
0.171739

>  <r_i_glide_gscore>  (291) 
0.6479

>  <r_i_glide_lipo>  (291) 
-0.024202

>  <r_i_glide_hbond>  (291) 
-0.112558

>  <r_i_glide_metal>  (291) 
-0

>  <r_i_glide_rewards>  (291) 
-1.88007

>  <r_i_glide_evdw>  (291) 
-16.3309

>  <r_i_glide_ecoul>  (291) 
-7.56492

>  <r_i_glide_erotb>  (291) 
4.71695

>  <r_i_glide_esite>  (291) 
-0.100932

>  <r_i_glide_emodel>  (291) 
-18.9603

>  <r_i_glide_energy>  (291) 
-23.8958

>  <r_i_glide_einternal>  (291) 
5.62307

>  <r_i_glide_intrahb_reward>  (291) 
-0

>  <i_i_glide_confnum>  (291) 
12

>  <i_i_glide_posenum>  (291) 
16

>  <r_i_glide_eff_state_penalty>  (291) 
0

>  <ligand_id>  (291) 
70

>  <original_smiles>  (291) 
ON=C(O)CCCCCOc1cccnc1

>  <smiles>  (291) 
[H]ON([H])C(=O)C([H])([H])C([H])([H])C([H])([H])C([H])([H])C([H])([H])Oc1c([H])nc([H])c([H])c1[H]

$$$$
71:0:0
     RDKit          3D

 35 37  0  0  1  0  0  0  0  0999 V2000
    5.0487   -5.5233    1.1074 C   0  0  0  0  0  0  0  0  0  0  0  0
    4.2962   -4.3738    0.4131 C   0  0  2  0  0  0  0  0  0  0  0  0
    5.0370   -3.7731   -0.8330 C   0  0  2  0  0  0  0  0  0  0  0  0
    6.4268   -3.2716   -0.3581 C   0  0  0  0  0  0  0  0  0  0  0  0
    6.2907   -2.2284    0.7826 C   0  0  1  0  0  0  0  0  0  0  0  0
    7.0103   -1.0599    0.4448 O   0  0  0  0  0  0  0  0  0  0  0  0
    4.8138   -1.9210    1.0844 C   0  0  2  0  0  0  0  0  0  0  0  0
    4.8134   -0.9302    2.1007 O   0  0  0  0  0  0  0  0  0  0  0  0
    3.9450   -3.1854    1.3456 C   0  0  1  0  0  0  0  0  0  0  0  0
    2.7780   -2.3422    0.8186 C   0  0  1  0  0  0  0  0  0  0  0  0
    2.0766   -1.4657    1.6827 O   0  0  0  0  0  0  0  0  0  0  0  0
    3.8324   -1.7228   -0.1145 C   0  0  2  0  0  0  0  0  0  0  0  0
    4.2067   -2.5519   -1.3729 C   0  0  0  0  0  0  0  0  0  0  0  0
    4.9989   -1.6727   -2.3604 C   0  0  0  0  0  0  0  0  0  0  0  0
    2.9739   -3.0511   -2.1680 C   0  0  0  0  0  0  0  0  0  0  0  0
    5.9484   -5.1917    1.6205 H   0  0  0  0  0  0  0  0  0  0  0  0
    5.3345   -6.2791    0.3755 H   0  0  0  0  0  0  0  0  0  0  0  0
    4.4132   -6.0074    1.8477 H   0  0  0  0  0  0  0  0  0  0  0  0
    3.3676   -4.8308    0.0590 H   0  0  0  0  0  0  0  0  0  0  0  0
    5.1524   -4.5284   -1.6123 H   0  0  0  0  0  0  0  0  0  0  0  0
    7.0319   -4.1088   -0.0153 H   0  0  0  0  0  0  0  0  0  0  0  0
    6.9940   -2.8713   -1.1965 H   0  0  0  0  0  0  0  0  0  0  0  0
    6.7560   -2.6421    1.6789 H   0  0  0  0  0  0  0  0  0  0  0  0
    7.0252   -0.4929    1.2086 H   0  0  0  0  0  0  0  0  0  0  0  0
    3.8971   -0.7405    2.2527 H   0  0  0  0  0  0  0  0  0  0  0  0
    3.8269   -3.4378    2.4034 H   0  0  0  0  0  0  0  0  0  0  0  0
    2.0371   -2.9519    0.3037 H   0  0  0  0  0  0  0  0  0  0  0  0
    1.4326   -1.0475    1.1087 H   0  0  0  0  0  0  0  0  0  0  0  0
    3.5981   -0.6742   -0.3137 H   0  0  0  0  0  0  0  0  0  0  0  0
    4.3536   -0.9495   -2.8565 H   0  0  0  0  0  0  0  0  0  0  0  0
    5.4574   -2.2878   -3.1320 H   0  0  0  0  0  0  0  0  0  0  0  0
    5.7837   -1.0944   -1.8785 H   0  0  0  0  0  0  0  0  0  0  0  0
    2.2781   -2.2383   -2.3814 H   0  0  0  0  0  0  0  0  0  0  0  0
    2.4136   -3.8297   -1.6580 H   0  0  0  0  0  0  0  0  0  0  0  0
    3.2804   -3.4799   -3.1205 H   0  0  0  0  0  0  0  0  0  0  0  0
  1  2  1  0
  1 16  1  0
  1 17  1  0
  1 18  1  0
  2  9  1  0
  2  3  1  0
  2 19  1  6
  3 13  1  0
  3  4  1  0
  3 20  1  6
  4  5  1  0
  4 21  1  0
  4 22  1  0
  5  6  1  0
  5  7  1  0
  5 23  1  1
  6 24  1  0
  7 12  1  0
  7  8  1  1
  7  9  1  0
  8 25  1  0
  9 10  1  0
  9 26  1  1
 10 11  1  0
 10 12  1  0
 10 27  1  6
 11 28  1  0
 12 13  1  0
 12 29  1  6
 13 14  1  0
 13 15  1  0
 14 30  1  0
 14 31  1  0
 14 32  1  0
 15 33  1  0
 15 34  1  0
 15 35  1  0
M  END
>  <i_m_ct_stereo_status>  (292) 
1

>  <s_m_source_file>  (292) 
/var/tmp/pbs.5076255.sched01/tmpfes5ahby/80lk6pwr5_.sdf

>  <i_m_source_file_index>  (292) 
33

>  <i_lp_mmshare_version>  (292) 
48012

>  <i_f3d_flags>  (292) 
0

>  <s_epik_input>  (292) 
W09IXVtDQF0xMltDQEBIXTNbQ0BIXShbQ0gzXSlbQ0BIXShbQ0gyXVtDQEhdMVtPSF0pQyhbQ0gzXSkoW0NIM10pW0NASF0yW0NAQEhdM1tPSF0=

>  <s_epik_cmdline>  (292) 
J2VwaWtfcHl0aG9uJywgJy1waHQnLCAnMi4wJywgJy1waCcsICc3LjAnLCAnLXRuJywgJzgnLCAnLW1hJywgJzIwMCcsICctaW1hZScsICc8aW5maWxlLm1hZT4nLCAnLW9tYWUnLCAnPG91dGZpbGUubWFlPic=

>  <r_lp_tautomer_probability>  (292) 
1

>  <r_epik_Ionization_Penalty>  (292) 
4.65145e-06

>  <r_epik_Ionization_Penalty_Charging>  (292) 
0

>  <r_epik_Ionization_Penalty_Neutral>  (292) 
4.65145e-06

>  <r_epik_State_Penalty>  (292) 
-0

>  <r_epik_Charging_Adjusted_Penalty>  (292) 
0

>  <i_epik_Tot_Q>  (292) 
0

>  <i_epik_Tot_abs_Q>  (292) 
0

>  <s_lp_Force_Field>  (292) 
OPLS3e

>  <r_lp_Energy>  (292) 
49.2363

>  <b_lp_Chiralities_Consistent>  (292) 
1

>  <s_lp_Variant>  (292) 
71:0-1

>  <s_i_glide_gridfile>  (292) 
pfpi4k_grid

>  <i_i_glide_lignum>  (292) 
33

>  <i_i_glide_rotatable_bonds>  (292) 
3

>  <r_i_docking_score>  (292) 
-4.05037

>  <r_i_glide_ligand_efficiency>  (292) 
-0.270024

>  <r_i_glide_ligand_efficiency_sa>  (292) 
-0.665937

>  <r_i_glide_ligand_efficiency_ln>  (292) 
-1.09232

>  <r_i_glide_gscore>  (292) 
-4.05037

>  <r_i_glide_lipo>  (292) 
-0.360656

>  <r_i_glide_hbond>  (292) 
0

>  <r_i_glide_metal>  (292) 
-0

>  <r_i_glide_rewards>  (292) 
-1.96169

>  <r_i_glide_evdw>  (292) 
-18.8183

>  <r_i_glide_ecoul>  (292) 
-5.24735

>  <r_i_glide_erotb>  (292) 
0

>  <r_i_glide_esite>  (292) 
0

>  <r_i_glide_emodel>  (292) 
-29.9831

>  <r_i_glide_energy>  (292) 
-24.0657

>  <r_i_glide_einternal>  (292) 
1.45304

>  <r_i_glide_intrahb_reward>  (292) 
-0

>  <i_i_glide_confnum>  (292) 
2

>  <i_i_glide_posenum>  (292) 
12

>  <r_i_glide_eff_state_penalty>  (292) 
0

>  <ligand_id>  (292) 
71

>  <original_smiles>  (292) 
CC1C2CC(O)C3(O)C1C(O)C3C2(C)C

>  <smiles>  (292) 
[H]OC1([H])C2([H])C([H])(C([H])([H])[H])C3([H])C([H])([H])C([H])(O[H])C2(O[H])C1([H])C3(C([H])([H])[H])C([H])([H])[H]

$$$$
71:0:1
     RDKit          3D

 35 37  0  0  1  0  0  0  0  0999 V2000
    4.4360   -1.4187   -2.6975 C   0  0  0  0  0  0  0  0  0  0  0  0
    3.9716   -1.8207   -1.2889 C   0  0  2  0  0  0  0  0  0  0  0  0
    4.8924   -1.3343   -0.1188 C   0  0  2  0  0  0  0  0  0  0  0  0
    6.3072   -1.8995   -0.3775 C   0  0  0  0  0  0  0  0  0  0  0  0
    6.2996   -3.4426   -0.4763 C   0  0  1  0  0  0  0  0  0  0  0  0
    7.2563   -3.9648    0.4240 O   0  0  0  0  0  0  0  0  0  0  0  0
    4.8859   -4.0093   -0.2286 C   0  0  2  0  0  0  0  0  0  0  0  0
    4.9864   -5.4260   -0.3145 O   0  0  0  0  0  0  0  0  0  0  0  0
    3.7770   -3.3504   -1.1063 C   0  0  1  0  0  0  0  0  0  0  0  0
    2.8174   -3.7076    0.0382 C   0  0  1  0  0  0  0  0  0  0  0  0
    2.2165   -4.9950    0.0799 O   0  0  0  0  0  0  0  0  0  0  0  0
    4.0337   -3.4256    0.9438 C   0  0  2  0  0  0  0  0  0  0  0  0
    4.3406   -1.9213    1.2328 C   0  0  0  0  0  0  0  0  0  0  0  0
    5.3521   -1.7921    2.3954 C   0  0  0  0  0  0  0  0  0  0  0  0
    3.0949   -1.1287    1.6907 C   0  0  0  0  0  0  0  0  0  0  0  0
    5.3360   -1.9399   -3.0080 H   0  0  0  0  0  0  0  0  0  0  0  0
    4.6238   -0.3450   -2.7351 H   0  0  0  0  0  0  0  0  0  0  0  0
    3.6652   -1.6424   -3.4327 H   0  0  0  0  0  0  0  0  0  0  0  0
    3.0141   -1.3136   -1.1687 H   0  0  0  0  0  0  0  0  0  0  0  0
    4.9211   -0.2425   -0.0827 H   0  0  0  0  0  0  0  0  0  0  0  0
    6.6886   -1.4902   -1.3090 H   0  0  0  0  0  0  0  0  0  0  0  0
    7.0045   -1.5555    0.3874 H   0  0  0  0  0  0  0  0  0  0  0  0
    6.6260   -3.7261   -1.4795 H   0  0  0  0  0  0  0  0  0  0  0  0
    6.9428   -3.8253    1.3041 H   0  0  0  0  0  0  0  0  0  0  0  0
    4.5423   -5.6762   -1.1098 H   0  0  0  0  0  0  0  0  0  0  0  0
    3.5415   -3.8818   -2.0300 H   0  0  0  0  0  0  0  0  0  0  0  0
    2.0160   -2.9796    0.1434 H   0  0  0  0  0  0  0  0  0  0  0  0
    2.6816   -5.5371   -0.5445 H   0  0  0  0  0  0  0  0  0  0  0  0
    4.0286   -4.0674    1.8250 H   0  0  0  0  0  0  0  0  0  0  0  0
    4.8836   -2.0336    3.3475 H   0  0  0  0  0  0  0  0  0  0  0  0
    5.7400   -0.7754    2.4662 H   0  0  0  0  0  0  0  0  0  0  0  0
    6.2007   -2.4636    2.2985 H   0  0  0  0  0  0  0  0  0  0  0  0
    2.5866   -1.6339    2.5130 H   0  0  0  0  0  0  0  0  0  0  0  0
    2.3625   -0.9734    0.9028 H   0  0  0  0  0  0  0  0  0  0  0  0
    3.3757   -0.1341    2.0369 H   0  0  0  0  0  0  0  0  0  0  0  0
  1  2  1  0
  1 16  1  0
  1 17  1  0
  1 18  1  0
  2  9  1  0
  2  3  1  0
  2 19  1  1
  3 13  1  0
  3  4  1  0
  3 20  1  1
  4  5  1  0
  4 21  1  0
  4 22  1  0
  5  6  1  0
  5  7  1  0
  5 23  1  6
  6 24  1  0
  7 12  1  0
  7  8  1  1
  7  9  1  0
  8 25  1  0
  9 10  1  0
  9 26  1  6
 10 11  1  0
 10 12  1  0
 10 27  1  1
 11 28  1  0
 12 13  1  0
 12 29  1  1
 13 14  1  0
 13 15  1  0
 14 30  1  0
 14 31  1  0
 14 32  1  0
 15 33  1  0
 15 34  1  0
 15 35  1  0
M  END
>  <i_m_ct_stereo_status>  (293) 
1

>  <s_m_source_file>  (293) 
/var/tmp/pbs.5076255.sched01/tmpfes5ahby/80lk6pwr5_.sdf

>  <i_m_source_file_index>  (293) 
33

>  <i_lp_mmshare_version>  (293) 
48012

>  <i_f3d_flags>  (293) 
0

>  <s_epik_input>  (293) 
W09IXVtDQF0xMltDQEBIXTNbQ0BIXShbQ0gzXSlbQ0BIXShbQ0gyXVtDQEhdMVtPSF0pQyhbQ0gzXSkoW0NIM10pW0NASF0yW0NAQEhdM1tPSF0=

>  <s_epik_cmdline>  (293) 
J2VwaWtfcHl0aG9uJywgJy1waHQnLCAnMi4wJywgJy1waCcsICc3LjAnLCAnLXRuJywgJzgnLCAnLW1hJywgJzIwMCcsICctaW1hZScsICc8aW5maWxlLm1hZT4nLCAnLW9tYWUnLCAnPG91dGZpbGUubWFlPic=

>  <r_lp_tautomer_probability>  (293) 
1

>  <r_epik_Ionization_Penalty>  (293) 
4.65145e-06

>  <r_epik_Ionization_Penalty_Charging>  (293) 
0

>  <r_epik_Ionization_Penalty_Neutral>  (293) 
4.65145e-06

>  <r_epik_State_Penalty>  (293) 
-0

>  <r_epik_Charging_Adjusted_Penalty>  (293) 
0

>  <i_epik_Tot_Q>  (293) 
0

>  <i_epik_Tot_abs_Q>  (293) 
0

>  <s_lp_Force_Field>  (293) 
OPLS3e

>  <r_lp_Energy>  (293) 
49.2363

>  <b_lp_Chiralities_Consistent>  (293) 
1

>  <s_lp_Variant>  (293) 
71:0-1

>  <s_i_glide_gridfile>  (293) 
pfpi4k_grid

>  <i_i_glide_lignum>  (293) 
33

>  <i_i_glide_rotatable_bonds>  (293) 
3

>  <r_i_docking_score>  (293) 
-4.01841

>  <r_i_glide_ligand_efficiency>  (293) 
-0.267894

>  <r_i_glide_ligand_efficiency_sa>  (293) 
-0.660683

>  <r_i_glide_ligand_efficiency_ln>  (293) 
-1.0837

>  <r_i_glide_gscore>  (293) 
-4.01841

>  <r_i_glide_lipo>  (293) 
-0.263387

>  <r_i_glide_hbond>  (293) 
0

>  <r_i_glide_metal>  (293) 
-0

>  <r_i_glide_rewards>  (293) 
-1.96169

>  <r_i_glide_evdw>  (293) 
-19.9887

>  <r_i_glide_ecoul>  (293) 
-5.29264

>  <r_i_glide_erotb>  (293) 
0

>  <r_i_glide_esite>  (293) 
0

>  <r_i_glide_emodel>  (293) 
-30.7569

>  <r_i_glide_energy>  (293) 
-25.2813

>  <r_i_glide_einternal>  (293) 
1.69415

>  <r_i_glide_intrahb_reward>  (293) 
-0

>  <i_i_glide_confnum>  (293) 
2

>  <i_i_glide_posenum>  (293) 
22

>  <r_i_glide_eff_state_penalty>  (293) 
0

>  <ligand_id>  (293) 
71

>  <original_smiles>  (293) 
CC1C2CC(O)C3(O)C1C(O)C3C2(C)C

>  <smiles>  (293) 
[H]OC1([H])C2([H])C([H])(C([H])([H])[H])C3([H])C([H])([H])C([H])(O[H])C2(O[H])C1([H])C3(C([H])([H])[H])C([H])([H])[H]

$$$$
71:0:2
     RDKit          3D

 35 37  0  0  1  0  0  0  0  0999 V2000
    4.2005   -1.7617   -3.0488 C   0  0  0  0  0  0  0  0  0  0  0  0
    3.8787   -1.9267   -1.5568 C   0  0  2  0  0  0  0  0  0  0  0  0
    4.9178   -1.2836   -0.5799 C   0  0  2  0  0  0  0  0  0  0  0  0
    6.2988   -1.9109   -0.8864 C   0  0  0  0  0  0  0  0  0  0  0  0
    6.2690   -3.4450   -0.7398 C   0  0  1  0  0  0  0  0  0  0  0  0
    7.2916   -3.8485    0.1441 O   0  0  0  0  0  0  0  0  0  0  0  0
    4.8877   -3.9325   -0.2610 C   0  0  2  0  0  0  0  0  0  0  0  0
    4.9790   -5.3474   -0.1376 O   0  0  0  0  0  0  0  0  0  0  0  0
    3.6964   -3.3975   -1.1103 C   0  0  1  0  0  0  0  0  0  0  0  0
    2.8688   -3.5567    0.1676 C   0  0  1  0  0  0  0  0  0  0  0  0
    2.2605   -4.8201    0.4395 O   0  0  0  0  0  0  0  0  0  0  0  0
    4.1691   -3.1538    0.8940 C   0  0  2  0  0  0  0  0  0  0  0  0
    4.5201   -1.6305    0.8995 C   0  0  0  0  0  0  0  0  0  0  0  0
    5.6476   -1.3384    1.9138 C   0  0  0  0  0  0  0  0  0  0  0  0
    3.3403   -0.7486    1.3534 C   0  0  0  0  0  0  0  0  0  0  0  0
    5.0670   -2.3370   -3.3664 H   0  0  0  0  0  0  0  0  0  0  0  0
    4.3864   -0.7098   -3.2776 H   0  0  0  0  0  0  0  0  0  0  0  0
    3.3596   -2.0831   -3.6622 H   0  0  0  0  0  0  0  0  0  0  0  0
    2.9370   -1.3967   -1.4253 H   0  0  0  0  0  0  0  0  0  0  0  0
    4.9546   -0.2050   -0.7253 H   0  0  0  0  0  0  0  0  0  0  0  0
    6.6073   -1.6661   -1.9020 H   0  0  0  0  0  0  0  0  0  0  0  0
    7.0698   -1.4775   -0.2495 H   0  0  0  0  0  0  0  0  0  0  0  0
    6.4914   -3.8532   -1.7292 H   0  0  0  0  0  0  0  0  0  0  0  0
    7.1981   -4.7840    0.2711 H   0  0  0  0  0  0  0  0  0  0  0  0
    4.6889   -5.6989   -0.9725 H   0  0  0  0  0  0  0  0  0  0  0  0
    3.3746   -4.0770   -1.8983 H   0  0  0  0  0  0  0  0  0  0  0  0
    2.0919   -2.8037    0.2435 H   0  0  0  0  0  0  0  0  0  0  0  0
    2.9596   -5.4549    0.3112 H   0  0  0  0  0  0  0  0  0  0  0  0
    4.2668   -3.6531    1.8594 H   0  0  0  0  0  0  0  0  0  0  0  0
    5.2830   -1.4111    2.9402 H   0  0  0  0  0  0  0  0  0  0  0  0
    6.0434   -0.3280    1.7777 H   0  0  0  0  0  0  0  0  0  0  0  0
    6.4787   -2.0359    1.8373 H   0  0  0  0  0  0  0  0  0  0  0  0
    2.9097   -1.1039    2.2911 H   0  0  0  0  0  0  0  0  0  0  0  0
    2.5394   -0.7000    0.6231 H   0  0  0  0  0  0  0  0  0  0  0  0
    3.6575    0.2852    1.5077 H   0  0  0  0  0  0  0  0  0  0  0  0
  1  2  1  0
  1 16  1  0
  1 17  1  0
  1 18  1  0
  2  9  1  0
  2  3  1  0
  2 19  1  6
  3 13  1  0
  3  4  1  0
  3 20  1  1
  4  5  1  0
  4 21  1  0
  4 22  1  0
  5  6  1  0
  5  7  1  0
  5 23  1  6
  6 24  1  0
  7 12  1  0
  7  8  1  1
  7  9  1  0
  8 25  1  0
  9 10  1  0
  9 26  1  6
 10 11  1  0
 10 12  1  0
 10 27  1  6
 11 28  1  0
 12 13  1  0
 12 29  1  1
 13 14  1  0
 13 15  1  0
 14 30  1  0
 14 31  1  0
 14 32  1  0
 15 33  1  0
 15 34  1  0
 15 35  1  0
M  END
>  <i_m_ct_stereo_status>  (294) 
1

>  <s_m_source_file>  (294) 
/var/tmp/pbs.5076255.sched01/tmpfes5ahby/80lk6pwr5_.sdf

>  <i_m_source_file_index>  (294) 
33

>  <i_lp_mmshare_version>  (294) 
48012

>  <i_f3d_flags>  (294) 
0

>  <s_epik_input>  (294) 
W09IXVtDQF0xMltDQEBIXTNbQ0BIXShbQ0gzXSlbQ0BIXShbQ0gyXVtDQEhdMVtPSF0pQyhbQ0gzXSkoW0NIM10pW0NASF0yW0NAQEhdM1tPSF0=

>  <s_epik_cmdline>  (294) 
J2VwaWtfcHl0aG9uJywgJy1waHQnLCAnMi4wJywgJy1waCcsICc3LjAnLCAnLXRuJywgJzgnLCAnLW1hJywgJzIwMCcsICctaW1hZScsICc8aW5maWxlLm1hZT4nLCAnLW9tYWUnLCAnPG91dGZpbGUubWFlPic=

>  <r_lp_tautomer_probability>  (294) 
1

>  <r_epik_Ionization_Penalty>  (294) 
4.65145e-06

>  <r_epik_Ionization_Penalty_Charging>  (294) 
0

>  <r_epik_Ionization_Penalty_Neutral>  (294) 
4.65145e-06

>  <r_epik_State_Penalty>  (294) 
-0

>  <r_epik_Charging_Adjusted_Penalty>  (294) 
0

>  <i_epik_Tot_Q>  (294) 
0

>  <i_epik_Tot_abs_Q>  (294) 
0

>  <s_lp_Force_Field>  (294) 
OPLS3e

>  <r_lp_Energy>  (294) 
49.2363

>  <b_lp_Chiralities_Consistent>  (294) 
1

>  <s_lp_Variant>  (294) 
71:0-1

>  <s_i_glide_gridfile>  (294) 
pfpi4k_grid

>  <i_i_glide_lignum>  (294) 
33

>  <i_i_glide_rotatable_bonds>  (294) 
3

>  <r_i_docking_score>  (294) 
-3.80613

>  <r_i_glide_ligand_efficiency>  (294) 
-0.253742

>  <r_i_glide_ligand_efficiency_sa>  (294) 
-0.625781

>  <r_i_glide_ligand_efficiency_ln>  (294) 
-1.02645

>  <r_i_glide_gscore>  (294) 
-3.80613

>  <r_i_glide_lipo>  (294) 
-0.395287

>  <r_i_glide_hbond>  (294) 
0

>  <r_i_glide_metal>  (294) 
-0

>  <r_i_glide_rewards>  (294) 
-1.96169

>  <r_i_glide_evdw>  (294) 
-19.5132

>  <r_i_glide_ecoul>  (294) 
-3.15658

>  <r_i_glide_erotb>  (294) 
0

>  <r_i_glide_esite>  (294) 
0

>  <r_i_glide_emodel>  (294) 
-28.2259

>  <r_i_glide_energy>  (294) 
-22.6698

>  <r_i_glide_einternal>  (294) 
1.40749

>  <r_i_glide_intrahb_reward>  (294) 
-0

>  <i_i_glide_confnum>  (294) 
1

>  <i_i_glide_posenum>  (294) 
5

>  <r_i_glide_eff_state_penalty>  (294) 
0

>  <ligand_id>  (294) 
71

>  <original_smiles>  (294) 
CC1C2CC(O)C3(O)C1C(O)C3C2(C)C

>  <smiles>  (294) 
[H]OC1([H])C2([H])C([H])(C([H])([H])[H])C3([H])C([H])([H])C([H])(O[H])C2(O[H])C1([H])C3(C([H])([H])[H])C([H])([H])[H]

$$$$
72:0:0
     RDKit          3D

 36 39  0  0  1  0  0  0  0  0999 V2000
    3.2806   -0.0726   -4.6420 C   0  0  0  0  0  0  0  0  0  0  0  0
    3.5312   -1.2270   -3.8081 N   0  0  0  0  0  0  0  0  0  0  0  0
    3.2003   -1.4491   -2.4969 C   0  0  0  0  0  0  0  0  0  0  0  0
    3.6726   -2.6783   -2.1389 C   0  0  0  0  0  0  0  0  0  0  0  0
    3.6415   -3.3641   -0.7941 C   0  0  2  0  0  0  0  0  0  0  0  0
    3.6398   -2.3470    0.3821 C   0  0  1  0  0  0  0  0  0  0  0  0
    3.5111   -3.0976    1.7256 C   0  0  0  0  0  0  0  0  0  0  0  0
    4.7180   -4.0346    1.9070 C   0  0  2  0  0  0  0  0  0  0  0  0
    6.0278   -3.2229    1.8817 C   0  0  0  0  0  0  0  0  0  0  0  0
    6.1567   -2.4764    0.5421 C   0  0  2  0  0  0  0  0  0  0  0  0
    4.9546   -1.5202    0.3857 C   0  0  0  0  0  0  0  0  0  0  0  0
    6.1827   -3.5114   -0.6028 C   0  0  0  0  0  0  0  0  0  0  0  0
    4.8560   -4.3174   -0.5879 C   0  0  1  0  0  0  0  0  0  0  0  0
    4.7287   -5.0614    0.7613 C   0  0  0  0  0  0  0  0  0  0  0  0
    4.2549   -3.1594   -3.3466 C   0  0  0  0  0  0  0  0  0  0  0  0
    4.1897   -2.2734   -4.3120 N   0  0  0  0  0  0  0  0  0  0  0  0
    2.9009    0.7329   -4.0309 H   0  0  0  0  0  0  0  0  0  0  0  0
    2.5365   -0.3077   -5.3997 H   0  0  0  0  0  0  0  0  0  0  0  0
    4.2000    0.2555   -5.1239 H   0  0  0  0  0  0  0  0  0  0  0  0
    2.6920   -0.6997   -1.9174 H   0  0  0  0  0  0  0  0  0  0  0  0
    2.7301   -3.9594   -0.7226 H   0  0  0  0  0  0  0  0  0  0  0  0
    2.7822   -1.6752    0.2976 H   0  0  0  0  0  0  0  0  0  0  0  0
    3.4591   -2.3869    2.5517 H   0  0  0  0  0  0  0  0  0  0  0  0
    2.5821   -3.6716    1.7454 H   0  0  0  0  0  0  0  0  0  0  0  0
    4.6356   -4.5536    2.8616 H   0  0  0  0  0  0  0  0  0  0  0  0
    6.0503   -2.5047    2.7013 H   0  0  0  0  0  0  0  0  0  0  0  0
    6.8782   -3.8928    2.0085 H   0  0  0  0  0  0  0  0  0  0  0  0
    7.0797   -1.8961    0.5331 H   0  0  0  0  0  0  0  0  0  0  0  0
    5.0685   -0.9393   -0.5309 H   0  0  0  0  0  0  0  0  0  0  0  0
    4.9365   -0.7863    1.1955 H   0  0  0  0  0  0  0  0  0  0  0  0
    6.3397   -3.0051   -1.5557 H   0  0  0  0  0  0  0  0  0  0  0  0
    7.0307   -4.1868   -0.4879 H   0  0  0  0  0  0  0  0  0  0  0  0
    4.8716   -5.0731   -1.3756 H   0  0  0  0  0  0  0  0  0  0  0  0
    5.5633   -5.7517    0.8847 H   0  0  0  0  0  0  0  0  0  0  0  0
    3.8214   -5.6690    0.7813 H   0  0  0  0  0  0  0  0  0  0  0  0
    4.7720   -4.0945   -3.5383 H   0  0  0  0  0  0  0  0  0  0  0  0
  1  2  1  0
  1 17  1  0
  1 18  1  0
  1 19  1  0
  2 16  1  0
  2  3  1  0
  3  4  2  0
  3 20  1  0
  4  5  1  0
  4 15  1  0
  5 13  1  0
  5  6  1  0
  5 21  1  6
  6 11  1  0
  6  7  1  0
  6 22  1  6
  7  8  1  0
  7 23  1  0
  7 24  1  0
  8 14  1  0
  8  9  1  0
  8 25  1  1
  9 10  1  0
  9 26  1  0
  9 27  1  0
 10 11  1  0
 10 12  1  0
 10 28  1  1
 11 29  1  0
 11 30  1  0
 12 13  1  0
 12 31  1  0
 12 32  1  0
 13 14  1  0
 13 33  1  6
 14 34  1  0
 14 35  1  0
 15 16  2  0
 15 36  1  0
M  END
>  <i_m_ct_stereo_status>  (295) 
1

>  <s_m_source_file>  (295) 
/var/tmp/pbs.5076255.sched01/tmpfes5ahby/80lk6pwr5_.sdf

>  <i_m_source_file_index>  (295) 
34

>  <i_lp_mmshare_version>  (295) 
48012

>  <i_f3d_flags>  (295) 
0

>  <s_epik_input>  (295) 
W0NIM11uMVtjSF1jKFtjSF1uMSlbQ0BIXShbQ0BIXTIzKVtDQEBIXTRbQ0gyXVtDQEhdKFtDSDJdMylbQ0gyXVtDQEhdKFtDSDJdMilbQ0gyXTQ=

>  <s_epik_cmdline>  (295) 
J2VwaWtfcHl0aG9uJywgJy1waHQnLCAnMi4wJywgJy1waCcsICc3LjAnLCAnLXRuJywgJzgnLCAnLW1hJywgJzIwMCcsICctaW1hZScsICc8aW5maWxlLm1hZT4nLCAnLW9tYWUnLCAnPG91dGZpbGUubWFlPic=

>  <r_lp_tautomer_probability>  (295) 
1

>  <r_epik_Ionization_Penalty>  (295) 
0.00147686

>  <r_epik_Ionization_Penalty_Charging>  (295) 
0

>  <r_epik_Ionization_Penalty_Neutral>  (295) 
0.00147686

>  <r_epik_State_Penalty>  (295) 
-0

>  <r_epik_Charging_Adjusted_Penalty>  (295) 
0

>  <i_epik_Tot_Q>  (295) 
0

>  <i_epik_Tot_abs_Q>  (295) 
0

>  <s_lp_Force_Field>  (295) 
OPLS3e

>  <r_lp_Energy>  (295) 
3.76399

>  <b_lp_Chiralities_Consistent>  (295) 
1

>  <s_lp_Variant>  (295) 
72:0-1

>  <s_i_glide_gridfile>  (295) 
pfpi4k_grid

>  <i_i_glide_lignum>  (295) 
34

>  <i_i_glide_rotatable_bonds>  (295) 
1

>  <r_i_docking_score>  (295) 
-4.61324

>  <r_i_glide_ligand_efficiency>  (295) 
-0.288327

>  <r_i_glide_ligand_efficiency_sa>  (295) 
-0.726539

>  <r_i_glide_ligand_efficiency_ln>  (295) 
-1.22283

>  <r_i_glide_gscore>  (295) 
-4.61324

>  <r_i_glide_lipo>  (295) 
-0.780138

>  <r_i_glide_hbond>  (295) 
-0.32

>  <r_i_glide_metal>  (295) 
-0

>  <r_i_glide_rewards>  (295) 
-2.16268

>  <r_i_glide_evdw>  (295) 
-18.3866

>  <r_i_glide_ecoul>  (295) 
-5.26087

>  <r_i_glide_erotb>  (295) 
0.358044

>  <r_i_glide_esite>  (295) 
0

>  <r_i_glide_emodel>  (295) 
-30.7858

>  <r_i_glide_energy>  (295) 
-23.6475

>  <r_i_glide_einternal>  (295) 
0.0335837

>  <r_i_glide_intrahb_reward>  (295) 
-0

>  <i_i_glide_confnum>  (295) 
3

>  <i_i_glide_posenum>  (295) 
1

>  <r_i_glide_eff_state_penalty>  (295) 
0

>  <ligand_id>  (295) 
72

>  <original_smiles>  (295) 
Cn1cc(C2C3CC4CC(C3)CC2C4)cn1

>  <smiles>  (295) 
[H]c1nn(C([H])([H])[H])c([H])c1C1([H])C2([H])C([H])([H])C3([H])C([H])([H])C([H])(C2([H])[H])C([H])([H])C1([H])C3([H])[H]

$$$$
72:0:1
     RDKit          3D

 36 39  0  0  1  0  0  0  0  0999 V2000
    3.4675   -0.0142   -4.6553 C   0  0  0  0  0  0  0  0  0  0  0  0
    3.7899   -1.1761   -3.8517 N   0  0  0  0  0  0  0  0  0  0  0  0
    4.1074   -1.1816   -2.5137 C   0  0  0  0  0  0  0  0  0  0  0  0
    4.3157   -2.4757   -2.1296 C   0  0  0  0  0  0  0  0  0  0  0  0
    4.6718   -3.0366   -0.7587 C   0  0  2  0  0  0  0  0  0  0  0  0
    3.6094   -2.6974    0.3223 C   0  0  1  0  0  0  0  0  0  0  0  0
    3.9949   -3.3891    1.6560 C   0  0  0  0  0  0  0  0  0  0  0  0
    5.3706   -2.8622    2.1283 C   0  0  2  0  0  0  0  0  0  0  0  0
    5.3346   -1.3203    2.3035 C   0  0  0  0  0  0  0  0  0  0  0  0
    4.9495   -0.6674    0.9601 C   0  0  2  0  0  0  0  0  0  0  0  0
    3.5217   -1.1682    0.5699 C   0  0  0  0  0  0  0  0  0  0  0  0
    6.0757   -1.0293   -0.0582 C   0  0  0  0  0  0  0  0  0  0  0  0
    6.0679   -2.5641   -0.2794 C   0  0  1  0  0  0  0  0  0  0  0  0
    6.4220   -3.2474    1.0606 C   0  0  0  0  0  0  0  0  0  0  0  0
    4.1130   -3.2133   -3.3355 C   0  0  0  0  0  0  0  0  0  0  0  0
    3.7846   -2.4183   -4.3390 N   0  0  0  0  0  0  0  0  0  0  0  0
    3.6640    0.8823   -4.0714 H   0  0  0  0  0  0  0  0  0  0  0  0
    2.4091   -0.0072   -4.9294 H   0  0  0  0  0  0  0  0  0  0  0  0
    4.0937    0.0339   -5.5451 H   0  0  0  0  0  0  0  0  0  0  0  0
    4.1333   -0.2403   -1.9858 H   0  0  0  0  0  0  0  0  0  0  0  0
    4.7101   -4.1190   -0.8505 H   0  0  0  0  0  0  0  0  0  0  0  0
    2.6373   -3.0814    0.0060 H   0  0  0  0  0  0  0  0  0  0  0  0
    3.2399   -3.1776    2.4123 H   0  0  0  0  0  0  0  0  0  0  0  0
    4.0264   -4.4790    1.5451 H   0  0  0  0  0  0  0  0  0  0  0  0
    5.6289   -3.3212    3.0842 H   0  0  0  0  0  0  0  0  0  0  0  0
    4.6147   -1.0319    3.0679 H   0  0  0  0  0  0  0  0  0  0  0  0
    6.3106   -0.9514    2.6269 H   0  0  0  0  0  0  0  0  0  0  0  0
    4.9128    0.4143    1.0642 H   0  0  0  0  0  0  0  0  0  0  0  0
    3.1140   -0.6515   -0.2946 H   0  0  0  0  0  0  0  0  0  0  0  0
    2.8291   -0.9948    1.4173 H   0  0  0  0  0  0  0  0  0  0  0  0
    5.9427   -0.4940   -0.9973 H   0  0  0  0  0  0  0  0  0  0  0  0
    7.0615   -0.7295    0.3366 H   0  0  0  0  0  0  0  0  0  0  0  0
    6.8213   -2.8530   -1.0173 H   0  0  0  0  0  0  0  0  0  0  0  0
    7.4100   -2.9163    1.3751 H   0  0  0  0  0  0  0  0  0  0  0  0
    6.4836   -4.3364    0.9626 H   0  0  0  0  0  0  0  0  0  0  0  0
    4.1808   -4.2766   -3.5187 H   0  0  0  0  0  0  0  0  0  0  0  0
  1  2  1  0
  1 17  1  0
  1 18  1  0
  1 19  1  0
  2 16  1  0
  2  3  1  0
  3  4  2  0
  3 20  1  0
  4  5  1  0
  4 15  1  0
  5 13  1  0
  5  6  1  0
  5 21  1  6
  6 11  1  0
  6  7  1  0
  6 22  1  6
  7  8  1  0
  7 23  1  0
  7 24  1  0
  8 14  1  0
  8  9  1  0
  8 25  1  1
  9 10  1  0
  9 26  1  0
  9 27  1  0
 10 11  1  0
 10 12  1  0
 10 28  1  1
 11 29  1  0
 11 30  1  0
 12 13  1  0
 12 31  1  0
 12 32  1  0
 13 14  1  0
 13 33  1  6
 14 34  1  0
 14 35  1  0
 15 16  2  0
 15 36  1  0
M  END
>  <i_m_ct_stereo_status>  (296) 
1

>  <s_m_source_file>  (296) 
/var/tmp/pbs.5076255.sched01/tmpfes5ahby/80lk6pwr5_.sdf

>  <i_m_source_file_index>  (296) 
34

>  <i_lp_mmshare_version>  (296) 
48012

>  <i_f3d_flags>  (296) 
0

>  <s_epik_input>  (296) 
W0NIM11uMVtjSF1jKFtjSF1uMSlbQ0BIXShbQ0BIXTIzKVtDQEBIXTRbQ0gyXVtDQEhdKFtDSDJdMylbQ0gyXVtDQEhdKFtDSDJdMilbQ0gyXTQ=

>  <s_epik_cmdline>  (296) 
J2VwaWtfcHl0aG9uJywgJy1waHQnLCAnMi4wJywgJy1waCcsICc3LjAnLCAnLXRuJywgJzgnLCAnLW1hJywgJzIwMCcsICctaW1hZScsICc8aW5maWxlLm1hZT4nLCAnLW9tYWUnLCAnPG91dGZpbGUubWFlPic=

>  <r_lp_tautomer_probability>  (296) 
1

>  <r_epik_Ionization_Penalty>  (296) 
0.00147686

>  <r_epik_Ionization_Penalty_Charging>  (296) 
0

>  <r_epik_Ionization_Penalty_Neutral>  (296) 
0.00147686

>  <r_epik_State_Penalty>  (296) 
-0

>  <r_epik_Charging_Adjusted_Penalty>  (296) 
0

>  <i_epik_Tot_Q>  (296) 
0

>  <i_epik_Tot_abs_Q>  (296) 
0

>  <s_lp_Force_Field>  (296) 
OPLS3e

>  <r_lp_Energy>  (296) 
3.76399

>  <b_lp_Chiralities_Consistent>  (296) 
1

>  <s_lp_Variant>  (296) 
72:0-1

>  <s_i_glide_gridfile>  (296) 
pfpi4k_grid

>  <i_i_glide_lignum>  (296) 
34

>  <i_i_glide_rotatable_bonds>  (296) 
1

>  <r_i_docking_score>  (296) 
-4.4989

>  <r_i_glide_ligand_efficiency>  (296) 
-0.281181

>  <r_i_glide_ligand_efficiency_sa>  (296) 
-0.708532

>  <r_i_glide_ligand_efficiency_ln>  (296) 
-1.19252

>  <r_i_glide_gscore>  (296) 
-4.4989

>  <r_i_glide_lipo>  (296) 
-0.761173

>  <r_i_glide_hbond>  (296) 
-0.32

>  <r_i_glide_metal>  (296) 
-0

>  <r_i_glide_rewards>  (296) 
-2.14236

>  <r_i_glide_evdw>  (296) 
-21.4727

>  <r_i_glide_ecoul>  (296) 
-3.73187

>  <r_i_glide_erotb>  (296) 
0.358044

>  <r_i_glide_esite>  (296) 
0

>  <r_i_glide_emodel>  (296) 
-27.8782

>  <r_i_glide_energy>  (296) 
-25.2045

>  <r_i_glide_einternal>  (296) 
6.39408

>  <r_i_glide_intrahb_reward>  (296) 
-0

>  <i_i_glide_confnum>  (296) 
3

>  <i_i_glide_posenum>  (296) 
11

>  <r_i_glide_eff_state_penalty>  (296) 
0

>  <ligand_id>  (296) 
72

>  <original_smiles>  (296) 
Cn1cc(C2C3CC4CC(C3)CC2C4)cn1

>  <smiles>  (296) 
[H]c1nn(C([H])([H])[H])c([H])c1C1([H])C2([H])C([H])([H])C3([H])C([H])([H])C([H])(C2([H])[H])C([H])([H])C1([H])C3([H])[H]

$$$$
73:0:0
     RDKit          3D

 46 51  0  0  1  0  0  0  0  0999 V2000
    5.1114   -3.4349    3.8628 C   0  0  0  0  0  0  0  0  0  0  0  0
    4.6997   -2.2352    4.4952 O   0  0  0  0  0  0  0  0  0  0  0  0
    4.0443   -1.3018    3.7263 C   0  0  0  0  0  0  0  0  0  0  0  0
    3.7982   -1.3943    2.3311 C   0  0  0  0  0  0  0  0  0  0  0  0
    2.9537   -0.4766    1.6500 C   0  0  0  0  0  0  0  0  0  0  0  0
    2.4648    0.6504    2.3585 C   0  0  0  0  0  0  0  0  0  0  0  0
    2.9711    0.8033    3.6593 C   0  0  0  0  0  0  0  0  0  0  0  0
    3.5220   -0.1862    4.4300 C   0  0  0  0  0  0  0  0  0  0  0  0
    3.2696   -0.0526    5.7773 O   0  0  0  0  0  0  0  0  0  0  0  0
    2.5874    1.2123    6.0274 C   0  0  2  0  0  0  0  0  0  0  0  0
    1.0310    1.4331    6.1426 C   0  0  0  0  0  0  0  0  0  0  0  0
    0.9791    1.3164    4.6009 C   0  0  1  0  0  0  0  0  0  0  0  0
    0.3512    1.9759    3.3500 C   0  0  2  0  0  0  0  0  0  0  0  0
    1.1393    1.4240    2.0792 C   0  0  0  0  0  0  0  0  0  0  0  0
    0.4887    3.4717    3.3534 N   0  0  1  0  0  0  0  0  0  0  0  0
   -0.3906    4.1581    4.3495 C   0  0  0  0  0  0  0  0  0  0  0  0
   -1.8539    4.0984    3.9537 C   0  0  0  0  0  0  0  0  0  0  0  0
   -2.3707    3.3402    2.7453 C   0  0  0  0  0  0  0  0  0  0  0  0
   -2.3472    4.8439    2.7373 C   0  0  0  0  0  0  0  0  0  0  0  0
    1.9174    3.9396    3.3686 C   0  0  0  0  0  0  0  0  0  0  0  0
    2.7398    3.2417    4.4517 C   0  0  0  0  0  0  0  0  0  0  0  0
    2.4161    1.7540    4.6328 C   0  0  2  0  0  0  0  0  0  0  0  0
    5.6265   -4.0543    4.5953 H   0  0  0  0  0  0  0  0  0  0  0  0
    5.8088   -3.2482    3.0454 H   0  0  0  0  0  0  0  0  0  0  0  0
    4.2573   -4.0036    3.4934 H   0  0  0  0  0  0  0  0  0  0  0  0
    4.1482   -2.2492    1.7763 H   0  0  0  0  0  0  0  0  0  0  0  0
    2.6128   -0.6924    0.6420 H   0  0  0  0  0  0  0  0  0  0  0  0
    3.1577    1.8887    6.6620 H   0  0  0  0  0  0  0  0  0  0  0  0
    0.5119    0.6432    6.6958 H   0  0  0  0  0  0  0  0  0  0  0  0
    0.8209    2.4204    6.5520 H   0  0  0  0  0  0  0  0  0  0  0  0
    0.8454    0.2460    4.5041 H   0  0  0  0  0  0  0  0  0  0  0  0
   -0.7037    1.6973    3.2643 H   0  0  0  0  0  0  0  0  0  0  0  0
    1.3122    2.2014    1.3277 H   0  0  0  0  0  0  0  0  0  0  0  0
    0.4604    0.7423    1.5789 H   0  0  0  0  0  0  0  0  0  0  0  0
   -0.2798    3.7146    5.3398 H   0  0  0  0  0  0  0  0  0  0  0  0
   -0.0945    5.1993    4.4813 H   0  0  0  0  0  0  0  0  0  0  0  0
   -2.4909    4.1719    4.8327 H   0  0  0  0  0  0  0  0  0  0  0  0
   -1.6665    2.8461    2.0817 H   0  0  0  0  0  0  0  0  0  0  0  0
   -3.3068    2.8156    2.9222 H   0  0  0  0  0  0  0  0  0  0  0  0
   -3.3394    5.3091    2.7008 H   0  0  0  0  0  0  0  0  0  0  0  0
   -1.5931    5.3162    2.1096 H   0  0  0  0  0  0  0  0  0  0  0  0
    2.3635    3.7532    2.3959 H   0  0  0  0  0  0  0  0  0  0  0  0
    1.9496    5.0262    3.4781 H   0  0  0  0  0  0  0  0  0  0  0  0
    3.8064    3.4137    4.2935 H   0  0  0  0  0  0  0  0  0  0  0  0
    2.4793    3.7600    5.3741 H   0  0  0  0  0  0  0  0  0  0  0  0
    0.1759    3.7877    2.4295 H   0  0  0  0  0  0  0  0  0  0  0  0
  1  2  1  0
  1 23  1  0
  1 24  1  0
  1 25  1  0
  2  3  1  0
  3  8  2  0
  3  4  1  0
  4  5  2  0
  4 26  1  0
  5  6  1  0
  5 27  1  0
  6 14  1  0
  6  7  2  0
  7 22  1  0
  7  8  1  0
  8  9  1  0
  9 10  1  0
 10 22  1  0
 10 11  1  0
 10 28  1  1
 11 12  1  0
 11 29  1  0
 11 30  1  0
 12 22  1  0
 12 13  1  0
 12 31  1  1
 13 14  1  0
 13 15  1  0
 13 32  1  6
 14 33  1  0
 14 34  1  0
 15 16  1  0
 15 20  1  0
 15 46  1  6
 16 17  1  0
 16 35  1  0
 16 36  1  0
 17 19  1  0
 17 18  1  0
 17 37  1  0
 18 19  1  0
 18 38  1  0
 18 39  1  0
 19 40  1  0
 19 41  1  0
 20 21  1  0
 20 42  1  0
 20 43  1  0
 22 21  1  1
 21 44  1  0
 21 45  1  0
M  CHG  1  15   1
M  END
>  <i_m_ct_stereo_status>  (297) 
1

>  <s_m_source_file>  (297) 
/var/tmp/pbs.5076255.sched01/tmpfes5ahby/80lk6pwr5_.sdf

>  <i_m_source_file_index>  (297) 
35

>  <i_lp_mmshare_version>  (297) 
48012

>  <i_f3d_flags>  (297) 
0

>  <s_epik_input>  (297) 
W0NAQF0xMjNjNGM1W2NIXVtjSF1jKE9bQ0gzXSljNE9bQ0BASF0xW0NIMl1bQ0BIXTJbQ0BIXShbQ0gyXTUpTihbQ0gyXVtDSDJdMylbQ0gyXVtDSF02W0NIMl1bQ0gyXTY=

>  <s_epik_cmdline>  (297) 
J2VwaWtfcHl0aG9uJywgJy1waHQnLCAnMi4wJywgJy1waCcsICc3LjAnLCAnLXRuJywgJzgnLCAnLW1hJywgJzIwMCcsICctaW1hZScsICc8aW5maWxlLm1hZT4nLCAnLW9tYWUnLCAnPG91dGZpbGUubWFlPic=

>  <r_lp_tautomer_probability>  (297) 
1

>  <r_epik_Ionization_Penalty>  (297) 
0.00962322

>  <r_epik_Ionization_Penalty_Charging>  (297) 
0.00962322

>  <r_epik_Ionization_Penalty_Neutral>  (297) 
0

>  <r_epik_State_Penalty>  (297) 
0.00731768

>  <r_epik_Charging_Adjusted_Penalty>  (297) 
0.0169409

>  <i_epik_Tot_Q>  (297) 
1

>  <i_epik_Tot_abs_Q>  (297) 
1

>  <s_lp_Force_Field>  (297) 
OPLS3e

>  <r_lp_Energy>  (297) 
122.633

>  <b_lp_Chiralities_Consistent>  (297) 
1

>  <s_lp_Variant>  (297) 
73:0-1

>  <s_i_glide_gridfile>  (297) 
pfpi4k_grid

>  <i_i_glide_lignum>  (297) 
35

>  <i_i_glide_rotatable_bonds>  (297) 
3

>  <r_i_docking_score>  (297) 
-2.90911

>  <r_i_glide_ligand_efficiency>  (297) 
-0.132232

>  <r_i_glide_ligand_efficiency_sa>  (297) 
-0.37052

>  <r_i_glide_ligand_efficiency_ln>  (297) 
-0.711092

>  <r_i_glide_gscore>  (297) 
-2.90911

>  <r_i_glide_lipo>  (297) 
-0.0428987

>  <r_i_glide_hbond>  (297) 
-0.2

>  <r_i_glide_metal>  (297) 
-0

>  <r_i_glide_rewards>  (297) 
-1.37455

>  <r_i_glide_evdw>  (297) 
-16.6383

>  <r_i_glide_ecoul>  (297) 
-5.14611

>  <r_i_glide_erotb>  (297) 
0.412173

>  <r_i_glide_esite>  (297) 
-0.1

>  <r_i_glide_emodel>  (297) 
-21.4064

>  <r_i_glide_energy>  (297) 
-21.7844

>  <r_i_glide_einternal>  (297) 
9.47344

>  <r_i_glide_intrahb_reward>  (297) 
-0

>  <i_i_glide_confnum>  (297) 
2

>  <i_i_glide_posenum>  (297) 
17

>  <r_i_glide_eff_state_penalty>  (297) 
0

>  <ligand_id>  (297) 
73

>  <original_smiles>  (297) 
COc1ccc2c3c1OC1CC4C(C2)N(CC2CC2)CCC314

>  <smiles>  (297) 
[H]c1c([H])c2c3c(c1OC([H])([H])[H])OC1([H])C([H])([H])C4([H])C31C([H])([H])C([H])([H])[N+]([H])(C([H])([H])C1([H])C([H])([H])C1([H])[H])C4([H])C2([H])[H]

$$$$
73:0:1
     RDKit          3D

 46 51  0  0  1  0  0  0  0  0999 V2000
    4.1670   -3.1923    4.6944 C   0  0  0  0  0  0  0  0  0  0  0  0
    3.1037   -2.3618    5.1342 O   0  0  0  0  0  0  0  0  0  0  0  0
    2.7293   -1.3032    4.3358 C   0  0  0  0  0  0  0  0  0  0  0  0
    3.2983   -0.9897    3.0656 C   0  0  0  0  0  0  0  0  0  0  0  0
    2.7296   -0.0012    2.2102 C   0  0  0  0  0  0  0  0  0  0  0  0
    1.6674    0.7976    2.6911 C   0  0  0  0  0  0  0  0  0  0  0  0
    1.3341    0.5832    4.0398 C   0  0  0  0  0  0  0  0  0  0  0  0
    1.6423   -0.5229    4.8000 C   0  0  0  0  0  0  0  0  0  0  0  0
    0.6855   -0.8367    5.7421 O   0  0  0  0  0  0  0  0  0  0  0  0
   -0.3233    0.2085    5.7706 C   0  0  2  0  0  0  0  0  0  0  0  0
   -1.6916    0.2329    5.0067 C   0  0  0  0  0  0  0  0  0  0  0  0
   -0.8996    0.6008    3.7329 C   0  0  1  0  0  0  0  0  0  0  0  0
   -0.9089    1.5653    2.5158 C   0  0  2  0  0  0  0  0  0  0  0  0
    0.5462    1.4918    1.8630 C   0  0  0  0  0  0  0  0  0  0  0  0
   -1.1913    2.9811    2.8889 N   0  0  1  0  0  0  0  0  0  0  0  0
   -2.5920    3.2216    3.3278 C   0  0  0  0  0  0  0  0  0  0  0  0
   -3.5571    3.3875    2.1760 C   0  0  0  0  0  0  0  0  0  0  0  0
   -4.1835    4.7342    1.8521 C   0  0  0  0  0  0  0  0  0  0  0  0
   -5.0189    3.6430    2.4479 C   0  0  0  0  0  0  0  0  0  0  0  0
   -0.1637    3.5359    3.8149 C   0  0  0  0  0  0  0  0  0  0  0  0
    0.1161    2.6299    5.0151 C   0  0  0  0  0  0  0  0  0  0  0  0
    0.1337    1.1389    4.6712 C   0  0  2  0  0  0  0  0  0  0  0  0
    4.3449   -3.9610    5.4466 H   0  0  0  0  0  0  0  0  0  0  0  0
    5.0956   -2.6329    4.5737 H   0  0  0  0  0  0  0  0  0  0  0  0
    3.9210   -3.7011    3.7616 H   0  0  0  0  0  0  0  0  0  0  0  0
    4.0971   -1.5928    2.6643 H   0  0  0  0  0  0  0  0  0  0  0  0
    3.0402    0.0661    1.1741 H   0  0  0  0  0  0  0  0  0  0  0  0
   -0.3566    0.7161    6.7332 H   0  0  0  0  0  0  0  0  0  0  0  0
   -2.2012   -0.7344    5.0059 H   0  0  0  0  0  0  0  0  0  0  0  0
   -2.3077    1.0274    5.4221 H   0  0  0  0  0  0  0  0  0  0  0  0
   -0.6774   -0.3963    3.3634 H   0  0  0  0  0  0  0  0  0  0  0  0
   -1.6436    1.2617    1.7657 H   0  0  0  0  0  0  0  0  0  0  0  0
    0.9184    2.4631    1.5373 H   0  0  0  0  0  0  0  0  0  0  0  0
    0.4515    0.9291    0.9353 H   0  0  0  0  0  0  0  0  0  0  0  0
   -2.9630    2.4174    3.9556 H   0  0  0  0  0  0  0  0  0  0  0  0
   -2.6412    4.1132    3.9497 H   0  0  0  0  0  0  0  0  0  0  0  0
   -3.4099    2.6691    1.3710 H   0  0  0  0  0  0  0  0  0  0  0  0
   -3.9028    5.5768    2.4767 H   0  0  0  0  0  0  0  0  0  0  0  0
   -4.3830    4.9612    0.8087 H   0  0  0  0  0  0  0  0  0  0  0  0
   -5.7278    3.1400    1.8112 H   0  0  0  0  0  0  0  0  0  0  0  0
   -5.3531    3.7443    3.4759 H   0  0  0  0  0  0  0  0  0  0  0  0
    0.7708    3.7031    3.2852 H   0  0  0  0  0  0  0  0  0  0  0  0
   -0.4503    4.5306    4.1528 H   0  0  0  0  0  0  0  0  0  0  0  0
    1.0136    2.9361    5.5478 H   0  0  0  0  0  0  0  0  0  0  0  0
   -0.7056    2.8080    5.7073 H   0  0  0  0  0  0  0  0  0  0  0  0
   -1.0469    3.5313    2.0455 H   0  0  0  0  0  0  0  0  0  0  0  0
  1  2  1  0
  1 23  1  0
  1 24  1  0
  1 25  1  0
  2  3  1  0
  3  8  2  0
  3  4  1  0
  4  5  2  0
  4 26  1  0
  5  6  1  0
  5 27  1  0
  6 14  1  0
  6  7  2  0
  7 22  1  0
  7  8  1  0
  8  9  1  0
  9 10  1  0
 10 22  1  0
 10 11  1  0
 10 28  1  1
 11 12  1  0
 11 29  1  0
 11 30  1  0
 12 22  1  0
 12 13  1  0
 12 31  1  6
 13 14  1  0
 13 15  1  0
 13 32  1  6
 14 33  1  0
 14 34  1  0
 15 16  1  0
 15 20  1  0
 15 46  1  6
 16 17  1  0
 16 35  1  0
 16 36  1  0
 17 19  1  0
 17 18  1  0
 17 37  1  0
 18 19  1  0
 18 38  1  0
 18 39  1  0
 19 40  1  0
 19 41  1  0
 20 21  1  0
 20 42  1  0
 20 43  1  0
 22 21  1  1
 21 44  1  0
 21 45  1  0
M  CHG  1  15   1
M  END
>  <i_m_ct_stereo_status>  (298) 
1

>  <s_m_source_file>  (298) 
/var/tmp/pbs.5076255.sched01/tmpfes5ahby/80lk6pwr5_.sdf

>  <i_m_source_file_index>  (298) 
35

>  <i_lp_mmshare_version>  (298) 
48012

>  <i_f3d_flags>  (298) 
0

>  <s_epik_input>  (298) 
W0NAQF0xMjNjNGM1W2NIXVtjSF1jKE9bQ0gzXSljNE9bQ0BASF0xW0NIMl1bQ0BIXTJbQ0BIXShbQ0gyXTUpTihbQ0gyXVtDSDJdMylbQ0gyXVtDSF02W0NIMl1bQ0gyXTY=

>  <s_epik_cmdline>  (298) 
J2VwaWtfcHl0aG9uJywgJy1waHQnLCAnMi4wJywgJy1waCcsICc3LjAnLCAnLXRuJywgJzgnLCAnLW1hJywgJzIwMCcsICctaW1hZScsICc8aW5maWxlLm1hZT4nLCAnLW9tYWUnLCAnPG91dGZpbGUubWFlPic=

>  <r_lp_tautomer_probability>  (298) 
1

>  <r_epik_Ionization_Penalty>  (298) 
0.00962322

>  <r_epik_Ionization_Penalty_Charging>  (298) 
0.00962322

>  <r_epik_Ionization_Penalty_Neutral>  (298) 
0

>  <r_epik_State_Penalty>  (298) 
0.00731768

>  <r_epik_Charging_Adjusted_Penalty>  (298) 
0.0169409

>  <i_epik_Tot_Q>  (298) 
1

>  <i_epik_Tot_abs_Q>  (298) 
1

>  <s_lp_Force_Field>  (298) 
OPLS3e

>  <r_lp_Energy>  (298) 
122.633

>  <b_lp_Chiralities_Consistent>  (298) 
1

>  <s_lp_Variant>  (298) 
73:0-1

>  <s_i_glide_gridfile>  (298) 
pfpi4k_grid

>  <i_i_glide_lignum>  (298) 
35

>  <i_i_glide_rotatable_bonds>  (298) 
3

>  <r_i_docking_score>  (298) 
-2.79747

>  <r_i_glide_ligand_efficiency>  (298) 
-0.127158

>  <r_i_glide_ligand_efficiency_sa>  (298) 
-0.356301

>  <r_i_glide_ligand_efficiency_ln>  (298) 
-0.683804

>  <r_i_glide_gscore>  (298) 
-2.79747

>  <r_i_glide_lipo>  (298) 
-0.334296

>  <r_i_glide_hbond>  (298) 
-0.2

>  <r_i_glide_metal>  (298) 
-0

>  <r_i_glide_rewards>  (298) 
-1.37455

>  <r_i_glide_evdw>  (298) 
-15.2156

>  <r_i_glide_ecoul>  (298) 
-3.02652

>  <r_i_glide_erotb>  (298) 
0.412173

>  <r_i_glide_esite>  (298) 
-0.0860409

>  <r_i_glide_emodel>  (298) 
-22.8245

>  <r_i_glide_energy>  (298) 
-18.2421

>  <r_i_glide_einternal>  (298) 
0.793753

>  <r_i_glide_intrahb_reward>  (298) 
-0

>  <i_i_glide_confnum>  (298) 
2

>  <i_i_glide_posenum>  (298) 
24

>  <r_i_glide_eff_state_penalty>  (298) 
0

>  <ligand_id>  (298) 
73

>  <original_smiles>  (298) 
COc1ccc2c3c1OC1CC4C(C2)N(CC2CC2)CCC314

>  <smiles>  (298) 
[H]c1c([H])c2c3c(c1OC([H])([H])[H])OC1([H])C([H])([H])C4([H])C31C([H])([H])C([H])([H])[N+]([H])(C([H])([H])C1([H])C([H])([H])C1([H])[H])C4([H])C2([H])[H]

$$$$
73:0:2
     RDKit          3D

 46 51  0  0  1  0  0  0  0  0999 V2000
    1.8465   -5.0780    6.9288 C   0  0  0  0  0  0  0  0  0  0  0  0
    2.5056   -4.2672    5.9709 O   0  0  0  0  0  0  0  0  0  0  0  0
    2.6331   -4.7376    4.6830 C   0  0  0  0  0  0  0  0  0  0  0  0
    2.0946   -5.9757    4.2114 C   0  0  0  0  0  0  0  0  0  0  0  0
    2.1015   -6.3031    2.8241 C   0  0  0  0  0  0  0  0  0  0  0  0
    2.7829   -5.4749    1.9092 C   0  0  0  0  0  0  0  0  0  0  0  0
    3.4921   -4.4102    2.5013 C   0  0  0  0  0  0  0  0  0  0  0  0
    3.2913   -3.8970    3.7670 C   0  0  0  0  0  0  0  0  0  0  0  0
    3.5328   -2.5357    3.8529 O   0  0  0  0  0  0  0  0  0  0  0  0
    4.0924   -2.0584    2.5983 C   0  0  2  0  0  0  0  0  0  0  0  0
    3.3175   -1.4189    1.3902 C   0  0  0  0  0  0  0  0  0  0  0  0
    2.8537   -2.8453    1.0120 C   0  0  1  0  0  0  0  0  0  0  0  0
    2.7122   -3.8016   -0.1978 C   0  0  2  0  0  0  0  0  0  0  0  0
    2.4952   -5.2686    0.3881 C   0  0  0  0  0  0  0  0  0  0  0  0
    3.9139   -3.8180   -1.0885 N   0  0  1  0  0  0  0  0  0  0  0  0
    4.1183   -2.5679   -1.8691 C   0  0  0  0  0  0  0  0  0  0  0  0
    3.0706   -2.3790   -2.9452 C   0  0  0  0  0  0  0  0  0  0  0  0
    3.1975   -3.0841   -4.2726 C   0  0  0  0  0  0  0  0  0  0  0  0
    3.4001   -1.5918   -4.1952 C   0  0  0  0  0  0  0  0  0  0  0  0
    5.1358   -4.2996   -0.3853 C   0  0  0  0  0  0  0  0  0  0  0  0
    5.3668   -3.5775    0.9433 C   0  0  0  0  0  0  0  0  0  0  0  0
    4.0799   -3.3060    1.7424 C   0  0  2  0  0  0  0  0  0  0  0  0
    1.8531   -4.5642    7.8895 H   0  0  0  0  0  0  0  0  0  0  0  0
    2.3527   -6.0338    7.0647 H   0  0  0  0  0  0  0  0  0  0  0  0
    0.8050   -5.2503    6.6573 H   0  0  0  0  0  0  0  0  0  0  0  0
    1.5584   -6.6274    4.8774 H   0  0  0  0  0  0  0  0  0  0  0  0
    1.5108   -7.1401    2.4689 H   0  0  0  0  0  0  0  0  0  0  0  0
    5.0987   -1.6617    2.7240 H   0  0  0  0  0  0  0  0  0  0  0  0
    2.5317   -0.7272    1.7040 H   0  0  0  0  0  0  0  0  0  0  0  0
    4.0246   -0.9373    0.7153 H   0  0  0  0  0  0  0  0  0  0  0  0
    1.9338   -2.9047    1.5898 H   0  0  0  0  0  0  0  0  0  0  0  0
    1.8379   -3.5541   -0.8034 H   0  0  0  0  0  0  0  0  0  0  0  0
    3.0207   -6.0362   -0.1801 H   0  0  0  0  0  0  0  0  0  0  0  0
    1.4489   -5.5206    0.2499 H   0  0  0  0  0  0  0  0  0  0  0  0
    4.1032   -1.6897   -1.2364 H   0  0  0  0  0  0  0  0  0  0  0  0
    5.0967   -2.5837   -2.3421 H   0  0  0  0  0  0  0  0  0  0  0  0
    2.0595   -2.2220   -2.5711 H   0  0  0  0  0  0  0  0  0  0  0  0
    4.0690   -3.7229   -4.4025 H   0  0  0  0  0  0  0  0  0  0  0  0
    2.2691   -3.4564   -4.7069 H   0  0  0  0  0  0  0  0  0  0  0  0
    2.6140   -0.9665   -4.6167 H   0  0  0  0  0  0  0  0  0  0  0  0
    4.4113   -1.2049   -4.3067 H   0  0  0  0  0  0  0  0  0  0  0  0
    5.0687   -5.3641   -0.1854 H   0  0  0  0  0  0  0  0  0  0  0  0
    6.0065   -4.1919   -1.0244 H   0  0  0  0  0  0  0  0  0  0  0  0
    6.1186   -4.0829    1.5542 H   0  0  0  0  0  0  0  0  0  0  0  0
    5.8065   -2.6120    0.6833 H   0  0  0  0  0  0  0  0  0  0  0  0
    3.7244   -4.5306   -1.7880 H   0  0  0  0  0  0  0  0  0  0  0  0
  1  2  1  0
  1 23  1  0
  1 24  1  0
  1 25  1  0
  2  3  1  0
  3  8  2  0
  3  4  1  0
  4  5  2  0
  4 26  1  0
  5  6  1  0
  5 27  1  0
  6 14  1  0
  6  7  2  0
  7 22  1  0
  7  8  1  0
  8  9  1  0
  9 10  1  0
 10 22  1  0
 10 11  1  0
 10 28  1  1
 11 12  1  0
 11 29  1  0
 11 30  1  0
 12 22  1  0
 12 13  1  0
 12 31  1  1
 13 14  1  0
 13 15  1  0
 13 32  1  6
 14 33  1  0
 14 34  1  0
 15 16  1  0
 15 20  1  0
 15 46  1  6
 16 17  1  0
 16 35  1  0
 16 36  1  0
 17 19  1  0
 17 18  1  0
 17 37  1  0
 18 19  1  0
 18 38  1  0
 18 39  1  0
 19 40  1  0
 19 41  1  0
 20 21  1  0
 20 42  1  0
 20 43  1  0
 22 21  1  6
 21 44  1  0
 21 45  1  0
M  CHG  1  15   1
M  END
>  <i_m_ct_stereo_status>  (299) 
1

>  <s_m_source_file>  (299) 
/var/tmp/pbs.5076255.sched01/tmpfes5ahby/80lk6pwr5_.sdf

>  <i_m_source_file_index>  (299) 
35

>  <i_lp_mmshare_version>  (299) 
48012

>  <i_f3d_flags>  (299) 
0

>  <s_epik_input>  (299) 
W0NAQF0xMjNjNGM1W2NIXVtjSF1jKE9bQ0gzXSljNE9bQ0BASF0xW0NIMl1bQ0BIXTJbQ0BIXShbQ0gyXTUpTihbQ0gyXVtDSDJdMylbQ0gyXVtDSF02W0NIMl1bQ0gyXTY=

>  <s_epik_cmdline>  (299) 
J2VwaWtfcHl0aG9uJywgJy1waHQnLCAnMi4wJywgJy1waCcsICc3LjAnLCAnLXRuJywgJzgnLCAnLW1hJywgJzIwMCcsICctaW1hZScsICc8aW5maWxlLm1hZT4nLCAnLW9tYWUnLCAnPG91dGZpbGUubWFlPic=

>  <r_lp_tautomer_probability>  (299) 
1

>  <r_epik_Ionization_Penalty>  (299) 
0.00962322

>  <r_epik_Ionization_Penalty_Charging>  (299) 
0.00962322

>  <r_epik_Ionization_Penalty_Neutral>  (299) 
0

>  <r_epik_State_Penalty>  (299) 
0.00731768

>  <r_epik_Charging_Adjusted_Penalty>  (299) 
0.0169409

>  <i_epik_Tot_Q>  (299) 
1

>  <i_epik_Tot_abs_Q>  (299) 
1

>  <s_lp_Force_Field>  (299) 
OPLS3e

>  <r_lp_Energy>  (299) 
122.633

>  <b_lp_Chiralities_Consistent>  (299) 
1

>  <s_lp_Variant>  (299) 
73:0-1

>  <s_i_glide_gridfile>  (299) 
pfpi4k_grid

>  <i_i_glide_lignum>  (299) 
35

>  <i_i_glide_rotatable_bonds>  (299) 
3

>  <r_i_docking_score>  (299) 
-2.66457

>  <r_i_glide_ligand_efficiency>  (299) 
-0.121117

>  <r_i_glide_ligand_efficiency_sa>  (299) 
-0.339374

>  <r_i_glide_ligand_efficiency_ln>  (299) 
-0.651318

>  <r_i_glide_gscore>  (299) 
-2.66457

>  <r_i_glide_lipo>  (299) 
-0.123459

>  <r_i_glide_hbond>  (299) 
0

>  <r_i_glide_metal>  (299) 
-0

>  <r_i_glide_rewards>  (299) 
-1.37455

>  <r_i_glide_evdw>  (299) 
-18.2594

>  <r_i_glide_ecoul>  (299) 
-4.31235

>  <r_i_glide_erotb>  (299) 
0.412173

>  <r_i_glide_esite>  (299) 
-0.0189115

>  <r_i_glide_emodel>  (299) 
-26.7306

>  <r_i_glide_energy>  (299) 
-22.5718

>  <r_i_glide_einternal>  (299) 
1.28243

>  <r_i_glide_intrahb_reward>  (299) 
-0

>  <i_i_glide_confnum>  (299) 
2

>  <i_i_glide_posenum>  (299) 
2

>  <r_i_glide_eff_state_penalty>  (299) 
0

>  <ligand_id>  (299) 
73

>  <original_smiles>  (299) 
COc1ccc2c3c1OC1CC4C(C2)N(CC2CC2)CCC314

>  <smiles>  (299) 
[H]c1c([H])c2c3c(c1OC([H])([H])[H])OC1([H])C([H])([H])C4([H])C31C([H])([H])C([H])([H])[N+]([H])(C([H])([H])C1([H])C([H])([H])C1([H])[H])C4([H])C2([H])[H]

$$$$
73:1:0
     RDKit          3D

 45 50  0  0  1  0  0  0  0  0999 V2000
    9.0057   -2.6390   -0.0669 C   0  0  0  0  0  0  0  0  0  0  0  0
    8.7210   -3.6688    0.8649 O   0  0  0  0  0  0  0  0  0  0  0  0
    7.4784   -4.2649    0.8210 C   0  0  0  0  0  0  0  0  0  0  0  0
    6.4828   -4.0151   -0.1579 C   0  0  0  0  0  0  0  0  0  0  0  0
    5.3121   -4.8304   -0.2676 C   0  0  0  0  0  0  0  0  0  0  0  0
    5.0370   -5.7952    0.7337 C   0  0  0  0  0  0  0  0  0  0  0  0
    5.9494   -5.7901    1.7878 C   0  0  0  0  0  0  0  0  0  0  0  0
    7.2245   -5.2447    1.8170 C   0  0  0  0  0  0  0  0  0  0  0  0
    8.1201   -5.9314    2.6159 O   0  0  0  0  0  0  0  0  0  0  0  0
    7.4036   -6.9645    3.3632 C   0  0  2  0  0  0  0  0  0  0  0  0
    7.2241   -8.4763    2.9784 C   0  0  0  0  0  0  0  0  0  0  0  0
    6.1948   -8.0256    1.9284 C   0  0  1  0  0  0  0  0  0  0  0  0
    4.7851   -8.4034    1.4322 C   0  0  2  0  0  0  0  0  0  0  0  0
    4.2285   -7.1350    0.6180 C   0  0  0  0  0  0  0  0  0  0  0  0
    3.9098   -8.7377    2.5723 N   0  0  0  0  0  0  0  0  0  0  0  0
    2.6798   -9.4211    2.1540 C   0  0  0  0  0  0  0  0  0  0  0  0
    1.9117  -10.0478    3.3282 C   0  0  0  0  0  0  0  0  0  0  0  0
    1.8747  -11.5403    3.5314 C   0  0  0  0  0  0  0  0  0  0  0  0
    0.6330  -10.8092    3.0930 C   0  0  0  0  0  0  0  0  0  0  0  0
    3.6157   -7.5564    3.3994 C   0  0  0  0  0  0  0  0  0  0  0  0
    4.8749   -6.8473    3.8595 C   0  0  0  0  0  0  0  0  0  0  0  0
    6.0007   -6.8302    2.8151 C   0  0  2  0  0  0  0  0  0  0  0  0
   10.0044   -2.2602    0.1356 H   0  0  0  0  0  0  0  0  0  0  0  0
    8.3163   -1.8029    0.0353 H   0  0  0  0  0  0  0  0  0  0  0  0
    8.9880   -3.0108   -1.0902 H   0  0  0  0  0  0  0  0  0  0  0  0
    6.6744   -3.3146   -0.9673 H   0  0  0  0  0  0  0  0  0  0  0  0
    4.7081   -4.7907   -1.1588 H   0  0  0  0  0  0  0  0  0  0  0  0
    7.4427   -6.7972    4.4369 H   0  0  0  0  0  0  0  0  0  0  0  0
    8.1432   -8.9154    2.5957 H   0  0  0  0  0  0  0  0  0  0  0  0
    6.7850   -9.0594    3.7864 H   0  0  0  0  0  0  0  0  0  0  0  0
    6.8470   -7.8385    1.0701 H   0  0  0  0  0  0  0  0  0  0  0  0
    4.8417   -9.2651    0.7665 H   0  0  0  0  0  0  0  0  0  0  0  0
    3.1810   -6.9229    0.8060 H   0  0  0  0  0  0  0  0  0  0  0  0
    4.2726   -7.3845   -0.4312 H   0  0  0  0  0  0  0  0  0  0  0  0
    2.0187   -8.7375    1.6197 H   0  0  0  0  0  0  0  0  0  0  0  0
    2.9254  -10.2189    1.4587 H   0  0  0  0  0  0  0  0  0  0  0  0
    1.8591   -9.4684    4.2429 H   0  0  0  0  0  0  0  0  0  0  0  0
    2.4111  -12.1544    2.8130 H   0  0  0  0  0  0  0  0  0  0  0  0
    1.9286  -11.8792    4.5682 H   0  0  0  0  0  0  0  0  0  0  0  0
   -0.1547  -10.6577    3.8332 H   0  0  0  0  0  0  0  0  0  0  0  0
    0.2895  -10.9130    2.0692 H   0  0  0  0  0  0  0  0  0  0  0  0
    2.9540   -6.8666    2.8887 H   0  0  0  0  0  0  0  0  0  0  0  0
    3.1214   -7.8238    4.3300 H   0  0  0  0  0  0  0  0  0  0  0  0
    4.6571   -5.8568    4.2537 H   0  0  0  0  0  0  0  0  0  0  0  0
    5.2321   -7.4306    4.7087 H   0  0  0  0  0  0  0  0  0  0  0  0
  1  2  1  0
  1 23  1  0
  1 24  1  0
  1 25  1  0
  2  3  1  0
  3  8  2  0
  3  4  1  0
  4  5  2  0
  4 26  1  0
  5  6  1  0
  5 27  1  0
  6 14  1  0
  6  7  2  0
  7 22  1  0
  7  8  1  0
  8  9  1  0
  9 10  1  0
 10 22  1  0
 10 11  1  0
 10 28  1  1
 11 12  1  0
 11 29  1  0
 11 30  1  0
 12 22  1  0
 12 13  1  0
 12 31  1  6
 13 14  1  0
 13 15  1  0
 13 32  1  6
 14 33  1  0
 14 34  1  0
 15 16  1  0
 15 20  1  0
 16 17  1  0
 16 35  1  0
 16 36  1  0
 17 19  1  0
 17 18  1  0
 17 37  1  0
 18 19  1  0
 18 38  1  0
 18 39  1  0
 19 40  1  0
 19 41  1  0
 20 21  1  0
 20 42  1  0
 20 43  1  0
 22 21  1  1
 21 44  1  0
 21 45  1  0
M  END
>  <i_m_ct_stereo_status>  (300) 
1

>  <s_m_source_file>  (300) 
/var/tmp/pbs.5076255.sched01/tmpfes5ahby/80lk6pwr5_.sdf

>  <i_m_source_file_index>  (300) 
36

>  <i_lp_mmshare_version>  (300) 
48012

>  <i_f3d_flags>  (300) 
0

>  <s_epik_input>  (300) 
W0NAQF0xMjNjNGM1W2NIXVtjSF1jKE9bQ0gzXSljNE9bQ0BASF0xW0NIMl1bQ0BIXTJbQ0BIXShbQ0gyXTUpTihbQ0gyXVtDSDJdMylbQ0gyXVtDSF02W0NIMl1bQ0gyXTY=

>  <s_epik_cmdline>  (300) 
J2VwaWtfcHl0aG9uJywgJy1waHQnLCAnMi4wJywgJy1waCcsICc3LjAnLCAnLXRuJywgJzgnLCAnLW1hJywgJzIwMCcsICctaW1hZScsICc8aW5maWxlLm1hZT4nLCAnLW9tYWUnLCAnPG91dGZpbGUubWFlPic=

>  <r_lp_tautomer_probability>  (300) 
1

>  <r_epik_Ionization_Penalty>  (300) 
2.44593

>  <r_epik_Ionization_Penalty_Charging>  (300) 
0

>  <r_epik_Ionization_Penalty_Neutral>  (300) 
2.44593

>  <r_epik_State_Penalty>  (300) 
2.60706

>  <r_epik_Charging_Adjusted_Penalty>  (300) 
2.60706

>  <i_epik_Tot_Q>  (300) 
0

>  <i_epik_Tot_abs_Q>  (300) 
0

>  <s_lp_Force_Field>  (300) 
OPLS3e

>  <r_lp_Energy>  (300) 
123.108

>  <b_lp_Chiralities_Consistent>  (300) 
1

>  <s_lp_Variant>  (300) 
73:0-2

>  <s_i_glide_gridfile>  (300) 
pfpi4k_grid

>  <i_i_glide_lignum>  (300) 
36

>  <i_i_glide_rotatable_bonds>  (300) 
3

>  <r_i_docking_score>  (300) 
-2.99724

>  <r_i_glide_ligand_efficiency>  (300) 
-0.136238

>  <r_i_glide_ligand_efficiency_sa>  (300) 
-0.381745

>  <r_i_glide_ligand_efficiency_ln>  (300) 
-0.732635

>  <r_i_glide_gscore>  (300) 
-2.99724

>  <r_i_glide_lipo>  (300) 
-0.948504

>  <r_i_glide_hbond>  (300) 
0

>  <r_i_glide_metal>  (300) 
-0

>  <r_i_glide_rewards>  (300) 
-1.38142

>  <r_i_glide_evdw>  (300) 
-19.9122

>  <r_i_glide_ecoul>  (300) 
-0.575475

>  <r_i_glide_erotb>  (300) 
0.414619

>  <r_i_glide_esite>  (300) 
0

>  <r_i_glide_emodel>  (300) 
-24.1465

>  <r_i_glide_energy>  (300) 
-20.4877

>  <r_i_glide_einternal>  (300) 
0.209099

>  <r_i_glide_intrahb_reward>  (300) 
-0

>  <i_i_glide_confnum>  (300) 
2

>  <i_i_glide_posenum>  (300) 
34

>  <r_i_glide_eff_state_penalty>  (300) 
0

>  <ligand_id>  (300) 
73

>  <original_smiles>  (300) 
COc1ccc2c3c1OC1CC4C(C2)N(CC2CC2)CCC314

>  <smiles>  (300) 
[H]c1c([H])c2c3c(c1OC([H])([H])[H])OC1([H])C([H])([H])C4([H])C([H])(N(C([H])([H])C5([H])C([H])([H])C5([H])[H])C([H])([H])C([H])([H])C314)C2([H])[H]

$$$$
73:1:1
     RDKit          3D

 45 50  0  0  1  0  0  0  0  0999 V2000
    7.9643   -3.0704   -0.7438 C   0  0  0  0  0  0  0  0  0  0  0  0
    7.9470   -4.2354    0.0652 O   0  0  0  0  0  0  0  0  0  0  0  0
    6.7417   -4.6610    0.5816 C   0  0  0  0  0  0  0  0  0  0  0  0
    5.4992   -3.9777    0.4287 C   0  0  0  0  0  0  0  0  0  0  0  0
    4.2713   -4.5724    0.8410 C   0  0  0  0  0  0  0  0  0  0  0  0
    4.2791   -5.7922    1.5513 C   0  0  0  0  0  0  0  0  0  0  0  0
    5.5621   -6.2670    1.8661 C   0  0  0  0  0  0  0  0  0  0  0  0
    6.7490   -5.8919    1.2711 C   0  0  0  0  0  0  0  0  0  0  0  0
    7.6765   -6.9185    1.2048 O   0  0  0  0  0  0  0  0  0  0  0  0
    7.1834   -8.0760    1.9446 C   0  0  2  0  0  0  0  0  0  0  0  0
    6.3869   -9.3163    1.3800 C   0  0  0  0  0  0  0  0  0  0  0  0
    5.1486   -8.4093    1.2776 C   0  0  1  0  0  0  0  0  0  0  0  0
    3.6495   -8.4179    1.6325 C   0  0  2  0  0  0  0  0  0  0  0  0
    3.1654   -6.8889    1.6283 C   0  0  0  0  0  0  0  0  0  0  0  0
    3.4311   -9.0609    2.9449 N   0  0  0  0  0  0  0  0  0  0  0  0
    2.0235   -9.4047    3.1724 C   0  0  0  0  0  0  0  0  0  0  0  0
    1.8669  -10.3771    4.3324 C   0  0  0  0  0  0  0  0  0  0  0  0
    1.8965  -11.8613    4.0750 C   0  0  0  0  0  0  0  0  0  0  0  0
    0.6084  -11.1947    4.4759 C   0  0  0  0  0  0  0  0  0  0  0  0
    3.9710   -8.2621    4.0505 C   0  0  0  0  0  0  0  0  0  0  0  0
    5.4395   -7.9055    3.8314 C   0  0  0  0  0  0  0  0  0  0  0  0
    5.8092   -7.6148    2.3730 C   0  0  2  0  0  0  0  0  0  0  0  0
    8.9813   -2.8893   -1.0890 H   0  0  0  0  0  0  0  0  0  0  0  0
    7.6485   -2.1951   -0.1788 H   0  0  0  0  0  0  0  0  0  0  0  0
    7.3353   -3.1809   -1.6269 H   0  0  0  0  0  0  0  0  0  0  0  0
    5.4481   -3.0544   -0.1223 H   0  0  0  0  0  0  0  0  0  0  0  0
    3.3382   -4.1315    0.5262 H   0  0  0  0  0  0  0  0  0  0  0  0
    7.8326   -8.3184    2.7880 H   0  0  0  0  0  0  0  0  0  0  0  0
    6.7879   -9.6899    0.4379 H   0  0  0  0  0  0  0  0  0  0  0  0
    6.2811  -10.1150    2.1170 H   0  0  0  0  0  0  0  0  0  0  0  0
    5.2546   -7.9819    0.2783 H   0  0  0  0  0  0  0  0  0  0  0  0
    3.0998   -8.9828    0.8764 H   0  0  0  0  0  0  0  0  0  0  0  0
    2.4846   -6.6534    2.4443 H   0  0  0  0  0  0  0  0  0  0  0  0
    2.5657   -6.7403    0.7338 H   0  0  0  0  0  0  0  0  0  0  0  0
    1.4275   -8.5134    3.3683 H   0  0  0  0  0  0  0  0  0  0  0  0
    1.6044   -9.8739    2.2798 H   0  0  0  0  0  0  0  0  0  0  0  0
    2.2769  -10.0466    5.2860 H   0  0  0  0  0  0  0  0  0  0  0  0
    1.9996  -12.1979    3.0425 H   0  0  0  0  0  0  0  0  0  0  0  0
    2.3837  -12.4868    4.8219 H   0  0  0  0  0  0  0  0  0  0  0  0
    0.2488  -11.3690    5.4878 H   0  0  0  0  0  0  0  0  0  0  0  0
   -0.1648  -11.0592    3.7223 H   0  0  0  0  0  0  0  0  0  0  0  0
    3.3875   -7.3617    4.2143 H   0  0  0  0  0  0  0  0  0  0  0  0
    3.9283   -8.8285    4.9747 H   0  0  0  0  0  0  0  0  0  0  0  0
    5.7592   -7.1082    4.5062 H   0  0  0  0  0  0  0  0  0  0  0  0
    5.9935   -8.7901    4.1467 H   0  0  0  0  0  0  0  0  0  0  0  0
  1  2  1  0
  1 23  1  0
  1 24  1  0
  1 25  1  0
  2  3  1  0
  3  8  2  0
  3  4  1  0
  4  5  2  0
  4 26  1  0
  5  6  1  0
  5 27  1  0
  6 14  1  0
  6  7  2  0
  7 22  1  0
  7  8  1  0
  8  9  1  0
  9 10  1  0
 10 22  1  0
 10 11  1  0
 10 28  1  1
 11 12  1  0
 11 29  1  0
 11 30  1  0
 12 22  1  0
 12 13  1  0
 12 31  1  6
 13 14  1  0
 13 15  1  0
 13 32  1  6
 14 33  1  0
 14 34  1  0
 15 16  1  0
 15 20  1  0
 16 17  1  0
 16 35  1  0
 16 36  1  0
 17 19  1  0
 17 18  1  0
 17 37  1  0
 18 19  1  0
 18 38  1  0
 18 39  1  0
 19 40  1  0
 19 41  1  0
 20 21  1  0
 20 42  1  0
 20 43  1  0
 22 21  1  1
 21 44  1  0
 21 45  1  0
M  END
>  <i_m_ct_stereo_status>  (301) 
1

>  <s_m_source_file>  (301) 
/var/tmp/pbs.5076255.sched01/tmpfes5ahby/80lk6pwr5_.sdf

>  <i_m_source_file_index>  (301) 
36

>  <i_lp_mmshare_version>  (301) 
48012

>  <i_f3d_flags>  (301) 
0

>  <s_epik_input>  (301) 
W0NAQF0xMjNjNGM1W2NIXVtjSF1jKE9bQ0gzXSljNE9bQ0BASF0xW0NIMl1bQ0BIXTJbQ0BIXShbQ0gyXTUpTihbQ0gyXVtDSDJdMylbQ0gyXVtDSF02W0NIMl1bQ0gyXTY=

>  <s_epik_cmdline>  (301) 
J2VwaWtfcHl0aG9uJywgJy1waHQnLCAnMi4wJywgJy1waCcsICc3LjAnLCAnLXRuJywgJzgnLCAnLW1hJywgJzIwMCcsICctaW1hZScsICc8aW5maWxlLm1hZT4nLCAnLW9tYWUnLCAnPG91dGZpbGUubWFlPic=

>  <r_lp_tautomer_probability>  (301) 
1

>  <r_epik_Ionization_Penalty>  (301) 
2.44593

>  <r_epik_Ionization_Penalty_Charging>  (301) 
0

>  <r_epik_Ionization_Penalty_Neutral>  (301) 
2.44593

>  <r_epik_State_Penalty>  (301) 
2.60706

>  <r_epik_Charging_Adjusted_Penalty>  (301) 
2.60706

>  <i_epik_Tot_Q>  (301) 
0

>  <i_epik_Tot_abs_Q>  (301) 
0

>  <s_lp_Force_Field>  (301) 
OPLS3e

>  <r_lp_Energy>  (301) 
123.108

>  <b_lp_Chiralities_Consistent>  (301) 
1

>  <s_lp_Variant>  (301) 
73:0-2

>  <s_i_glide_gridfile>  (301) 
pfpi4k_grid

>  <i_i_glide_lignum>  (301) 
36

>  <i_i_glide_rotatable_bonds>  (301) 
3

>  <r_i_docking_score>  (301) 
-2.74385

>  <r_i_glide_ligand_efficiency>  (301) 
-0.124721

>  <r_i_glide_ligand_efficiency_sa>  (301) 
-0.349472

>  <r_i_glide_ligand_efficiency_ln>  (301) 
-0.670697

>  <r_i_glide_gscore>  (301) 
-2.74385

>  <r_i_glide_lipo>  (301) 
-0.735256

>  <r_i_glide_hbond>  (301) 
0

>  <r_i_glide_metal>  (301) 
-0

>  <r_i_glide_rewards>  (301) 
-1.38142

>  <r_i_glide_evdw>  (301) 
-20.62

>  <r_i_glide_ecoul>  (301) 
-0.0719577

>  <r_i_glide_erotb>  (301) 
0.414619

>  <r_i_glide_esite>  (301) 
0

>  <r_i_glide_emodel>  (301) 
-24.25

>  <r_i_glide_energy>  (301) 
-20.6919

>  <r_i_glide_einternal>  (301) 
0.0935476

>  <r_i_glide_intrahb_reward>  (301) 
-0

>  <i_i_glide_confnum>  (301) 
1

>  <i_i_glide_posenum>  (301) 
10

>  <r_i_glide_eff_state_penalty>  (301) 
0

>  <ligand_id>  (301) 
73

>  <original_smiles>  (301) 
COc1ccc2c3c1OC1CC4C(C2)N(CC2CC2)CCC314

>  <smiles>  (301) 
[H]c1c([H])c2c3c(c1OC([H])([H])[H])OC1([H])C([H])([H])C4([H])C([H])(N(C([H])([H])C5([H])C([H])([H])C5([H])[H])C([H])([H])C([H])([H])C314)C2([H])[H]

$$$$
73:1:2
     RDKit          3D

 45 50  0  0  1  0  0  0  0  0999 V2000
    1.1244  -11.7616    4.3872 C   0  0  0  0  0  0  0  0  0  0  0  0
    2.2169  -11.0316    3.8586 O   0  0  0  0  0  0  0  0  0  0  0  0
    1.9647   -9.8470    3.2073 C   0  0  0  0  0  0  0  0  0  0  0  0
    0.6642   -9.3094    2.9719 C   0  0  0  0  0  0  0  0  0  0  0  0
    0.4933   -7.9829    2.4690 C   0  0  0  0  0  0  0  0  0  0  0  0
    1.6130   -7.2331    2.0409 C   0  0  0  0  0  0  0  0  0  0  0  0
    2.8240   -7.9466    2.0835 C   0  0  0  0  0  0  0  0  0  0  0  0
    3.1035   -9.0984    2.7982 C   0  0  0  0  0  0  0  0  0  0  0  0
    4.3932   -9.1691    3.2592 O   0  0  0  0  0  0  0  0  0  0  0  0
    5.1798   -8.0769    2.7049 C   0  0  2  0  0  0  0  0  0  0  0  0
    5.4779   -6.6757    3.3521 C   0  0  0  0  0  0  0  0  0  0  0  0
    4.0309   -6.2766    3.0258 C   0  0  1  0  0  0  0  0  0  0  0  0
    3.2380   -5.1123    2.4123 C   0  0  2  0  0  0  0  0  0  0  0  0
    1.8107   -5.6845    1.9949 C   0  0  0  0  0  0  0  0  0  0  0  0
    3.9697   -4.5490    1.2500 N   0  0  0  0  0  0  0  0  0  0  0  0
    3.4472   -3.2438    0.8246 C   0  0  0  0  0  0  0  0  0  0  0  0
    4.4426   -2.4940   -0.0482 C   0  0  0  0  0  0  0  0  0  0  0  0
    5.3483   -1.4363    0.5415 C   0  0  0  0  0  0  0  0  0  0  0  0
    4.2235   -1.0372   -0.3802 C   0  0  0  0  0  0  0  0  0  0  0  0
    3.9979   -5.4853    0.1195 C   0  0  0  0  0  0  0  0  0  0  0  0
    4.5421   -6.8540    0.5258 C   0  0  0  0  0  0  0  0  0  0  0  0
    4.1327   -7.3022    1.9190 C   0  0  2  0  0  0  0  0  0  0  0  0
    1.5075  -12.6546    4.8795 H   0  0  0  0  0  0  0  0  0  0  0  0
    0.4415  -12.0864    3.6055 H   0  0  0  0  0  0  0  0  0  0  0  0
    0.5816  -11.1909    5.1387 H   0  0  0  0  0  0  0  0  0  0  0  0
   -0.2100   -9.8409    3.3007 H   0  0  0  0  0  0  0  0  0  0  0  0
   -0.4820   -7.5331    2.5026 H   0  0  0  0  0  0  0  0  0  0  0  0
    5.9864   -8.4432    2.0572 H   0  0  0  0  0  0  0  0  0  0  0  0
    5.7288   -6.7381    4.4105 H   0  0  0  0  0  0  0  0  0  0  0  0
    6.2206   -6.1018    2.7900 H   0  0  0  0  0  0  0  0  0  0  0  0
    3.4990   -6.6294    3.9227 H   0  0  0  0  0  0  0  0  0  0  0  0
    3.1147   -4.3175    3.1532 H   0  0  0  0  0  0  0  0  0  0  0  0
    1.4553   -5.3226    1.0346 H   0  0  0  0  0  0  0  0  0  0  0  0
    1.0856   -5.2926    2.7134 H   0  0  0  0  0  0  0  0  0  0  0  0
    2.5034   -3.3493    0.2932 H   0  0  0  0  0  0  0  0  0  0  0  0
    3.2429   -2.6210    1.7003 H   0  0  0  0  0  0  0  0  0  0  0  0
    4.8570   -3.0617   -0.8839 H   0  0  0  0  0  0  0  0  0  0  0  0
    5.2407   -1.2298    1.6070 H   0  0  0  0  0  0  0  0  0  0  0  0
    6.3631   -1.3888    0.1570 H   0  0  0  0  0  0  0  0  0  0  0  0
    4.4869   -0.7155   -1.3844 H   0  0  0  0  0  0  0  0  0  0  0  0
    3.3423   -0.5631    0.0522 H   0  0  0  0  0  0  0  0  0  0  0  0
    3.0107   -5.6020   -0.3143 H   0  0  0  0  0  0  0  0  0  0  0  0
    4.6401   -5.1248   -0.6737 H   0  0  0  0  0  0  0  0  0  0  0  0
    4.3294   -7.6093   -0.2321 H   0  0  0  0  0  0  0  0  0  0  0  0
    5.6291   -6.7347    0.5133 H   0  0  0  0  0  0  0  0  0  0  0  0
  1  2  1  0
  1 23  1  0
  1 24  1  0
  1 25  1  0
  2  3  1  0
  3  8  2  0
  3  4  1  0
  4  5  2  0
  4 26  1  0
  5  6  1  0
  5 27  1  0
  6 14  1  0
  6  7  2  0
  7 22  1  0
  7  8  1  0
  8  9  1  0
  9 10  1  0
 10 22  1  0
 10 11  1  0
 10 28  1  6
 11 12  1  0
 11 29  1  0
 11 30  1  0
 12 22  1  0
 12 13  1  0
 12 31  1  1
 13 14  1  0
 13 15  1  0
 13 32  1  1
 14 33  1  0
 14 34  1  0
 15 16  1  0
 15 20  1  0
 16 17  1  0
 16 35  1  0
 16 36  1  0
 17 19  1  0
 17 18  1  0
 17 37  1  0
 18 19  1  0
 18 38  1  0
 18 39  1  0
 19 40  1  0
 19 41  1  0
 20 21  1  0
 20 42  1  0
 20 43  1  0
 22 21  1  6
 21 44  1  0
 21 45  1  0
M  END
>  <i_m_ct_stereo_status>  (302) 
1

>  <s_m_source_file>  (302) 
/var/tmp/pbs.5076255.sched01/tmpfes5ahby/80lk6pwr5_.sdf

>  <i_m_source_file_index>  (302) 
36

>  <i_lp_mmshare_version>  (302) 
48012

>  <i_f3d_flags>  (302) 
0

>  <s_epik_input>  (302) 
W0NAQF0xMjNjNGM1W2NIXVtjSF1jKE9bQ0gzXSljNE9bQ0BASF0xW0NIMl1bQ0BIXTJbQ0BIXShbQ0gyXTUpTihbQ0gyXVtDSDJdMylbQ0gyXVtDSF02W0NIMl1bQ0gyXTY=

>  <s_epik_cmdline>  (302) 
J2VwaWtfcHl0aG9uJywgJy1waHQnLCAnMi4wJywgJy1waCcsICc3LjAnLCAnLXRuJywgJzgnLCAnLW1hJywgJzIwMCcsICctaW1hZScsICc8aW5maWxlLm1hZT4nLCAnLW9tYWUnLCAnPG91dGZpbGUubWFlPic=

>  <r_lp_tautomer_probability>  (302) 
1

>  <r_epik_Ionization_Penalty>  (302) 
2.44593

>  <r_epik_Ionization_Penalty_Charging>  (302) 
0

>  <r_epik_Ionization_Penalty_Neutral>  (302) 
2.44593

>  <r_epik_State_Penalty>  (302) 
2.60706

>  <r_epik_Charging_Adjusted_Penalty>  (302) 
2.60706

>  <i_epik_Tot_Q>  (302) 
0

>  <i_epik_Tot_abs_Q>  (302) 
0

>  <s_lp_Force_Field>  (302) 
OPLS3e

>  <r_lp_Energy>  (302) 
123.108

>  <b_lp_Chiralities_Consistent>  (302) 
1

>  <s_lp_Variant>  (302) 
73:0-2

>  <s_i_glide_gridfile>  (302) 
pfpi4k_grid

>  <i_i_glide_lignum>  (302) 
36

>  <i_i_glide_rotatable_bonds>  (302) 
3

>  <r_i_docking_score>  (302) 
-2.29016

>  <r_i_glide_ligand_efficiency>  (302) 
-0.104098

>  <r_i_glide_ligand_efficiency_sa>  (302) 
-0.291687

>  <r_i_glide_ligand_efficiency_ln>  (302) 
-0.559798

>  <r_i_glide_gscore>  (302) 
-2.29016

>  <r_i_glide_lipo>  (302) 
-0.316321

>  <r_i_glide_hbond>  (302) 
0

>  <r_i_glide_metal>  (302) 
-0

>  <r_i_glide_rewards>  (302) 
-1.38142

>  <r_i_glide_evdw>  (302) 
-20.7835

>  <r_i_glide_ecoul>  (302) 
0.214257

>  <r_i_glide_erotb>  (302) 
0.414619

>  <r_i_glide_esite>  (302) 
0

>  <r_i_glide_emodel>  (302) 
-23.4916

>  <r_i_glide_energy>  (302) 
-20.5692

>  <r_i_glide_einternal>  (302) 
0.0307381

>  <r_i_glide_intrahb_reward>  (302) 
-0

>  <i_i_glide_confnum>  (302) 
3

>  <i_i_glide_posenum>  (302) 
28

>  <r_i_glide_eff_state_penalty>  (302) 
0

>  <ligand_id>  (302) 
73

>  <original_smiles>  (302) 
COc1ccc2c3c1OC1CC4C(C2)N(CC2CC2)CCC314

>  <smiles>  (302) 
[H]c1c([H])c2c3c(c1OC([H])([H])[H])OC1([H])C([H])([H])C4([H])C([H])(N(C([H])([H])C5([H])C([H])([H])C5([H])[H])C([H])([H])C([H])([H])C314)C2([H])[H]

$$$$
74:0:0
     RDKit          3D

 15 16  0  0  1  0  0  0  0  0999 V2000
    5.1402   -4.3873    1.3318 C   0  0  0  0  0  0  0  0  0  0  0  0
    4.2139   -4.0432    0.2758 N   0  0  0  0  0  0  0  0  0  0  0  0
    2.8754   -4.1193    0.5155 N   0  0  0  0  0  0  0  0  0  0  0  0
    2.2358   -3.7748   -0.5632 N   0  0  0  0  0  0  0  0  0  0  0  0
    3.1747   -3.4507   -1.5259 C   0  0  0  0  0  0  0  0  0  0  0  0
    3.0937   -3.0236   -2.8704 C   0  0  0  0  0  0  0  0  0  0  0  0
    4.2511   -2.8447   -3.5531 N   0  0  0  0  0  0  0  0  0  0  0  0
    5.4182   -3.0586   -2.9297 C   0  0  0  0  0  0  0  0  0  0  0  0
    5.6519   -3.4331   -1.6710 N   0  0  0  0  0  0  0  0  0  0  0  0
    4.4763   -3.6299   -1.0120 C   0  0  0  0  0  0  0  0  0  0  0  0
    6.1647   -4.2891    0.9777 H   0  0  0  0  0  0  0  0  0  0  0  0
    4.9759   -5.4170    1.6492 H   0  0  0  0  0  0  0  0  0  0  0  0
    4.9928   -3.7215    2.1823 H   0  0  0  0  0  0  0  0  0  0  0  0
    2.1555   -2.8673   -3.3856 H   0  0  0  0  0  0  0  0  0  0  0  0
    6.3037   -2.8975   -3.5199 H   0  0  0  0  0  0  0  0  0  0  0  0
  1  2  1  0
  1 11  1  0
  1 12  1  0
  1 13  1  0
  2 10  1  0
  2  3  1  0
  3  4  2  0
  4  5  1  0
  5 10  2  0
  5  6  1  0
  6  7  2  0
  6 14  1  0
  7  8  1  0
  8  9  2  0
  8 15  1  0
  9 10  1  0
M  END
>  <i_m_ct_stereo_status>  (303) 
1

>  <s_m_source_file>  (303) 
/var/tmp/pbs.5076255.sched01/tmpfes5ahby/80lk6pwr5_.sdf

>  <i_m_source_file_index>  (303) 
37

>  <i_lp_mmshare_version>  (303) 
48012

>  <i_f3d_flags>  (303) 
0

>  <s_epik_input>  (303) 
bjFubihbQ0gzXSljKGMxMiluW2NIXW5bY0hdMg==

>  <s_epik_cmdline>  (303) 
J2VwaWtfcHl0aG9uJywgJy1waHQnLCAnMi4wJywgJy1waCcsICc3LjAnLCAnLXRuJywgJzgnLCAnLW1hJywgJzIwMCcsICctaW1hZScsICc8aW5maWxlLm1hZT4nLCAnLW9tYWUnLCAnPG91dGZpbGUubWFlPic=

>  <r_lp_tautomer_probability>  (303) 
1

>  <r_epik_Ionization_Penalty>  (303) 
1.28168e-10

>  <r_epik_Ionization_Penalty_Charging>  (303) 
0

>  <r_epik_Ionization_Penalty_Neutral>  (303) 
1.28168e-10

>  <r_epik_State_Penalty>  (303) 
-0

>  <r_epik_Charging_Adjusted_Penalty>  (303) 
0

>  <i_epik_Tot_Q>  (303) 
0

>  <i_epik_Tot_abs_Q>  (303) 
0

>  <s_lp_Force_Field>  (303) 
OPLS3e

>  <r_lp_Energy>  (303) 
13.9429

>  <b_lp_Chiralities_Consistent>  (303) 
1

>  <s_lp_Variant>  (303) 
74:0-1

>  <s_i_glide_gridfile>  (303) 
pfpi4k_grid

>  <i_i_glide_lignum>  (303) 
37

>  <i_i_glide_rotatable_bonds>  (303) 
0

>  <r_i_docking_score>  (303) 
-3.87146

>  <r_i_glide_ligand_efficiency>  (303) 
-0.387146

>  <r_i_glide_ligand_efficiency_sa>  (303) 
-0.834081

>  <r_i_glide_ligand_efficiency_ln>  (303) 
-1.17225

>  <r_i_glide_gscore>  (303) 
-3.87146

>  <r_i_glide_lipo>  (303) 
-0.132052

>  <r_i_glide_hbond>  (303) 
0

>  <r_i_glide_metal>  (303) 
-0

>  <r_i_glide_rewards>  (303) 
-2.52164

>  <r_i_glide_evdw>  (303) 
-14.4933

>  <r_i_glide_ecoul>  (303) 
-2.70397

>  <r_i_glide_erotb>  (303) 
0

>  <r_i_glide_esite>  (303) 
-0.0875097

>  <r_i_glide_emodel>  (303) 
-21.773

>  <r_i_glide_energy>  (303) 
-17.1972

>  <r_i_glide_einternal>  (303) 
0

>  <r_i_glide_intrahb_reward>  (303) 
-0

>  <i_i_glide_confnum>  (303) 
2

>  <i_i_glide_posenum>  (303) 
3

>  <r_i_glide_eff_state_penalty>  (303) 
0

>  <ligand_id>  (303) 
74

>  <original_smiles>  (303) 
Cn1nnc2cncnc21

>  <smiles>  (303) 
[H]c1nc([H])c2nnn(C([H])([H])[H])c2n1

$$$$
74:0:1
     RDKit          3D

 15 16  0  0  1  0  0  0  0  0999 V2000
   -0.0261   -1.2370    4.1237 C   0  0  0  0  0  0  0  0  0  0  0  0
   -0.7490   -0.1692    4.7804 N   0  0  0  0  0  0  0  0  0  0  0  0
   -1.1419   -0.3332    6.0749 N   0  0  0  0  0  0  0  0  0  0  0  0
   -1.7638    0.7433    6.4678 N   0  0  0  0  0  0  0  0  0  0  0  0
   -1.7731    1.6339    5.4055 C   0  0  0  0  0  0  0  0  0  0  0  0
   -2.2846    2.9387    5.2187 C   0  0  0  0  0  0  0  0  0  0  0  0
   -2.1328    3.5248    4.0053 N   0  0  0  0  0  0  0  0  0  0  0  0
   -1.4949    2.8555    3.0280 C   0  0  0  0  0  0  0  0  0  0  0  0
   -0.9597    1.6298    3.0663 N   0  0  0  0  0  0  0  0  0  0  0  0
   -1.1302    1.0632    4.2895 C   0  0  0  0  0  0  0  0  0  0  0  0
    0.2152   -0.9533    3.0989 H   0  0  0  0  0  0  0  0  0  0  0  0
   -0.6342   -2.1426    4.1128 H   0  0  0  0  0  0  0  0  0  0  0  0
    0.9035   -1.4391    4.6579 H   0  0  0  0  0  0  0  0  0  0  0  0
   -2.8133    3.4789    5.9941 H   0  0  0  0  0  0  0  0  0  0  0  0
   -1.4029    3.3715    2.0862 H   0  0  0  0  0  0  0  0  0  0  0  0
  1  2  1  0
  1 11  1  0
  1 12  1  0
  1 13  1  0
  2 10  1  0
  2  3  1  0
  3  4  2  0
  4  5  1  0
  5 10  2  0
  5  6  1  0
  6  7  2  0
  6 14  1  0
  7  8  1  0
  8  9  2  0
  8 15  1  0
  9 10  1  0
M  END
>  <i_m_ct_stereo_status>  (304) 
1

>  <s_m_source_file>  (304) 
/var/tmp/pbs.5076255.sched01/tmpfes5ahby/80lk6pwr5_.sdf

>  <i_m_source_file_index>  (304) 
37

>  <i_lp_mmshare_version>  (304) 
48012

>  <i_f3d_flags>  (304) 
0

>  <s_epik_input>  (304) 
bjFubihbQ0gzXSljKGMxMiluW2NIXW5bY0hdMg==

>  <s_epik_cmdline>  (304) 
J2VwaWtfcHl0aG9uJywgJy1waHQnLCAnMi4wJywgJy1waCcsICc3LjAnLCAnLXRuJywgJzgnLCAnLW1hJywgJzIwMCcsICctaW1hZScsICc8aW5maWxlLm1hZT4nLCAnLW9tYWUnLCAnPG91dGZpbGUubWFlPic=

>  <r_lp_tautomer_probability>  (304) 
1

>  <r_epik_Ionization_Penalty>  (304) 
1.28168e-10

>  <r_epik_Ionization_Penalty_Charging>  (304) 
0

>  <r_epik_Ionization_Penalty_Neutral>  (304) 
1.28168e-10

>  <r_epik_State_Penalty>  (304) 
-0

>  <r_epik_Charging_Adjusted_Penalty>  (304) 
0

>  <i_epik_Tot_Q>  (304) 
0

>  <i_epik_Tot_abs_Q>  (304) 
0

>  <s_lp_Force_Field>  (304) 
OPLS3e

>  <r_lp_Energy>  (304) 
13.9429

>  <b_lp_Chiralities_Consistent>  (304) 
1

>  <s_lp_Variant>  (304) 
74:0-1

>  <s_i_glide_gridfile>  (304) 
pfpi4k_grid

>  <i_i_glide_lignum>  (304) 
37

>  <i_i_glide_rotatable_bonds>  (304) 
0

>  <r_i_docking_score>  (304) 
-3.81028

>  <r_i_glide_ligand_efficiency>  (304) 
-0.381028

>  <r_i_glide_ligand_efficiency_sa>  (304) 
-0.8209

>  <r_i_glide_ligand_efficiency_ln>  (304) 
-1.15373

>  <r_i_glide_gscore>  (304) 
-3.81028

>  <r_i_glide_lipo>  (304) 
0

>  <r_i_glide_hbond>  (304) 
0

>  <r_i_glide_metal>  (304) 
-0

>  <r_i_glide_rewards>  (304) 
-2.25

>  <r_i_glide_evdw>  (304) 
-13.1724

>  <r_i_glide_ecoul>  (304) 
-4.18865

>  <r_i_glide_erotb>  (304) 
0

>  <r_i_glide_esite>  (304) 
-0.273364

>  <r_i_glide_emodel>  (304) 
-21.8675

>  <r_i_glide_energy>  (304) 
-17.361

>  <r_i_glide_einternal>  (304) 
0

>  <r_i_glide_intrahb_reward>  (304) 
-0

>  <i_i_glide_confnum>  (304) 
1

>  <i_i_glide_posenum>  (304) 
23

>  <r_i_glide_eff_state_penalty>  (304) 
0

>  <ligand_id>  (304) 
74

>  <original_smiles>  (304) 
Cn1nnc2cncnc21

>  <smiles>  (304) 
[H]c1nc([H])c2nnn(C([H])([H])[H])c2n1

$$$$
74:0:2
     RDKit          3D

 15 16  0  0  1  0  0  0  0  0999 V2000
    2.4959   -2.9212   -3.8944 C   0  0  0  0  0  0  0  0  0  0  0  0
    2.9866   -3.1466   -2.5539 N   0  0  0  0  0  0  0  0  0  0  0  0
    2.1075   -3.4556   -1.5583 N   0  0  0  0  0  0  0  0  0  0  0  0
    2.7653   -3.6496   -0.4516 N   0  0  0  0  0  0  0  0  0  0  0  0
    4.1085   -3.4808   -0.7365 C   0  0  0  0  0  0  0  0  0  0  0  0
    5.2867   -3.5591    0.0380 C   0  0  0  0  0  0  0  0  0  0  0  0
    6.4719   -3.3254   -0.5788 N   0  0  0  0  0  0  0  0  0  0  0  0
    6.4949   -3.0576   -1.8932 C   0  0  0  0  0  0  0  0  0  0  0  0
    5.4676   -2.9367   -2.7397 N   0  0  0  0  0  0  0  0  0  0  0  0
    4.2843   -3.1598   -2.0960 C   0  0  0  0  0  0  0  0  0  0  0  0
    3.3258   -2.7178   -4.5652 H   0  0  0  0  0  0  0  0  0  0  0  0
    1.8195   -2.0728   -3.9013 H   0  0  0  0  0  0  0  0  0  0  0  0
    1.9639   -3.7999   -4.2522 H   0  0  0  0  0  0  0  0  0  0  0  0
    5.2902   -3.7878    1.0938 H   0  0  0  0  0  0  0  0  0  0  0  0
    7.4788   -2.8906   -2.3137 H   0  0  0  0  0  0  0  0  0  0  0  0
  1  2  1  0
  1 11  1  0
  1 12  1  0
  1 13  1  0
  2 10  1  0
  2  3  1  0
  3  4  2  0
  4  5  1  0
  5 10  2  0
  5  6  1  0
  6  7  2  0
  6 14  1  0
  7  8  1  0
  8  9  2  0
  8 15  1  0
  9 10  1  0
M  END
>  <i_m_ct_stereo_status>  (305) 
1

>  <s_m_source_file>  (305) 
/var/tmp/pbs.5076255.sched01/tmpfes5ahby/80lk6pwr5_.sdf

>  <i_m_source_file_index>  (305) 
37

>  <i_lp_mmshare_version>  (305) 
48012

>  <i_f3d_flags>  (305) 
0

>  <s_epik_input>  (305) 
bjFubihbQ0gzXSljKGMxMiluW2NIXW5bY0hdMg==

>  <s_epik_cmdline>  (305) 
J2VwaWtfcHl0aG9uJywgJy1waHQnLCAnMi4wJywgJy1waCcsICc3LjAnLCAnLXRuJywgJzgnLCAnLW1hJywgJzIwMCcsICctaW1hZScsICc8aW5maWxlLm1hZT4nLCAnLW9tYWUnLCAnPG91dGZpbGUubWFlPic=

>  <r_lp_tautomer_probability>  (305) 
1

>  <r_epik_Ionization_Penalty>  (305) 
1.28168e-10

>  <r_epik_Ionization_Penalty_Charging>  (305) 
0

>  <r_epik_Ionization_Penalty_Neutral>  (305) 
1.28168e-10

>  <r_epik_State_Penalty>  (305) 
-0

>  <r_epik_Charging_Adjusted_Penalty>  (305) 
0

>  <i_epik_Tot_Q>  (305) 
0

>  <i_epik_Tot_abs_Q>  (305) 
0

>  <s_lp_Force_Field>  (305) 
OPLS3e

>  <r_lp_Energy>  (305) 
13.9429

>  <b_lp_Chiralities_Consistent>  (305) 
1

>  <s_lp_Variant>  (305) 
74:0-1

>  <s_i_glide_gridfile>  (305) 
pfpi4k_grid

>  <i_i_glide_lignum>  (305) 
37

>  <i_i_glide_rotatable_bonds>  (305) 
0

>  <r_i_docking_score>  (305) 
-3.56324

>  <r_i_glide_ligand_efficiency>  (305) 
-0.356324

>  <r_i_glide_ligand_efficiency_sa>  (305) 
-0.767677

>  <r_i_glide_ligand_efficiency_ln>  (305) 
-1.07893

>  <r_i_glide_gscore>  (305) 
-3.56324

>  <r_i_glide_lipo>  (305) 
-0.219107

>  <r_i_glide_hbond>  (305) 
0

>  <r_i_glide_metal>  (305) 
-0

>  <r_i_glide_rewards>  (305) 
-2.31838

>  <r_i_glide_evdw>  (305) 
-17.1296

>  <r_i_glide_ecoul>  (305) 
-0.704685

>  <r_i_glide_erotb>  (305) 
0

>  <r_i_glide_esite>  (305) 
-0.0635733

>  <r_i_glide_emodel>  (305) 
-22.0458

>  <r_i_glide_energy>  (305) 
-17.8343

>  <r_i_glide_einternal>  (305) 
0

>  <r_i_glide_intrahb_reward>  (305) 
-0

>  <i_i_glide_confnum>  (305) 
2

>  <i_i_glide_posenum>  (305) 
2

>  <r_i_glide_eff_state_penalty>  (305) 
0

>  <ligand_id>  (305) 
74

>  <original_smiles>  (305) 
Cn1nnc2cncnc21

>  <smiles>  (305) 
[H]c1nc([H])c2nnn(C([H])([H])[H])c2n1

$$$$
75:0:0
     RDKit          3D

 47 51  0  0  1  0  0  0  0  0999 V2000
    2.5104   -3.4593   -0.7385 C   0  0  0  0  0  0  0  0  0  0  0  0
    3.2145   -3.0778    0.3413 C   0  0  0  0  0  0  0  0  0  0  0  0
    4.1099   -4.0326    0.9582 C   0  0  0  0  0  0  0  0  0  0  0  0
    3.8635   -5.2348    1.0606 O   0  0  0  0  0  0  0  0  0  0  0  0
    5.3980   -3.4273    1.5003 C   0  0  1  0  0  0  0  0  0  0  0  0
    6.4282   -4.5749    1.6991 C   0  0  0  0  0  0  0  0  0  0  0  0
    6.0126   -2.3745    0.3886 C   0  0  1  0  0  0  0  0  0  0  0  0
    6.1692   -2.9108   -1.0538 C   0  0  0  0  0  0  0  0  0  0  0  0
    5.3786   -0.8946    0.4070 C   0  0  0  0  0  0  0  0  0  0  0  0
    4.4226   -0.9314    1.6026 C   0  0  2  0  0  0  0  0  0  0  0  0
    5.4571   -1.3725    2.7175 C   0  0  0  0  0  0  0  0  0  0  0  0
    5.0997   -2.7758    2.9484 C   0  0  1  0  0  0  0  0  0  0  0  0
    3.7275   -2.4244    3.7128 C   0  0  2  0  0  0  0  0  0  0  0  0
    2.7294   -3.4390    4.2320 C   0  0  1  0  0  0  0  0  0  0  0  0
    3.2829   -4.4026    5.2932 C   0  0  0  0  0  0  0  0  0  0  0  0
    1.6314   -2.4639    4.7613 C   0  0  0  0  0  0  0  0  0  0  0  0
    1.9010   -1.1289    4.2615 O   0  0  0  0  0  0  0  0  0  0  0  0
    2.8082   -1.2496    3.1747 C   0  0  2  0  0  0  0  0  0  0  0  0
    2.0117   -1.6681    1.9731 C   0  0  0  0  0  0  0  0  0  0  0  0
    3.1393   -1.6944    0.9725 C   0  0  2  0  0  0  0  0  0  0  0  0
    3.5722   -0.0115    2.5123 C   0  0  0  0  0  0  0  0  0  0  0  0
    1.8420   -2.7829   -1.2463 H   0  0  0  0  0  0  0  0  0  0  0  0
    2.5922   -4.4591   -1.1283 H   0  0  0  0  0  0  0  0  0  0  0  0
    7.4034   -4.1939    2.0035 H   0  0  0  0  0  0  0  0  0  0  0  0
    6.5783   -5.1566    0.7900 H   0  0  0  0  0  0  0  0  0  0  0  0
    6.1015   -5.2702    2.4761 H   0  0  0  0  0  0  0  0  0  0  0  0
    7.0543   -2.2370    0.6864 H   0  0  0  0  0  0  0  0  0  0  0  0
    5.2124   -3.0627   -1.5542 H   0  0  0  0  0  0  0  0  0  0  0  0
    6.7098   -3.8558   -1.0735 H   0  0  0  0  0  0  0  0  0  0  0  0
    6.7386   -2.2080   -1.6638 H   0  0  0  0  0  0  0  0  0  0  0  0
    6.1521   -0.1342    0.5275 H   0  0  0  0  0  0  0  0  0  0  0  0
    4.8658   -0.6635   -0.5287 H   0  0  0  0  0  0  0  0  0  0  0  0
    6.5110   -1.2438    2.4728 H   0  0  0  0  0  0  0  0  0  0  0  0
    5.4734   -0.7989    3.6456 H   0  0  0  0  0  0  0  0  0  0  0  0
    5.7816   -3.2031    3.6829 H   0  0  0  0  0  0  0  0  0  0  0  0
    4.1051   -2.0210    4.6559 H   0  0  0  0  0  0  0  0  0  0  0  0
    2.3442   -4.0348    3.4040 H   0  0  0  0  0  0  0  0  0  0  0  0
    3.6771   -3.8749    6.1625 H   0  0  0  0  0  0  0  0  0  0  0  0
    4.0857   -5.0170    4.8828 H   0  0  0  0  0  0  0  0  0  0  0  0
    2.5031   -5.0792    5.6423 H   0  0  0  0  0  0  0  0  0  0  0  0
    0.6445   -2.7944    4.4313 H   0  0  0  0  0  0  0  0  0  0  0  0
    1.6157   -2.4294    5.8523 H   0  0  0  0  0  0  0  0  0  0  0  0
    1.4610   -2.6021    2.0640 H   0  0  0  0  0  0  0  0  0  0  0  0
    1.2795   -0.9001    1.7150 H   0  0  0  0  0  0  0  0  0  0  0  0
    2.7960   -1.0533    0.1600 H   0  0  0  0  0  0  0  0  0  0  0  0
    4.0997    0.6291    3.2201 H   0  0  0  0  0  0  0  0  0  0  0  0
    2.9121    0.6512    1.9507 H   0  0  0  0  0  0  0  0  0  0  0  0
  1  2  2  0
  1 22  1  0
  1 23  1  0
  2 20  1  0
  2  3  1  0
  3  4  2  0
  3  5  1  0
  5 12  1  0
  5  6  1  1
  5  7  1  0
  6 24  1  0
  6 25  1  0
  6 26  1  0
  7  8  1  0
  7  9  1  0
  7 27  1  1
  8 28  1  0
  8 29  1  0
  8 30  1  0
 10  9  1  6
  9 31  1  0
  9 32  1  0
 10 20  1  0
 10 21  1  0
 10 11  1  0
 11 12  1  0
 11 33  1  0
 11 34  1  0
 12 13  1  0
 12 35  1  1
 13 18  1  0
 13 14  1  0
 13 36  1  1
 14 15  1  0
 14 16  1  0
 14 37  1  6
 15 38  1  0
 15 39  1  0
 15 40  1  0
 16 17  1  0
 16 41  1  0
 16 42  1  0
 18 17  1  1
 18 19  1  0
 18 21  1  0
 19 20  1  0
 19 43  1  0
 19 44  1  0
 20 45  1  6
 21 46  1  0
 21 47  1  0
M  END
>  <i_m_ct_stereo_status>  (306) 
1

>  <s_m_source_file>  (306) 
/var/tmp/pbs.5076255.sched01/tmpfes5ahby/80lk6pwr5_.sdf

>  <i_m_source_file_index>  (306) 
38

>  <i_lp_mmshare_version>  (306) 
48012

>  <i_f3d_flags>  (306) 
0

>  <s_epik_input>  (306) 
W0NAQF0xMjNbQ0BIXTRDKD1bQ0gyXSlDKD1PKVtDQEBdKFtDSDNdKShbQ0BASF0oW0NIM10pW0NIMl0xKVtDQEBIXShbQ0gyXTIpW0NASF01W0NAXShbQ0gyXTQpKFtDSDJdMylPW0NIMl1bQ0BASF01W0NIM10=

>  <s_epik_cmdline>  (306) 
J2VwaWtfcHl0aG9uJywgJy1waHQnLCAnMi4wJywgJy1waCcsICc3LjAnLCAnLXRuJywgJzgnLCAnLW1hJywgJzIwMCcsICctaW1hZScsICc8aW5maWxlLm1hZT4nLCAnLW9tYWUnLCAnPG91dGZpbGUubWFlPic=

>  <r_lp_tautomer_probability>  (306) 
1

>  <r_epik_Ionization_Penalty>  (306) 
4.34217e-11

>  <r_epik_Ionization_Penalty_Charging>  (306) 
0

>  <r_epik_Ionization_Penalty_Neutral>  (306) 
4.34217e-11

>  <r_epik_State_Penalty>  (306) 
-0

>  <r_epik_Charging_Adjusted_Penalty>  (306) 
0

>  <i_epik_Tot_Q>  (306) 
0

>  <i_epik_Tot_abs_Q>  (306) 
0

>  <s_lp_Force_Field>  (306) 
OPLS3e

>  <r_lp_Energy>  (306) 
176.851

>  <b_lp_Chiralities_Consistent>  (306) 
1

>  <s_lp_Variant>  (306) 
75:0-1

>  <s_i_glide_gridfile>  (306) 
pfpi4k_grid

>  <i_i_glide_lignum>  (306) 
38

>  <i_i_glide_rotatable_bonds>  (306) 
0

>  <r_i_docking_score>  (306) 
-3.17703

>  <r_i_glide_ligand_efficiency>  (306) 
-0.151287

>  <r_i_glide_ligand_efficiency_sa>  (306) 
-0.41739

>  <r_i_glide_ligand_efficiency_ln>  (306) 
-0.785515

>  <r_i_glide_gscore>  (306) 
-3.17703

>  <r_i_glide_lipo>  (306) 
-0.552141

>  <r_i_glide_hbond>  (306) 
0

>  <r_i_glide_metal>  (306) 
-0

>  <r_i_glide_rewards>  (306) 
-1.48241

>  <r_i_glide_evdw>  (306) 
-18.6481

>  <r_i_glide_ecoul>  (306) 
-1.4005

>  <r_i_glide_erotb>  (306) 
0

>  <r_i_glide_esite>  (306) 
0

>  <r_i_glide_emodel>  (306) 
-24.4048

>  <r_i_glide_energy>  (306) 
-20.0486

>  <r_i_glide_einternal>  (306) 
0

>  <r_i_glide_intrahb_reward>  (306) 
-0

>  <i_i_glide_confnum>  (306) 
1

>  <i_i_glide_posenum>  (306) 
28

>  <r_i_glide_eff_state_penalty>  (306) 
0

>  <ligand_id>  (306) 
75

>  <original_smiles>  (306) 
C=C1C(=O)C2(C)C(C)CC34CC2C2C(C)COC2(CC13)C4

>  <smiles>  (306) 
[H]C([H])=C1C(=O)C2(C([H])([H])[H])C([H])(C([H])([H])[H])C([H])([H])C34C([H])([H])C2([H])C2([H])C([H])(C([H])([H])[H])C([H])([H])OC2(C([H])([H])C13[H])C4([H])[H]

$$$$
75:0:1
     RDKit          3D

 47 51  0  0  1  0  0  0  0  0999 V2000
    7.6619   -2.8307   -0.2153 C   0  0  0  0  0  0  0  0  0  0  0  0
    6.4078   -2.9650    0.2545 C   0  0  0  0  0  0  0  0  0  0  0  0
    5.7666   -1.8404    0.9177 C   0  0  0  0  0  0  0  0  0  0  0  0
    6.3564   -1.0559    1.6585 O   0  0  0  0  0  0  0  0  0  0  0  0
    4.2741   -1.7114    0.6578 C   0  0  1  0  0  0  0  0  0  0  0  0
    3.8216   -0.2719    1.0248 C   0  0  0  0  0  0  0  0  0  0  0  0
    3.9955   -1.9431   -0.9475 C   0  0  1  0  0  0  0  0  0  0  0  0
    4.8404   -1.1084   -1.9305 C   0  0  0  0  0  0  0  0  0  0  0  0
    3.8878   -3.4713   -1.4218 C   0  0  0  0  0  0  0  0  0  0  0  0
    3.9944   -4.2599   -0.1109 C   0  0  2  0  0  0  0  0  0  0  0  0
    2.7945   -3.5764    0.6658 C   0  0  0  0  0  0  0  0  0  0  0  0
    3.4830   -2.7237    1.6355 C   0  0  1  0  0  0  0  0  0  0  0  0
    3.9834   -3.9516    2.5443 C   0  0  2  0  0  0  0  0  0  0  0  0
    4.8553   -3.8314    3.7768 C   0  0  1  0  0  0  0  0  0  0  0  0
    4.2514   -2.9960    4.9164 C   0  0  0  0  0  0  0  0  0  0  0  0
    5.0271   -5.3451    4.1134 C   0  0  0  0  0  0  0  0  0  0  0  0
    4.5686   -6.1340    2.9857 O   0  0  0  0  0  0  0  0  0  0  0  0
    4.5103   -5.2801    1.8542 C   0  0  2  0  0  0  0  0  0  0  0  0
    5.9116   -5.1275    1.3292 C   0  0  0  0  0  0  0  0  0  0  0  0
    5.5926   -4.2421    0.1501 C   0  0  2  0  0  0  0  0  0  0  0  0
    3.7988   -5.6760    0.4794 C   0  0  0  0  0  0  0  0  0  0  0  0
    8.1679   -3.6417   -0.7148 H   0  0  0  0  0  0  0  0  0  0  0  0
    8.2054   -1.9072   -0.1070 H   0  0  0  0  0  0  0  0  0  0  0  0
    2.7708   -0.1099    0.7754 H   0  0  0  0  0  0  0  0  0  0  0  0
    4.4055    0.4855    0.4985 H   0  0  0  0  0  0  0  0  0  0  0  0
    3.9352   -0.0764    2.0930 H   0  0  0  0  0  0  0  0  0  0  0  0
    3.0072   -1.5207   -1.1193 H   0  0  0  0  0  0  0  0  0  0  0  0
    5.8843   -1.4168   -1.9516 H   0  0  0  0  0  0  0  0  0  0  0  0
    4.7914   -0.0498   -1.6871 H   0  0  0  0  0  0  0  0  0  0  0  0
    4.4478   -1.2123   -2.9435 H   0  0  0  0  0  0  0  0  0  0  0  0
    2.9412   -3.6612   -1.9300 H   0  0  0  0  0  0  0  0  0  0  0  0
    4.6754   -3.7340   -2.1306 H   0  0  0  0  0  0  0  0  0  0  0  0
    2.0807   -3.0213    0.0583 H   0  0  0  0  0  0  0  0  0  0  0  0
    2.0739   -4.2364    1.1533 H   0  0  0  0  0  0  0  0  0  0  0  0
    2.7427   -2.1678    2.2092 H   0  0  0  0  0  0  0  0  0  0  0  0
    3.0443   -4.2758    3.0042 H   0  0  0  0  0  0  0  0  0  0  0  0
    5.8146   -3.3886    3.5069 H   0  0  0  0  0  0  0  0  0  0  0  0
    3.2913   -3.3904    5.2496 H   0  0  0  0  0  0  0  0  0  0  0  0
    4.0981   -1.9628    4.6028 H   0  0  0  0  0  0  0  0  0  0  0  0
    4.9199   -2.9801    5.7768 H   0  0  0  0  0  0  0  0  0  0  0  0
    6.0750   -5.5668    4.3244 H   0  0  0  0  0  0  0  0  0  0  0  0
    4.4520   -5.6311    4.9963 H   0  0  0  0  0  0  0  0  0  0  0  0
    6.6454   -4.7152    2.0227 H   0  0  0  0  0  0  0  0  0  0  0  0
    6.2983   -6.0957    1.0049 H   0  0  0  0  0  0  0  0  0  0  0  0
    6.0297   -4.7600   -0.7048 H   0  0  0  0  0  0  0  0  0  0  0  0
    2.7776   -6.0469    0.5826 H   0  0  0  0  0  0  0  0  0  0  0  0
    4.3343   -6.4479   -0.0756 H   0  0  0  0  0  0  0  0  0  0  0  0
  1  2  2  0
  1 22  1  0
  1 23  1  0
  2 20  1  0
  2  3  1  0
  3  4  2  0
  3  5  1  0
  5 12  1  0
  5  6  1  1
  5  7  1  0
  6 24  1  0
  6 25  1  0
  6 26  1  0
  7  8  1  0
  7  9  1  0
  7 27  1  1
  8 28  1  0
  8 29  1  0
  8 30  1  0
 10  9  1  6
  9 31  1  0
  9 32  1  0
 10 20  1  0
 10 21  1  0
 10 11  1  0
 11 12  1  0
 11 33  1  0
 11 34  1  0
 12 13  1  0
 12 35  1  1
 13 18  1  0
 13 14  1  0
 13 36  1  1
 14 15  1  0
 14 16  1  0
 14 37  1  6
 15 38  1  0
 15 39  1  0
 15 40  1  0
 16 17  1  0
 16 41  1  0
 16 42  1  0
 18 17  1  1
 18 19  1  0
 18 21  1  0
 19 20  1  0
 19 43  1  0
 19 44  1  0
 20 45  1  6
 21 46  1  0
 21 47  1  0
M  END
>  <i_m_ct_stereo_status>  (307) 
1

>  <s_m_source_file>  (307) 
/var/tmp/pbs.5076255.sched01/tmpfes5ahby/80lk6pwr5_.sdf

>  <i_m_source_file_index>  (307) 
38

>  <i_lp_mmshare_version>  (307) 
48012

>  <i_f3d_flags>  (307) 
0

>  <s_epik_input>  (307) 
W0NAQF0xMjNbQ0BIXTRDKD1bQ0gyXSlDKD1PKVtDQEBdKFtDSDNdKShbQ0BASF0oW0NIM10pW0NIMl0xKVtDQEBIXShbQ0gyXTIpW0NASF01W0NAXShbQ0gyXTQpKFtDSDJdMylPW0NIMl1bQ0BASF01W0NIM10=

>  <s_epik_cmdline>  (307) 
J2VwaWtfcHl0aG9uJywgJy1waHQnLCAnMi4wJywgJy1waCcsICc3LjAnLCAnLXRuJywgJzgnLCAnLW1hJywgJzIwMCcsICctaW1hZScsICc8aW5maWxlLm1hZT4nLCAnLW9tYWUnLCAnPG91dGZpbGUubWFlPic=

>  <r_lp_tautomer_probability>  (307) 
1

>  <r_epik_Ionization_Penalty>  (307) 
4.34217e-11

>  <r_epik_Ionization_Penalty_Charging>  (307) 
0

>  <r_epik_Ionization_Penalty_Neutral>  (307) 
4.34217e-11

>  <r_epik_State_Penalty>  (307) 
-0

>  <r_epik_Charging_Adjusted_Penalty>  (307) 
0

>  <i_epik_Tot_Q>  (307) 
0

>  <i_epik_Tot_abs_Q>  (307) 
0

>  <s_lp_Force_Field>  (307) 
OPLS3e

>  <r_lp_Energy>  (307) 
176.851

>  <b_lp_Chiralities_Consistent>  (307) 
1

>  <s_lp_Variant>  (307) 
75:0-1

>  <s_i_glide_gridfile>  (307) 
pfpi4k_grid

>  <i_i_glide_lignum>  (307) 
38

>  <i_i_glide_rotatable_bonds>  (307) 
0

>  <r_i_docking_score>  (307) 
-3.13476

>  <r_i_glide_ligand_efficiency>  (307) 
-0.149274

>  <r_i_glide_ligand_efficiency_sa>  (307) 
-0.411836

>  <r_i_glide_ligand_efficiency_ln>  (307) 
-0.775063

>  <r_i_glide_gscore>  (307) 
-3.13476

>  <r_i_glide_lipo>  (307) 
-0.399547

>  <r_i_glide_hbond>  (307) 
0

>  <r_i_glide_metal>  (307) 
-0

>  <r_i_glide_rewards>  (307) 
-1.60037

>  <r_i_glide_evdw>  (307) 
-23.4262

>  <r_i_glide_ecoul>  (307) 
0.243148

>  <r_i_glide_erotb>  (307) 
0

>  <r_i_glide_esite>  (307) 
0

>  <r_i_glide_emodel>  (307) 
-27.4922

>  <r_i_glide_energy>  (307) 
-23.183

>  <r_i_glide_einternal>  (307) 
0

>  <r_i_glide_intrahb_reward>  (307) 
-0

>  <i_i_glide_confnum>  (307) 
2

>  <i_i_glide_posenum>  (307) 
31

>  <r_i_glide_eff_state_penalty>  (307) 
0

>  <ligand_id>  (307) 
75

>  <original_smiles>  (307) 
C=C1C(=O)C2(C)C(C)CC34CC2C2C(C)COC2(CC13)C4

>  <smiles>  (307) 
[H]C([H])=C1C(=O)C2(C([H])([H])[H])C([H])(C([H])([H])[H])C([H])([H])C34C([H])([H])C2([H])C2([H])C([H])(C([H])([H])[H])C([H])([H])OC2(C([H])([H])C13[H])C4([H])[H]

$$$$
75:0:2
     RDKit          3D

 47 51  0  0  1  0  0  0  0  0999 V2000
    7.2492   -4.6120    0.9368 C   0  0  0  0  0  0  0  0  0  0  0  0
    6.1127   -3.9252    1.1503 C   0  0  0  0  0  0  0  0  0  0  0  0
    6.0393   -2.5302    0.7493 C   0  0  0  0  0  0  0  0  0  0  0  0
    6.9885   -1.7441    0.8118 O   0  0  0  0  0  0  0  0  0  0  0  0
    4.6786   -2.0940    0.2263 C   0  0  1  0  0  0  0  0  0  0  0  0
    4.8518   -0.7707   -0.5561 C   0  0  0  0  0  0  0  0  0  0  0  0
    4.1180   -3.2281   -0.8270 C   0  0  1  0  0  0  0  0  0  0  0  0
    5.0900   -3.6544   -1.9506 C   0  0  0  0  0  0  0  0  0  0  0  0
    3.3878   -4.4918   -0.1529 C   0  0  0  0  0  0  0  0  0  0  0  0
    3.3575   -4.1386    1.3344 C   0  0  2  0  0  0  0  0  0  0  0  0
    2.6158   -2.7416    1.2262 C   0  0  0  0  0  0  0  0  0  0  0  0
    3.6967   -1.7849    1.4693 C   0  0  1  0  0  0  0  0  0  0  0  0
    3.8043   -2.1267    3.0347 C   0  0  2  0  0  0  0  0  0  0  0  0
    4.8037   -1.5219    3.9943 C   0  0  1  0  0  0  0  0  0  0  0  0
    4.7172    0.0028    4.1494 C   0  0  0  0  0  0  0  0  0  0  0  0
    4.4383   -2.3223    5.2814 C   0  0  0  0  0  0  0  0  0  0  0  0
    3.5746   -3.4311    4.9212 O   0  0  0  0  0  0  0  0  0  0  0  0
    3.6940   -3.6340    3.5214 C   0  0  2  0  0  0  0  0  0  0  0  0
    4.9671   -4.3978    3.2859 C   0  0  0  0  0  0  0  0  0  0  0  0
    4.8658   -4.5222    1.7888 C   0  0  2  0  0  0  0  0  0  0  0  0
    2.7163   -4.5690    2.6725 C   0  0  0  0  0  0  0  0  0  0  0  0
    7.3401   -5.6506    1.2122 H   0  0  0  0  0  0  0  0  0  0  0  0
    8.1056   -4.1470    0.4756 H   0  0  0  0  0  0  0  0  0  0  0  0
    3.9185   -0.4749   -1.0350 H   0  0  0  0  0  0  0  0  0  0  0  0
    5.6075   -0.8526   -1.3381 H   0  0  0  0  0  0  0  0  0  0  0  0
    5.1567    0.0437    0.1056 H   0  0  0  0  0  0  0  0  0  0  0  0
    3.3356   -2.7227   -1.3982 H   0  0  0  0  0  0  0  0  0  0  0  0
    5.9210   -4.2464   -1.5718 H   0  0  0  0  0  0  0  0  0  0  0  0
    5.4969   -2.7979   -2.4897 H   0  0  0  0  0  0  0  0  0  0  0  0
    4.5700   -4.2708   -2.6847 H   0  0  0  0  0  0  0  0  0  0  0  0
    2.3845   -4.6256   -0.5606 H   0  0  0  0  0  0  0  0  0  0  0  0
    3.9249   -5.4213   -0.3507 H   0  0  0  0  0  0  0  0  0  0  0  0
    2.0972   -2.5494    0.2903 H   0  0  0  0  0  0  0  0  0  0  0  0
    1.7664   -2.5658    1.8895 H   0  0  0  0  0  0  0  0  0  0  0  0
    3.3007   -0.7739    1.3766 H   0  0  0  0  0  0  0  0  0  0  0  0
    2.8803   -1.6822    3.4171 H   0  0  0  0  0  0  0  0  0  0  0  0
    5.8127   -1.7690    3.6643 H   0  0  0  0  0  0  0  0  0  0  0  0
    3.7299    0.3235    4.4852 H   0  0  0  0  0  0  0  0  0  0  0  0
    4.9254    0.5049    3.2043 H   0  0  0  0  0  0  0  0  0  0  0  0
    5.4474    0.3593    4.8751 H   0  0  0  0  0  0  0  0  0  0  0  0
    5.3438   -2.6940    5.7656 H   0  0  0  0  0  0  0  0  0  0  0  0
    3.9151   -1.6972    6.0085 H   0  0  0  0  0  0  0  0  0  0  0  0
    5.8735   -3.9189    3.6393 H   0  0  0  0  0  0  0  0  0  0  0  0
    4.9195   -5.3767    3.7673 H   0  0  0  0  0  0  0  0  0  0  0  0
    4.9684   -5.5934    1.5983 H   0  0  0  0  0  0  0  0  0  0  0  0
    1.6550   -4.3651    2.8154 H   0  0  0  0  0  0  0  0  0  0  0  0
    2.8469   -5.6306    2.8878 H   0  0  0  0  0  0  0  0  0  0  0  0
  1  2  2  0
  1 22  1  0
  1 23  1  0
  2 20  1  0
  2  3  1  0
  3  4  2  0
  3  5  1  0
  5 12  1  0
  5  6  1  6
  5  7  1  0
  6 24  1  0
  6 25  1  0
  6 26  1  0
  7  8  1  0
  7  9  1  0
  7 27  1  6
  8 28  1  0
  8 29  1  0
  8 30  1  0
 10  9  1  6
  9 31  1  0
  9 32  1  0
 10 20  1  0
 10 21  1  0
 10 11  1  0
 11 12  1  0
 11 33  1  0
 11 34  1  0
 12 13  1  0
 12 35  1  1
 13 18  1  0
 13 14  1  0
 13 36  1  1
 14 15  1  0
 14 16  1  0
 14 37  1  6
 15 38  1  0
 15 39  1  0
 15 40  1  0
 16 17  1  0
 16 41  1  0
 16 42  1  0
 18 17  1  1
 18 19  1  0
 18 21  1  0
 19 20  1  0
 19 43  1  0
 19 44  1  0
 20 45  1  1
 21 46  1  0
 21 47  1  0
M  END
>  <i_m_ct_stereo_status>  (308) 
1

>  <s_m_source_file>  (308) 
/var/tmp/pbs.5076255.sched01/tmpfes5ahby/80lk6pwr5_.sdf

>  <i_m_source_file_index>  (308) 
38

>  <i_lp_mmshare_version>  (308) 
48012

>  <i_f3d_flags>  (308) 
0

>  <s_epik_input>  (308) 
W0NAQF0xMjNbQ0BIXTRDKD1bQ0gyXSlDKD1PKVtDQEBdKFtDSDNdKShbQ0BASF0oW0NIM10pW0NIMl0xKVtDQEBIXShbQ0gyXTIpW0NASF01W0NAXShbQ0gyXTQpKFtDSDJdMylPW0NIMl1bQ0BASF01W0NIM10=

>  <s_epik_cmdline>  (308) 
J2VwaWtfcHl0aG9uJywgJy1waHQnLCAnMi4wJywgJy1waCcsICc3LjAnLCAnLXRuJywgJzgnLCAnLW1hJywgJzIwMCcsICctaW1hZScsICc8aW5maWxlLm1hZT4nLCAnLW9tYWUnLCAnPG91dGZpbGUubWFlPic=

>  <r_lp_tautomer_probability>  (308) 
1

>  <r_epik_Ionization_Penalty>  (308) 
4.34217e-11

>  <r_epik_Ionization_Penalty_Charging>  (308) 
0

>  <r_epik_Ionization_Penalty_Neutral>  (308) 
4.34217e-11

>  <r_epik_State_Penalty>  (308) 
-0

>  <r_epik_Charging_Adjusted_Penalty>  (308) 
0

>  <i_epik_Tot_Q>  (308) 
0

>  <i_epik_Tot_abs_Q>  (308) 
0

>  <s_lp_Force_Field>  (308) 
OPLS3e

>  <r_lp_Energy>  (308) 
176.851

>  <b_lp_Chiralities_Consistent>  (308) 
1

>  <s_lp_Variant>  (308) 
75:0-1

>  <s_i_glide_gridfile>  (308) 
pfpi4k_grid

>  <i_i_glide_lignum>  (308) 
38

>  <i_i_glide_rotatable_bonds>  (308) 
0

>  <r_i_docking_score>  (308) 
-3.06318

>  <r_i_glide_ligand_efficiency>  (308) 
-0.145866

>  <r_i_glide_ligand_efficiency_sa>  (308) 
-0.402432

>  <r_i_glide_ligand_efficiency_ln>  (308) 
-0.757365

>  <r_i_glide_gscore>  (308) 
-3.06318

>  <r_i_glide_lipo>  (308) 
-0.426159

>  <r_i_glide_hbond>  (308) 
0

>  <r_i_glide_metal>  (308) 
-0

>  <r_i_glide_rewards>  (308) 
-1.56416

>  <r_i_glide_evdw>  (308) 
-19.5886

>  <r_i_glide_ecoul>  (308) 
-0.622862

>  <r_i_glide_erotb>  (308) 
0

>  <r_i_glide_esite>  (308) 
0

>  <r_i_glide_emodel>  (308) 
-24.4276

>  <r_i_glide_energy>  (308) 
-20.2114

>  <r_i_glide_einternal>  (308) 
0

>  <r_i_glide_intrahb_reward>  (308) 
-0

>  <i_i_glide_confnum>  (308) 
1

>  <i_i_glide_posenum>  (308) 
1

>  <r_i_glide_eff_state_penalty>  (308) 
0

>  <ligand_id>  (308) 
75

>  <original_smiles>  (308) 
C=C1C(=O)C2(C)C(C)CC34CC2C2C(C)COC2(CC13)C4

>  <smiles>  (308) 
[H]C([H])=C1C(=O)C2(C([H])([H])[H])C([H])(C([H])([H])[H])C([H])([H])C34C([H])([H])C2([H])C2([H])C([H])(C([H])([H])[H])C([H])([H])OC2(C([H])([H])C13[H])C4([H])[H]

$$$$
76:0:0
     RDKit          3D

 61 65  0  0  1  0  0  0  0  0999 V2000
    3.1754   -1.7855   -2.2488 C   0  0  0  0  0  0  0  0  0  0  0  0
    4.3753   -2.7463   -2.1710 C   0  0  0  0  0  0  0  0  0  0  0  0
    4.6022   -3.3212   -3.5754 C   0  0  0  0  0  0  0  0  0  0  0  0
    5.6094   -2.0121   -1.6491 C   0  0  0  0  0  0  0  0  0  0  0  0
    5.4982   -2.0905   -0.1459 C   0  0  1  0  0  0  0  0  0  0  0  0
    6.6070   -1.6407    0.6584 O   0  0  0  0  0  0  0  0  0  0  0  0
    5.4214   -0.8582    0.7322 C   0  0  2  0  0  0  0  0  0  0  0  0
    4.6932   -0.8703    2.0571 C   0  0  0  0  0  0  0  0  0  0  0  0
    4.3929   -2.3088    2.5409 C   0  0  1  0  0  0  0  0  0  0  0  0
    3.5035   -2.4838    3.8147 C   0  0  2  0  0  0  0  0  0  0  0  0
    2.3666   -1.4291    3.8712 C   0  0  0  0  0  0  0  0  0  0  0  0
    4.3622   -2.2700    5.1016 C   0  0  0  0  0  0  0  0  0  0  0  0
    5.0168   -3.4883    5.7799 C   0  0  0  0  0  0  0  0  0  0  0  0
    4.5768   -4.8498    5.2466 C   0  0  0  0  0  0  0  0  0  0  0  0
    3.0841   -4.8848    4.8561 C   0  0  0  0  0  0  0  0  0  0  0  0
    2.7160   -6.3462    4.5158 C   0  0  0  0  0  0  0  0  0  0  0  0
    2.1925   -4.4869    6.0569 C   0  0  0  0  0  0  0  0  0  0  0  0
    2.8666   -3.9143    3.6433 C   0  0  2  0  0  0  0  0  0  0  0  0
    3.3787   -4.4398    2.2617 C   0  0  1  0  0  0  0  0  0  0  0  0
    2.4251   -5.2418    1.5776 O   0  0  0  0  0  0  0  0  0  0  0  0
    3.8083   -3.2045    1.4275 C   0  0  1  0  0  0  0  0  0  0  0  0
    2.6164   -2.6028    0.9356 O   0  0  0  0  0  0  0  0  0  0  0  0
    4.8287   -3.4101    0.2341 C   0  0  2  0  0  0  0  0  0  0  0  0
    5.9387   -4.4358    0.5772 C   0  0  0  0  0  0  0  0  0  0  0  0
    4.1693   -3.8574   -1.1085 C   0  0  0  0  0  0  0  0  0  0  0  0
    3.3044   -1.0309   -3.0259 H   0  0  0  0  0  0  0  0  0  0  0  0
    3.0218   -1.2465   -1.3174 H   0  0  0  0  0  0  0  0  0  0  0  0
    2.2494   -2.3172   -2.4697 H   0  0  0  0  0  0  0  0  0  0  0  0
    5.4644   -3.9834   -3.6133 H   0  0  0  0  0  0  0  0  0  0  0  0
    4.7616   -2.5195   -4.2952 H   0  0  0  0  0  0  0  0  0  0  0  0
    3.7373   -3.8866   -3.9197 H   0  0  0  0  0  0  0  0  0  0  0  0
    6.5274   -2.5131   -1.9642 H   0  0  0  0  0  0  0  0  0  0  0  0
    5.6514   -0.9752   -1.9862 H   0  0  0  0  0  0  0  0  0  0  0  0
    5.5260    0.1187    0.2662 H   0  0  0  0  0  0  0  0  0  0  0  0
    5.3008   -0.3423    2.7898 H   0  0  0  0  0  0  0  0  0  0  0  0
    3.7785   -0.2941    1.9245 H   0  0  0  0  0  0  0  0  0  0  0  0
    5.3618   -2.7403    2.8008 H   0  0  0  0  0  0  0  0  0  0  0  0
    1.7110   -1.6239    4.7191 H   0  0  0  0  0  0  0  0  0  0  0  0
    1.7388   -1.4242    2.9803 H   0  0  0  0  0  0  0  0  0  0  0  0
    2.7644   -0.4216    4.0032 H   0  0  0  0  0  0  0  0  0  0  0  0
    5.1372   -1.5332    4.8989 H   0  0  0  0  0  0  0  0  0  0  0  0
    3.7477   -1.7864    5.8565 H   0  0  0  0  0  0  0  0  0  0  0  0
    6.1026   -3.4126    5.7309 H   0  0  0  0  0  0  0  0  0  0  0  0
    4.7742   -3.4470    6.8406 H   0  0  0  0  0  0  0  0  0  0  0  0
    5.2002   -5.1109    4.3925 H   0  0  0  0  0  0  0  0  0  0  0  0
    4.7894   -5.6148    5.9941 H   0  0  0  0  0  0  0  0  0  0  0  0
    1.6874   -6.4309    4.1595 H   0  0  0  0  0  0  0  0  0  0  0  0
    2.8081   -6.9768    5.4015 H   0  0  0  0  0  0  0  0  0  0  0  0
    3.3741   -6.7733    3.7580 H   0  0  0  0  0  0  0  0  0  0  0  0
    1.1382   -4.6641    5.8498 H   0  0  0  0  0  0  0  0  0  0  0  0
    2.2871   -3.4396    6.3304 H   0  0  0  0  0  0  0  0  0  0  0  0
    2.4548   -5.0681    6.9390 H   0  0  0  0  0  0  0  0  0  0  0  0
    1.7903   -3.7853    3.5246 H   0  0  0  0  0  0  0  0  0  0  0  0
    4.2497   -5.0652    2.4397 H   0  0  0  0  0  0  0  0  0  0  0  0
    2.8434   -5.6001    0.8093 H   0  0  0  0  0  0  0  0  0  0  0  0
    2.8232   -1.8300    0.4327 H   0  0  0  0  0  0  0  0  0  0  0  0
    5.5308   -5.4449    0.6613 H   0  0  0  0  0  0  0  0  0  0  0  0
    6.4345   -4.1914    1.5170 H   0  0  0  0  0  0  0  0  0  0  0  0
    6.7138   -4.4679   -0.1920 H   0  0  0  0  0  0  0  0  0  0  0  0
    3.1223   -4.1331   -1.0141 H   0  0  0  0  0  0  0  0  0  0  0  0
    4.6582   -4.7584   -1.4777 H   0  0  0  0  0  0  0  0  0  0  0  0
  1  2  1  0
  1 26  1  0
  1 27  1  0
  1 28  1  0
  2 25  1  0
  2  3  1  0
  2  4  1  0
  3 29  1  0
  3 30  1  0
  3 31  1  0
  4  5  1  0
  4 32  1  0
  4 33  1  0
  5  7  1  0
  5 23  1  0
  5  6  1  1
  6  7  1  0
  7  8  1  0
  7 34  1  6
  8  9  1  0
  8 35  1  0
  8 36  1  0
  9 21  1  0
  9 10  1  0
  9 37  1  1
 10 18  1  0
 10 11  1  6
 10 12  1  0
 11 38  1  0
 11 39  1  0
 11 40  1  0
 12 13  1  0
 12 41  1  0
 12 42  1  0
 13 14  1  0
 13 43  1  0
 13 44  1  0
 14 15  1  0
 14 45  1  0
 14 46  1  0
 15 16  1  0
 15 17  1  0
 15 18  1  0
 16 47  1  0
 16 48  1  0
 16 49  1  0
 17 50  1  0
 17 51  1  0
 17 52  1  0
 18 19  1  0
 18 53  1  6
 19 20  1  0
 19 21  1  0
 19 54  1  1
 20 55  1  0
 21 22  1  6
 21 23  1  0
 22 56  1  0
 23 24  1  1
 23 25  1  0
 24 57  1  0
 24 58  1  0
 24 59  1  0
 25 60  1  0
 25 61  1  0
M  END
>  <i_m_ct_stereo_status>  (309) 
1

>  <s_m_source_file>  (309) 
/var/tmp/pbs.5076255.sched01/tmpfes5ahby/80lk6pwr5_.sdf

>  <i_m_source_file_index>  (309) 
39

>  <i_lp_mmshare_version>  (309) 
48012

>  <i_f3d_flags>  (309) 
0

>  <s_epik_input>  (309) 
W0NIM11DKFtDSDNdKShbQ0gyXTEpW0NIMl1bQ0BdMihbQ0gzXSlbQ0BAXTMoW09IXSlbQ0BIXShbT0hdKVtDQEhdKFtDQF00KFtDSDNdKVtDQEBIXTNbQ0gyXVtDQEhdKFtDQF0xMjUpTzUpQyhbQ0gzXSkoW0NIM10pW0NIMl1bQ0gyXVtDSDJdNA==

>  <s_epik_cmdline>  (309) 
J2VwaWtfcHl0aG9uJywgJy1waHQnLCAnMi4wJywgJy1waCcsICc3LjAnLCAnLXRuJywgJzgnLCAnLW1hJywgJzIwMCcsICctaW1hZScsICc8aW5maWxlLm1hZT4nLCAnLW9tYWUnLCAnPG91dGZpbGUubWFlPic=

>  <r_lp_tautomer_probability>  (309) 
1

>  <r_epik_Ionization_Penalty>  (309) 
8.21329e-07

>  <r_epik_Ionization_Penalty_Charging>  (309) 
0

>  <r_epik_Ionization_Penalty_Neutral>  (309) 
8.21329e-07

>  <r_epik_State_Penalty>  (309) 
-0

>  <r_epik_Charging_Adjusted_Penalty>  (309) 
0

>  <i_epik_Tot_Q>  (309) 
0

>  <i_epik_Tot_abs_Q>  (309) 
0

>  <s_lp_Force_Field>  (309) 
OPLS3e

>  <r_lp_Energy>  (309) 
64.7293

>  <b_lp_Chiralities_Consistent>  (309) 
1

>  <s_lp_Variant>  (309) 
76:0-1

>  <s_i_glide_gridfile>  (309) 
pfpi4k_grid

>  <i_i_glide_lignum>  (309) 
39

>  <i_i_glide_rotatable_bonds>  (309) 
2

>  <r_i_docking_score>  (309) 
-3.03978

>  <r_i_glide_ligand_efficiency>  (309) 
-0.121591

>  <r_i_glide_ligand_efficiency_sa>  (309) 
-0.355535

>  <r_i_glide_ligand_efficiency_ln>  (309) 
-0.72052

>  <r_i_glide_gscore>  (309) 
-3.03978

>  <r_i_glide_lipo>  (309) 
-0.631605

>  <r_i_glide_hbond>  (309) 
0

>  <r_i_glide_metal>  (309) 
-0

>  <r_i_glide_rewards>  (309) 
-1.03282

>  <r_i_glide_evdw>  (309) 
-25.3544

>  <r_i_glide_ecoul>  (309) 
-0.71758

>  <r_i_glide_erotb>  (309) 
0

>  <r_i_glide_esite>  (309) 
0

>  <r_i_glide_emodel>  (309) 
-30.9152

>  <r_i_glide_energy>  (309) 
-26.072

>  <r_i_glide_einternal>  (309) 
0.353215

>  <r_i_glide_intrahb_reward>  (309) 
-0

>  <i_i_glide_confnum>  (309) 
1

>  <i_i_glide_posenum>  (309) 
13

>  <r_i_glide_eff_state_penalty>  (309) 
0

>  <ligand_id>  (309) 
76

>  <original_smiles>  (309) 
CC1(C)CC23OC2CC2C4(C)CCCC(C)(C)C4C(O)C2(O)C3(C)C1

>  <smiles>  (309) 
[H]OC1([H])C2([H])C(C([H])([H])[H])(C([H])([H])[H])C([H])([H])C([H])([H])C([H])([H])C2(C([H])([H])[H])C2([H])C([H])([H])C3([H])OC34C([H])([H])C(C([H])([H])[H])(C([H])([H])[H])C([H])([H])C4(C([H])([H])[H])C12O[H]

$$$$
76:0:1
     RDKit          3D

 61 65  0  0  1  0  0  0  0  0999 V2000
    3.4214   -1.5304   -1.9388 C   0  0  0  0  0  0  0  0  0  0  0  0
    4.5381   -2.5895   -1.8498 C   0  0  0  0  0  0  0  0  0  0  0  0
    5.0034   -2.9054   -3.2779 C   0  0  0  0  0  0  0  0  0  0  0  0
    5.6844   -2.0690   -0.9793 C   0  0  0  0  0  0  0  0  0  0  0  0
    5.2814   -2.4339    0.4285 C   0  0  1  0  0  0  0  0  0  0  0  0
    6.2249   -2.2426    1.5009 O   0  0  0  0  0  0  0  0  0  0  0  0
    5.0884   -1.3898    1.5127 C   0  0  2  0  0  0  0  0  0  0  0  0
    4.1208   -1.6039    2.6560 C   0  0  0  0  0  0  0  0  0  0  0  0
    3.6781   -3.0828    2.7757 C   0  0  1  0  0  0  0  0  0  0  0  0
    2.5504   -3.4302    3.8023 C   0  0  2  0  0  0  0  0  0  0  0  0
    1.4680   -2.3200    3.8716 C   0  0  0  0  0  0  0  0  0  0  0  0
    3.1518   -3.5420    5.2378 C   0  0  0  0  0  0  0  0  0  0  0  0
    3.6157   -4.9174    5.7528 C   0  0  0  0  0  0  0  0  0  0  0  0
    3.2259   -6.1114    4.8825 C   0  0  0  0  0  0  0  0  0  0  0  0
    1.8372   -5.9474    4.2304 C   0  0  0  0  0  0  0  0  0  0  0  0
    1.4774   -7.2799    3.5358 C   0  0  0  0  0  0  0  0  0  0  0  0
    0.7502   -5.7210    5.3097 C   0  0  0  0  0  0  0  0  0  0  0  0
    1.9003   -4.7438    3.2289 C   0  0  2  0  0  0  0  0  0  0  0  0
    2.6476   -5.0289    1.8827 C   0  0  1  0  0  0  0  0  0  0  0  0
    1.8150   -5.6009    0.8828 O   0  0  0  0  0  0  0  0  0  0  0  0
    3.2849   -3.6916    1.4180 C   0  0  1  0  0  0  0  0  0  0  0  0
    2.2501   -2.8901    0.8700 O   0  0  0  0  0  0  0  0  0  0  0  0
    4.5000   -3.7424    0.4036 C   0  0  2  0  0  0  0  0  0  0  0  0
    5.4775   -4.9019    0.7164 C   0  0  0  0  0  0  0  0  0  0  0  0
    4.0873   -3.8591   -1.0958 C   0  0  0  0  0  0  0  0  0  0  0  0
    3.7298   -0.6559   -2.5077 H   0  0  0  0  0  0  0  0  0  0  0  0
    3.1159   -1.1749   -0.9592 H   0  0  0  0  0  0  0  0  0  0  0  0
    2.5324   -1.9360   -2.4285 H   0  0  0  0  0  0  0  0  0  0  0  0
    5.8290   -3.6169   -3.2974 H   0  0  0  0  0  0  0  0  0  0  0  0
    5.3359   -1.9974   -3.7721 H   0  0  0  0  0  0  0  0  0  0  0  0
    4.1960   -3.3184   -3.8808 H   0  0  0  0  0  0  0  0  0  0  0  0
    6.6240   -2.5707   -1.2216 H   0  0  0  0  0  0  0  0  0  0  0  0
    5.8255   -0.9918   -1.0812 H   0  0  0  0  0  0  0  0  0  0  0  0
    5.3249   -0.3552    1.2803 H   0  0  0  0  0  0  0  0  0  0  0  0
    4.5992   -1.2770    3.5793 H   0  0  0  0  0  0  0  0  0  0  0  0
    3.2714   -0.9418    2.4848 H   0  0  0  0  0  0  0  0  0  0  0  0
    4.5613   -3.6333    3.1108 H   0  0  0  0  0  0  0  0  0  0  0  0
    0.6555   -2.6250    4.5305 H   0  0  0  0  0  0  0  0  0  0  0  0
    1.0187   -2.0903    2.9045 H   0  0  0  0  0  0  0  0  0  0  0  0
    1.8733   -1.3919    4.2781 H   0  0  0  0  0  0  0  0  0  0  0  0
    3.9842   -2.8471    5.3329 H   0  0  0  0  0  0  0  0  0  0  0  0
    2.4264   -3.1634    5.9547 H   0  0  0  0  0  0  0  0  0  0  0  0
    4.6928   -4.9214    5.9181 H   0  0  0  0  0  0  0  0  0  0  0  0
    3.1746   -5.0650    6.7400 H   0  0  0  0  0  0  0  0  0  0  0  0
    3.9896   -6.2452    4.1186 H   0  0  0  0  0  0  0  0  0  0  0  0
    3.2612   -7.0224    5.4805 H   0  0  0  0  0  0  0  0  0  0  0  0
    0.5338   -7.2139    2.9945 H   0  0  0  0  0  0  0  0  0  0  0  0
    1.3758   -8.0783    4.2746 H   0  0  0  0  0  0  0  0  0  0  0  0
    2.2506   -7.6013    2.8371 H   0  0  0  0  0  0  0  0  0  0  0  0
   -0.2535   -5.7680    4.8902 H   0  0  0  0  0  0  0  0  0  0  0  0
    0.8363   -4.7586    5.8096 H   0  0  0  0  0  0  0  0  0  0  0  0
    0.8154   -6.4837    6.0867 H   0  0  0  0  0  0  0  0  0  0  0  0
    0.8722   -4.5090    2.9489 H   0  0  0  0  0  0  0  0  0  0  0  0
    3.4378   -5.7469    2.0815 H   0  0  0  0  0  0  0  0  0  0  0  0
    2.3592   -5.8322    0.1438 H   0  0  0  0  0  0  0  0  0  0  0  0
    2.5991   -2.0671    0.5617 H   0  0  0  0  0  0  0  0  0  0  0  0
    5.0151   -5.8707    0.5187 H   0  0  0  0  0  0  0  0  0  0  0  0
    5.7925   -4.8851    1.7594 H   0  0  0  0  0  0  0  0  0  0  0  0
    6.3833   -4.8481    0.1069 H   0  0  0  0  0  0  0  0  0  0  0  0
    3.0251   -4.0587   -1.2450 H   0  0  0  0  0  0  0  0  0  0  0  0
    4.5988   -4.7129   -1.5519 H   0  0  0  0  0  0  0  0  0  0  0  0
  1  2  1  0
  1 26  1  0
  1 27  1  0
  1 28  1  0
  2 25  1  0
  2  3  1  0
  2  4  1  0
  3 29  1  0
  3 30  1  0
  3 31  1  0
  4  5  1  0
  4 32  1  0
  4 33  1  0
  5  7  1  0
  5 23  1  0
  5  6  1  1
  6  7  1  0
  7  8  1  0
  7 34  1  6
  8  9  1  0
  8 35  1  0
  8 36  1  0
  9 21  1  0
  9 10  1  0
  9 37  1  1
 10 18  1  0
 10 11  1  1
 10 12  1  0
 11 38  1  0
 11 39  1  0
 11 40  1  0
 12 13  1  0
 12 41  1  0
 12 42  1  0
 13 14  1  0
 13 43  1  0
 13 44  1  0
 14 15  1  0
 14 45  1  0
 14 46  1  0
 15 16  1  0
 15 17  1  0
 15 18  1  0
 16 47  1  0
 16 48  1  0
 16 49  1  0
 17 50  1  0
 17 51  1  0
 17 52  1  0
 18 19  1  0
 18 53  1  6
 19 20  1  0
 19 21  1  0
 19 54  1  1
 20 55  1  0
 21 22  1  6
 21 23  1  0
 22 56  1  0
 23 24  1  1
 23 25  1  0
 24 57  1  0
 24 58  1  0
 24 59  1  0
 25 60  1  0
 25 61  1  0
M  END
>  <i_m_ct_stereo_status>  (310) 
1

>  <s_m_source_file>  (310) 
/var/tmp/pbs.5076255.sched01/tmpfes5ahby/80lk6pwr5_.sdf

>  <i_m_source_file_index>  (310) 
39

>  <i_lp_mmshare_version>  (310) 
48012

>  <i_f3d_flags>  (310) 
0

>  <s_epik_input>  (310) 
W0NIM11DKFtDSDNdKShbQ0gyXTEpW0NIMl1bQ0BdMihbQ0gzXSlbQ0BAXTMoW09IXSlbQ0BIXShbT0hdKVtDQEhdKFtDQF00KFtDSDNdKVtDQEBIXTNbQ0gyXVtDQEhdKFtDQF0xMjUpTzUpQyhbQ0gzXSkoW0NIM10pW0NIMl1bQ0gyXVtDSDJdNA==

>  <s_epik_cmdline>  (310) 
J2VwaWtfcHl0aG9uJywgJy1waHQnLCAnMi4wJywgJy1waCcsICc3LjAnLCAnLXRuJywgJzgnLCAnLW1hJywgJzIwMCcsICctaW1hZScsICc8aW5maWxlLm1hZT4nLCAnLW9tYWUnLCAnPG91dGZpbGUubWFlPic=

>  <r_lp_tautomer_probability>  (310) 
1

>  <r_epik_Ionization_Penalty>  (310) 
8.21329e-07

>  <r_epik_Ionization_Penalty_Charging>  (310) 
0

>  <r_epik_Ionization_Penalty_Neutral>  (310) 
8.21329e-07

>  <r_epik_State_Penalty>  (310) 
-0

>  <r_epik_Charging_Adjusted_Penalty>  (310) 
0

>  <i_epik_Tot_Q>  (310) 
0

>  <i_epik_Tot_abs_Q>  (310) 
0

>  <s_lp_Force_Field>  (310) 
OPLS3e

>  <r_lp_Energy>  (310) 
64.7293

>  <b_lp_Chiralities_Consistent>  (310) 
1

>  <s_lp_Variant>  (310) 
76:0-1

>  <s_i_glide_gridfile>  (310) 
pfpi4k_grid

>  <i_i_glide_lignum>  (310) 
39

>  <i_i_glide_rotatable_bonds>  (310) 
2

>  <r_i_docking_score>  (310) 
-2.91806

>  <r_i_glide_ligand_efficiency>  (310) 
-0.116722

>  <r_i_glide_ligand_efficiency_sa>  (310) 
-0.341299

>  <r_i_glide_ligand_efficiency_ln>  (310) 
-0.691668

>  <r_i_glide_gscore>  (310) 
-2.91806

>  <r_i_glide_lipo>  (310) 
-0.405824

>  <r_i_glide_hbond>  (310) 
0

>  <r_i_glide_metal>  (310) 
-0

>  <r_i_glide_rewards>  (310) 
-1.03282

>  <r_i_glide_evdw>  (310) 
-22.2738

>  <r_i_glide_ecoul>  (310) 
-2.43816

>  <r_i_glide_erotb>  (310) 
0

>  <r_i_glide_esite>  (310) 
0

>  <r_i_glide_emodel>  (310) 
-29.3218

>  <r_i_glide_energy>  (310) 
-24.712

>  <r_i_glide_einternal>  (310) 
0.357105

>  <r_i_glide_intrahb_reward>  (310) 
-0

>  <i_i_glide_confnum>  (310) 
2

>  <i_i_glide_posenum>  (310) 
33

>  <r_i_glide_eff_state_penalty>  (310) 
0

>  <ligand_id>  (310) 
76

>  <original_smiles>  (310) 
CC1(C)CC23OC2CC2C4(C)CCCC(C)(C)C4C(O)C2(O)C3(C)C1

>  <smiles>  (310) 
[H]OC1([H])C2([H])C(C([H])([H])[H])(C([H])([H])[H])C([H])([H])C([H])([H])C([H])([H])C2(C([H])([H])[H])C2([H])C([H])([H])C3([H])OC34C([H])([H])C(C([H])([H])[H])(C([H])([H])[H])C([H])([H])C4(C([H])([H])[H])C12O[H]

$$$$
76:0:2
     RDKit          3D

 61 65  0  0  1  0  0  0  0  0999 V2000
    2.8830   -2.6853   -2.4019 C   0  0  0  0  0  0  0  0  0  0  0  0
    4.3639   -3.0644   -2.2490 C   0  0  0  0  0  0  0  0  0  0  0  0
    4.8247   -3.6479   -3.5852 C   0  0  0  0  0  0  0  0  0  0  0  0
    5.1900   -1.8416   -1.8545 C   0  0  0  0  0  0  0  0  0  0  0  0
    5.0942   -1.7845   -0.3492 C   0  0  1  0  0  0  0  0  0  0  0  0
    5.9178   -0.8429    0.3708 O   0  0  0  0  0  0  0  0  0  0  0  0
    4.5145   -0.5961    0.3810 C   0  0  2  0  0  0  0  0  0  0  0  0
    3.8171   -0.7289    1.7143 C   0  0  0  0  0  0  0  0  0  0  0  0
    4.1017   -2.0954    2.3746 C   0  0  1  0  0  0  0  0  0  0  0  0
    3.3272   -2.4531    3.6818 C   0  0  2  0  0  0  0  0  0  0  0  0
    1.8619   -1.9426    3.6422 C   0  0  0  0  0  0  0  0  0  0  0  0
    4.0009   -1.7604    4.9069 C   0  0  0  0  0  0  0  0  0  0  0  0
    5.0684   -2.5267    5.7139 C   0  0  0  0  0  0  0  0  0  0  0  0
    5.2231   -4.0033    5.3544 C   0  0  0  0  0  0  0  0  0  0  0  0
    3.8811   -4.6781    5.0117 C   0  0  0  0  0  0  0  0  0  0  0  0
    4.1346   -6.1931    4.8587 C   0  0  0  0  0  0  0  0  0  0  0  0
    2.8774   -4.5269    6.1818 C   0  0  0  0  0  0  0  0  0  0  0  0
    3.3203   -4.0281    3.7008 C   0  0  2  0  0  0  0  0  0  0  0  0
    4.0302   -4.4635    2.3759 C   0  0  1  0  0  0  0  0  0  0  0  0
    3.4888   -5.6537    1.8245 O   0  0  0  0  0  0  0  0  0  0  0  0
    3.9465   -3.2715    1.3877 C   0  0  1  0  0  0  0  0  0  0  0  0
    2.6283   -3.2268    0.8496 O   0  0  0  0  0  0  0  0  0  0  0  0
    4.9972   -3.2049    0.2020 C   0  0  2  0  0  0  0  0  0  0  0  0
    6.4142   -3.6477    0.6322 C   0  0  0  0  0  0  0  0  0  0  0  0
    4.5998   -4.0301   -1.0573 C   0  0  0  0  0  0  0  0  0  0  0  0
    2.7113   -2.0342   -3.2610 H   0  0  0  0  0  0  0  0  0  0  0  0
    2.5416   -2.1513   -1.5249 H   0  0  0  0  0  0  0  0  0  0  0  0
    2.2502   -3.5627   -2.5358 H   0  0  0  0  0  0  0  0  0  0  0  0
    5.8882   -3.8749   -3.5663 H   0  0  0  0  0  0  0  0  0  0  0  0
    4.6453   -2.9355   -4.3888 H   0  0  0  0  0  0  0  0  0  0  0  0
    4.2874   -4.5602   -3.8449 H   0  0  0  0  0  0  0  0  0  0  0  0
    6.2359   -1.9736   -2.1347 H   0  0  0  0  0  0  0  0  0  0  0  0
    4.8317   -0.9178   -2.3126 H   0  0  0  0  0  0  0  0  0  0  0  0
    4.2241    0.2659   -0.2102 H   0  0  0  0  0  0  0  0  0  0  0  0
    4.1433    0.0849    2.3600 H   0  0  0  0  0  0  0  0  0  0  0  0
    2.7518   -0.5837    1.5325 H   0  0  0  0  0  0  0  0  0  0  0  0
    5.1569   -2.0713    2.6547 H   0  0  0  0  0  0  0  0  0  0  0  0
    1.3202   -2.2783    4.5255 H   0  0  0  0  0  0  0  0  0  0  0  0
    1.3039   -2.2946    2.7747 H   0  0  0  0  0  0  0  0  0  0  0  0
    1.8227   -0.8509    3.6409 H   0  0  0  0  0  0  0  0  0  0  0  0
    4.4216   -0.8076    4.5958 H   0  0  0  0  0  0  0  0  0  0  0  0
    3.2264   -1.4742    5.6163 H   0  0  0  0  0  0  0  0  0  0  0  0
    6.0335   -2.0292    5.6342 H   0  0  0  0  0  0  0  0  0  0  0  0
    4.8057   -2.4569    6.7664 H   0  0  0  0  0  0  0  0  0  0  0  0
    5.9138   -4.0965    4.5196 H   0  0  0  0  0  0  0  0  0  0  0  0
    5.7096   -4.5235    6.1817 H   0  0  0  0  0  0  0  0  0  0  0  0
    3.2331   -6.7230    4.5429 H   0  0  0  0  0  0  0  0  0  0  0  0
    4.4508   -6.6236    5.8099 H   0  0  0  0  0  0  0  0  0  0  0  0
    4.9253   -6.4103    4.1375 H   0  0  0  0  0  0  0  0  0  0  0  0
    1.9873   -5.1352    6.0243 H   0  0  0  0  0  0  0  0  0  0  0  0
    2.5396   -3.5049    6.3242 H   0  0  0  0  0  0  0  0  0  0  0  0
    3.3310   -4.8455    7.1184 H   0  0  0  0  0  0  0  0  0  0  0  0
    2.2870   -4.3551    3.5950 H   0  0  0  0  0  0  0  0  0  0  0  0
    5.0742   -4.6599    2.5999 H   0  0  0  0  0  0  0  0  0  0  0  0
    4.0155   -5.9020    1.0787 H   0  0  0  0  0  0  0  0  0  0  0  0
    2.5291   -2.4435    0.3276 H   0  0  0  0  0  0  0  0  0  0  0  0
    6.4409   -4.7190    0.8482 H   0  0  0  0  0  0  0  0  0  0  0  0
    6.7483   -3.1132    1.5207 H   0  0  0  0  0  0  0  0  0  0  0  0
    7.1553   -3.4616   -0.1501 H   0  0  0  0  0  0  0  0  0  0  0  0
    3.7380   -4.6723   -0.8928 H   0  0  0  0  0  0  0  0  0  0  0  0
    5.4084   -4.7089   -1.3373 H   0  0  0  0  0  0  0  0  0  0  0  0
  1  2  1  0
  1 26  1  0
  1 27  1  0
  1 28  1  0
  2 25  1  0
  2  3  1  0
  2  4  1  0
  3 29  1  0
  3 30  1  0
  3 31  1  0
  4  5  1  0
  4 32  1  0
  4 33  1  0
  5  7  1  0
  5 23  1  0
  5  6  1  1
  6  7  1  0
  7  8  1  0
  7 34  1  6
  8  9  1  0
  8 35  1  0
  8 36  1  0
  9 21  1  0
  9 10  1  0
  9 37  1  1
 10 18  1  0
 10 11  1  6
 10 12  1  0
 11 38  1  0
 11 39  1  0
 11 40  1  0
 12 13  1  0
 12 41  1  0
 12 42  1  0
 13 14  1  0
 13 43  1  0
 13 44  1  0
 14 15  1  0
 14 45  1  0
 14 46  1  0
 15 16  1  0
 15 17  1  0
 15 18  1  0
 16 47  1  0
 16 48  1  0
 16 49  1  0
 17 50  1  0
 17 51  1  0
 17 52  1  0
 18 19  1  0
 18 53  1  6
 19 20  1  0
 19 21  1  0
 19 54  1  1
 20 55  1  0
 21 22  1  6
 21 23  1  0
 22 56  1  0
 23 24  1  1
 23 25  1  0
 24 57  1  0
 24 58  1  0
 24 59  1  0
 25 60  1  0
 25 61  1  0
M  END
>  <i_m_ct_stereo_status>  (311) 
1

>  <s_m_source_file>  (311) 
/var/tmp/pbs.5076255.sched01/tmpfes5ahby/80lk6pwr5_.sdf

>  <i_m_source_file_index>  (311) 
39

>  <i_lp_mmshare_version>  (311) 
48012

>  <i_f3d_flags>  (311) 
0

>  <s_epik_input>  (311) 
W0NIM11DKFtDSDNdKShbQ0gyXTEpW0NIMl1bQ0BdMihbQ0gzXSlbQ0BAXTMoW09IXSlbQ0BIXShbT0hdKVtDQEhdKFtDQF00KFtDSDNdKVtDQEBIXTNbQ0gyXVtDQEhdKFtDQF0xMjUpTzUpQyhbQ0gzXSkoW0NIM10pW0NIMl1bQ0gyXVtDSDJdNA==

>  <s_epik_cmdline>  (311) 
J2VwaWtfcHl0aG9uJywgJy1waHQnLCAnMi4wJywgJy1waCcsICc3LjAnLCAnLXRuJywgJzgnLCAnLW1hJywgJzIwMCcsICctaW1hZScsICc8aW5maWxlLm1hZT4nLCAnLW9tYWUnLCAnPG91dGZpbGUubWFlPic=

>  <r_lp_tautomer_probability>  (311) 
1

>  <r_epik_Ionization_Penalty>  (311) 
8.21329e-07

>  <r_epik_Ionization_Penalty_Charging>  (311) 
0

>  <r_epik_Ionization_Penalty_Neutral>  (311) 
8.21329e-07

>  <r_epik_State_Penalty>  (311) 
-0

>  <r_epik_Charging_Adjusted_Penalty>  (311) 
0

>  <i_epik_Tot_Q>  (311) 
0

>  <i_epik_Tot_abs_Q>  (311) 
0

>  <s_lp_Force_Field>  (311) 
OPLS3e

>  <r_lp_Energy>  (311) 
64.7293

>  <b_lp_Chiralities_Consistent>  (311) 
1

>  <s_lp_Variant>  (311) 
76:0-1

>  <s_i_glide_gridfile>  (311) 
pfpi4k_grid

>  <i_i_glide_lignum>  (311) 
39

>  <i_i_glide_rotatable_bonds>  (311) 
2

>  <r_i_docking_score>  (311) 
-2.83437

>  <r_i_glide_ligand_efficiency>  (311) 
-0.113375

>  <r_i_glide_ligand_efficiency_sa>  (311) 
-0.33151

>  <r_i_glide_ligand_efficiency_ln>  (311) 
-0.67183

>  <r_i_glide_gscore>  (311) 
-2.83437

>  <r_i_glide_lipo>  (311) 
-0.429891

>  <r_i_glide_hbond>  (311) 
0

>  <r_i_glide_metal>  (311) 
-0

>  <r_i_glide_rewards>  (311) 
-1.03282

>  <r_i_glide_evdw>  (311) 
-24.8507

>  <r_i_glide_ecoul>  (311) 
-0.860812

>  <r_i_glide_erotb>  (311) 
0

>  <r_i_glide_esite>  (311) 
0

>  <r_i_glide_emodel>  (311) 
-30.189

>  <r_i_glide_energy>  (311) 
-25.7115

>  <r_i_glide_einternal>  (311) 
0.329196

>  <r_i_glide_intrahb_reward>  (311) 
-0

>  <i_i_glide_confnum>  (311) 
1

>  <i_i_glide_posenum>  (311) 
1

>  <r_i_glide_eff_state_penalty>  (311) 
0

>  <ligand_id>  (311) 
76

>  <original_smiles>  (311) 
CC1(C)CC23OC2CC2C4(C)CCCC(C)(C)C4C(O)C2(O)C3(C)C1

>  <smiles>  (311) 
[H]OC1([H])C2([H])C(C([H])([H])[H])(C([H])([H])[H])C([H])([H])C([H])([H])C([H])([H])C2(C([H])([H])[H])C2([H])C([H])([H])C3([H])OC34C([H])([H])C(C([H])([H])[H])(C([H])([H])[H])C([H])([H])C4(C([H])([H])[H])C12O[H]

$$$$
77:0:0
     RDKit          3D

 56 61  0  0  1  0  0  0  0  0999 V2000
    3.8348   -0.5506   -2.8413 C   0  0  0  0  0  0  0  0  0  0  0  0
    5.0046   -0.8891   -1.8999 C   0  0  2  0  0  0  0  0  0  0  0  0
    5.5134   -2.3143   -2.1305 C   0  0  0  0  0  0  0  0  0  0  0  0
    4.4957   -3.3414   -1.6382 C   0  0  1  0  0  0  0  0  0  0  0  0
    5.0193   -4.5636   -2.0684 O   0  0  0  0  0  0  0  0  0  0  0  0
    4.1412   -3.2928   -0.1124 C   0  0  2  0  0  0  0  0  0  0  0  0
    2.8596   -3.8847   -0.1030 O   0  0  0  0  0  0  0  0  0  0  0  0
    3.8022   -1.7457    0.2369 C   0  0  2  0  0  0  0  0  0  0  0  0
    4.7229   -0.6653   -0.3931 C   0  0  1  0  0  0  0  0  0  0  0  0
    5.9426   -0.5493    0.2744 O   0  0  0  0  0  0  0  0  0  0  0  0
    3.1873   -1.3112    1.6054 C   0  0  2  0  0  0  0  0  0  0  0  0
    2.5761   -0.0243    1.7292 O   0  0  0  0  0  0  0  0  0  0  0  0
    3.6554   -0.2727    2.6486 C   0  0  1  0  0  0  0  0  0  0  0  0
    3.4431   -1.2897    3.8053 C   0  0  2  0  0  0  0  0  0  0  0  0
    2.4720   -0.8515    4.6846 O   0  0  0  0  0  0  0  0  0  0  0  0
    4.3604   -2.4591    4.3474 C   0  0  0  0  0  0  0  0  0  0  0  0
    4.4690   -2.9317    2.9332 C   0  0  1  0  0  0  0  0  0  0  0  0
    4.6083   -4.3059    2.3228 C   0  0  2  0  0  0  0  0  0  0  0  0
    5.4638   -5.3457    3.0341 C   0  0  0  0  0  0  0  0  0  0  0  0
    5.8344   -6.3343    1.9172 C   0  0  0  0  0  0  0  0  0  0  0  0
    5.2699   -5.7387    0.6012 C   0  0  1  0  0  0  0  0  0  0  0  0
    4.0627   -6.4254    0.3446 O   0  0  0  0  0  0  0  0  0  0  0  0
    5.1110   -4.1936    0.8511 C   0  0  1  0  0  0  0  0  0  0  0  0
    6.5761   -3.6850    0.7706 C   0  0  0  0  0  0  0  0  0  0  0  0
    3.0935   -2.2938    2.7194 C   0  0  2  0  0  0  0  0  0  0  0  0
    1.7740   -3.0348    2.8431 C   0  0  0  0  0  0  0  0  0  0  0  0
    2.9300   -1.1182   -2.6222 H   0  0  0  0  0  0  0  0  0  0  0  0
    4.0972   -0.7280   -3.8859 H   0  0  0  0  0  0  0  0  0  0  0  0
    3.5964    0.5057   -2.7588 H   0  0  0  0  0  0  0  0  0  0  0  0
    5.8022   -0.2123   -2.1885 H   0  0  0  0  0  0  0  0  0  0  0  0
    5.7109   -2.4610   -3.1986 H   0  0  0  0  0  0  0  0  0  0  0  0
    6.4898   -2.4296   -1.6589 H   0  0  0  0  0  0  0  0  0  0  0  0
    3.5989   -3.1854   -2.2282 H   0  0  0  0  0  0  0  0  0  0  0  0
    4.2632   -5.1318   -2.3085 H   0  0  0  0  0  0  0  0  0  0  0  0
    2.9147   -4.6734   -0.6463 H   0  0  0  0  0  0  0  0  0  0  0  0
    2.9283   -1.6041   -0.3963 H   0  0  0  0  0  0  0  0  0  0  0  0
    4.2236    0.2898   -0.2603 H   0  0  0  0  0  0  0  0  0  0  0  0
    5.7484   -0.3018    1.1742 H   0  0  0  0  0  0  0  0  0  0  0  0
    4.5976    0.2148    2.5350 H   0  0  0  0  0  0  0  0  0  0  0  0
    1.8951   -0.2950    4.1469 H   0  0  0  0  0  0  0  0  0  0  0  0
    5.2978   -2.1514    4.7900 H   0  0  0  0  0  0  0  0  0  0  0  0
    3.8281   -3.1222    5.0231 H   0  0  0  0  0  0  0  0  0  0  0  0
    5.2720   -2.3026    2.5667 H   0  0  0  0  0  0  0  0  0  0  0  0
    3.6299   -4.7739    2.2629 H   0  0  0  0  0  0  0  0  0  0  0  0
    6.3588   -4.9136    3.4757 H   0  0  0  0  0  0  0  0  0  0  0  0
    4.9033   -5.8337    3.8328 H   0  0  0  0  0  0  0  0  0  0  0  0
    6.9207   -6.4227    1.8468 H   0  0  0  0  0  0  0  0  0  0  0  0
    5.4519   -7.3386    2.1057 H   0  0  0  0  0  0  0  0  0  0  0  0
    5.9482   -5.9588   -0.2213 H   0  0  0  0  0  0  0  0  0  0  0  0
    3.8447   -6.3076   -0.5795 H   0  0  0  0  0  0  0  0  0  0  0  0
    7.2394   -4.1086    1.5209 H   0  0  0  0  0  0  0  0  0  0  0  0
    6.6707   -2.6291    0.9134 H   0  0  0  0  0  0  0  0  0  0  0  0
    7.0227   -3.9252   -0.1904 H   0  0  0  0  0  0  0  0  0  0  0  0
    1.7367   -3.6129    3.7663 H   0  0  0  0  0  0  0  0  0  0  0  0
    1.6409   -3.7289    2.0205 H   0  0  0  0  0  0  0  0  0  0  0  0
    0.9458   -2.3237    2.8367 H   0  0  0  0  0  0  0  0  0  0  0  0
  1  2  1  0
  1 27  1  0
  1 28  1  0
  1 29  1  0
  2  9  1  0
  2  3  1  0
  2 30  1  6
  3  4  1  0
  3 31  1  0
  3 32  1  0
  4  5  1  0
  4  6  1  0
  4 33  1  6
  5 34  1  0
  6 23  1  0
  6  7  1  6
  6  8  1  0
  7 35  1  0
  8  9  1  0
  8 11  1  0
  8 36  1  6
  9 10  1  0
  9 37  1  6
 10 38  1  0
 11 13  1  0
 11 25  1  0
 11 12  1  6
 12 13  1  0
 13 14  1  0
 13 39  1  6
 14 25  1  0
 14 15  1  1
 14 16  1  0
 15 40  1  0
 16 17  1  0
 16 41  1  0
 16 42  1  0
 17 18  1  0
 17 25  1  0
 17 43  1  6
 18 23  1  0
 18 19  1  0
 18 44  1  6
 19 20  1  0
 19 45  1  0
 19 46  1  0
 20 21  1  0
 20 47  1  0
 20 48  1  0
 21 22  1  0
 21 23  1  0
 21 49  1  6
 22 50  1  0
 23 24  1  1
 24 51  1  0
 24 52  1  0
 24 53  1  0
 25 26  1  1
 26 54  1  0
 26 55  1  0
 26 56  1  0
M  END
>  <i_m_ct_stereo_status>  (312) 
1

>  <s_m_source_file>  (312) 
/var/tmp/pbs.5076255.sched01/tmpfes5ahby/80lk6pwr5_.sdf

>  <i_m_source_file_index>  (312) 
40

>  <i_lp_mmshare_version>  (312) 
48012

>  <i_f3d_flags>  (312) 
0

>  <s_epik_input>  (312) 
W09IXVtDQEhdMVtDQEhdKFtDSDNdKVtDSDJdW0NAQEhdKFtPSF0pW0NAXShbT0hdKShbQ0BIXTFbQ0BdMjM0KVtDQEBdNShbQ0gzXSlbQ0BIXShbQ0BIXTZbQ0BAXTQoW0NIM10pW0NAQF0oW0NAQEhdM08yKShbT0hdKVtDSDJdNilbQ0gyXVtDSDJdW0NASF01W09IXQ==

>  <s_epik_cmdline>  (312) 
J2VwaWtfcHl0aG9uJywgJy1waHQnLCAnMi4wJywgJy1waCcsICc3LjAnLCAnLXRuJywgJzgnLCAnLW1hJywgJzIwMCcsICctaW1hZScsICc8aW5maWxlLm1hZT4nLCAnLW9tYWUnLCAnPG91dGZpbGUubWFlPic=

>  <r_lp_tautomer_probability>  (312) 
1

>  <r_epik_Ionization_Penalty>  (312) 
3.35019e-06

>  <r_epik_Ionization_Penalty_Charging>  (312) 
0

>  <r_epik_Ionization_Penalty_Neutral>  (312) 
3.35019e-06

>  <r_epik_State_Penalty>  (312) 
-0

>  <r_epik_Charging_Adjusted_Penalty>  (312) 
0

>  <i_epik_Tot_Q>  (312) 
0

>  <i_epik_Tot_abs_Q>  (312) 
0

>  <s_lp_Force_Field>  (312) 
OPLS3e

>  <r_lp_Energy>  (312) 
93.4943

>  <b_lp_Chiralities_Consistent>  (312) 
1

>  <s_lp_Variant>  (312) 
77:0-1

>  <s_i_glide_gridfile>  (312) 
pfpi4k_grid

>  <i_i_glide_lignum>  (312) 
40

>  <i_i_glide_rotatable_bonds>  (312) 
5

>  <r_i_docking_score>  (312) 
-3.42179

>  <r_i_glide_ligand_efficiency>  (312) 
-0.131607

>  <r_i_glide_ligand_efficiency_sa>  (312) 
-0.389886

>  <r_i_glide_ligand_efficiency_ln>  (312) 
-0.803595

>  <r_i_glide_gscore>  (312) 
-3.42179

>  <r_i_glide_lipo>  (312) 
-0.498128

>  <r_i_glide_hbond>  (312) 
0

>  <r_i_glide_metal>  (312) 
-0

>  <r_i_glide_rewards>  (312) 
-0.910578

>  <r_i_glide_evdw>  (312) 
-15.7885

>  <r_i_glide_ecoul>  (312) 
-8.15769

>  <r_i_glide_erotb>  (312) 
0

>  <r_i_glide_esite>  (312) 
0

>  <r_i_glide_emodel>  (312) 
-27.1277

>  <r_i_glide_energy>  (312) 
-23.9462

>  <r_i_glide_einternal>  (312) 
2.59539

>  <r_i_glide_intrahb_reward>  (312) 
-0

>  <i_i_glide_confnum>  (312) 
1

>  <i_i_glide_posenum>  (312) 
30

>  <r_i_glide_eff_state_penalty>  (312) 
0

>  <ligand_id>  (312) 
77

>  <original_smiles>  (312) 
CC1CC(O)C2(O)C(C1O)C13OC1C1(O)CC(C4CCC(O)C42C)C13C

>  <smiles>  (312) 
[H]OC1([H])C([H])(C([H])([H])[H])C([H])([H])C([H])(O[H])C2(O[H])C1([H])C13OC1([H])C1(O[H])C([H])([H])C([H])(C4([H])C([H])([H])C([H])([H])C([H])(O[H])C42C([H])([H])[H])C13C([H])([H])[H]

$$$$
77:0:1
     RDKit          3D

 56 61  0  0  1  0  0  0  0  0999 V2000
    3.9898   -1.2091   -1.8505 C   0  0  0  0  0  0  0  0  0  0  0  0
    4.8544   -2.2627   -1.1245 C   0  0  2  0  0  0  0  0  0  0  0  0
    4.1602   -3.6250   -1.0576 C   0  0  0  0  0  0  0  0  0  0  0  0
    2.9322   -3.6303   -0.1265 C   0  0  1  0  0  0  0  0  0  0  0  0
    2.2942   -4.8708   -0.2983 O   0  0  0  0  0  0  0  0  0  0  0  0
    3.2398   -3.2554    1.3804 C   0  0  2  0  0  0  0  0  0  0  0  0
    2.0364   -2.6802    1.8429 O   0  0  0  0  0  0  0  0  0  0  0  0
    4.1665   -1.9344    1.3511 C   0  0  2  0  0  0  0  0  0  0  0  0
    5.2962   -1.8080    0.2802 C   0  0  1  0  0  0  0  0  0  0  0  0
    6.4820   -2.4787    0.6491 O   0  0  0  0  0  0  0  0  0  0  0  0
    4.4847   -1.1697    2.6615 C   0  0  2  0  0  0  0  0  0  0  0  0
    4.9310    0.1415    2.4922 O   0  0  0  0  0  0  0  0  0  0  0  0
    5.8142   -0.6895    3.2577 C   0  0  1  0  0  0  0  0  0  0  0  0
    5.4053   -1.1440    4.6749 C   0  0  2  0  0  0  0  0  0  0  0  0
    5.3674   -0.0280    5.5414 O   0  0  0  0  0  0  0  0  0  0  0  0
    5.3950   -2.5475    5.3675 C   0  0  0  0  0  0  0  0  0  0  0  0
    4.6798   -3.0645    4.1469 C   0  0  1  0  0  0  0  0  0  0  0  0
    3.6665   -4.1264    3.8845 C   0  0  2  0  0  0  0  0  0  0  0  0
    3.7722   -5.4213    4.6748 C   0  0  0  0  0  0  0  0  0  0  0  0
    2.9906   -6.4312    3.8148 C   0  0  0  0  0  0  0  0  0  0  0  0
    2.5705   -5.6891    2.5200 C   0  0  1  0  0  0  0  0  0  0  0  0
    1.2129   -5.3182    2.7031 O   0  0  0  0  0  0  0  0  0  0  0  0
    3.5851   -4.4955    2.3644 C   0  0  1  0  0  0  0  0  0  0  0  0
    4.8896   -5.1772    1.8688 C   0  0  0  0  0  0  0  0  0  0  0  0
    4.1232   -1.6668    3.9910 C   0  0  2  0  0  0  0  0  0  0  0  0
    2.7817   -1.1702    4.5592 C   0  0  0  0  0  0  0  0  0  0  0  0
    3.0601   -0.9984   -1.3210 H   0  0  0  0  0  0  0  0  0  0  0  0
    3.7161   -1.5496   -2.8519 H   0  0  0  0  0  0  0  0  0  0  0  0
    4.5267   -0.2663   -1.9597 H   0  0  0  0  0  0  0  0  0  0  0  0
    5.7487   -2.3752   -1.7352 H   0  0  0  0  0  0  0  0  0  0  0  0
    3.8628   -3.9008   -2.0736 H   0  0  0  0  0  0  0  0  0  0  0  0
    4.8825   -4.3850   -0.7682 H   0  0  0  0  0  0  0  0  0  0  0  0
    2.2353   -2.9048   -0.5359 H   0  0  0  0  0  0  0  0  0  0  0  0
    2.4668   -5.1781   -1.2096 H   0  0  0  0  0  0  0  0  0  0  0  0
    1.7495   -2.0458    1.2019 H   0  0  0  0  0  0  0  0  0  0  0  0
    3.4842   -1.1955    0.9143 H   0  0  0  0  0  0  0  0  0  0  0  0
    5.5812   -0.7584    0.2108 H   0  0  0  0  0  0  0  0  0  0  0  0
    6.2894   -3.3984    0.7018 H   0  0  0  0  0  0  0  0  0  0  0  0
    6.7910   -0.8980    2.8464 H   0  0  0  0  0  0  0  0  0  0  0  0
    4.8204   -0.2827    6.2729 H   0  0  0  0  0  0  0  0  0  0  0  0
    6.3588   -3.0125    5.5376 H   0  0  0  0  0  0  0  0  0  0  0  0
    4.8097   -2.6075    6.2769 H   0  0  0  0  0  0  0  0  0  0  0  0
    5.5258   -3.2303    3.4632 H   0  0  0  0  0  0  0  0  0  0  0  0
    2.6839   -3.7392    4.1569 H   0  0  0  0  0  0  0  0  0  0  0  0
    4.8089   -5.7328    4.7980 H   0  0  0  0  0  0  0  0  0  0  0  0
    3.3362   -5.3078    5.6700 H   0  0  0  0  0  0  0  0  0  0  0  0
    3.6413   -7.2709    3.5623 H   0  0  0  0  0  0  0  0  0  0  0  0
    2.1340   -6.8463    4.3491 H   0  0  0  0  0  0  0  0  0  0  0  0
    2.6023   -6.3773    1.6712 H   0  0  0  0  0  0  0  0  0  0  0  0
    1.1852   -4.6402    3.3572 H   0  0  0  0  0  0  0  0  0  0  0  0
    5.2899   -5.9104    2.5648 H   0  0  0  0  0  0  0  0  0  0  0  0
    5.6969   -4.4850    1.6906 H   0  0  0  0  0  0  0  0  0  0  0  0
    4.7086   -5.7229    0.9448 H   0  0  0  0  0  0  0  0  0  0  0  0
    2.6482   -1.4893    5.5989 H   0  0  0  0  0  0  0  0  0  0  0  0
    1.9287   -1.5520    3.9989 H   0  0  0  0  0  0  0  0  0  0  0  0
    2.7255   -0.0797    4.5262 H   0  0  0  0  0  0  0  0  0  0  0  0
  1  2  1  0
  1 27  1  0
  1 28  1  0
  1 29  1  0
  2  9  1  0
  2  3  1  0
  2 30  1  6
  3  4  1  0
  3 31  1  0
  3 32  1  0
  4  5  1  0
  4  6  1  0
  4 33  1  6
  5 34  1  0
  6 23  1  0
  6  7  1  1
  6  8  1  0
  7 35  1  0
  8  9  1  0
  8 11  1  0
  8 36  1  6
  9 10  1  0
  9 37  1  6
 10 38  1  0
 11 13  1  0
 11 25  1  0
 11 12  1  6
 12 13  1  0
 13 14  1  0
 13 39  1  6
 14 25  1  0
 14 15  1  1
 14 16  1  0
 15 40  1  0
 16 17  1  0
 16 41  1  0
 16 42  1  0
 17 18  1  0
 17 25  1  0
 17 43  1  6
 18 23  1  0
 18 19  1  0
 18 44  1  1
 19 20  1  0
 19 45  1  0
 19 46  1  0
 20 21  1  0
 20 47  1  0
 20 48  1  0
 21 22  1  0
 21 23  1  0
 21 49  1  6
 22 50  1  0
 23 24  1  6
 24 51  1  0
 24 52  1  0
 24 53  1  0
 25 26  1  1
 26 54  1  0
 26 55  1  0
 26 56  1  0
M  END
>  <i_m_ct_stereo_status>  (313) 
1

>  <s_m_source_file>  (313) 
/var/tmp/pbs.5076255.sched01/tmpfes5ahby/80lk6pwr5_.sdf

>  <i_m_source_file_index>  (313) 
40

>  <i_lp_mmshare_version>  (313) 
48012

>  <i_f3d_flags>  (313) 
0

>  <s_epik_input>  (313) 
W09IXVtDQEhdMVtDQEhdKFtDSDNdKVtDSDJdW0NAQEhdKFtPSF0pW0NAXShbT0hdKShbQ0BIXTFbQ0BdMjM0KVtDQEBdNShbQ0gzXSlbQ0BIXShbQ0BIXTZbQ0BAXTQoW0NIM10pW0NAQF0oW0NAQEhdM08yKShbT0hdKVtDSDJdNilbQ0gyXVtDSDJdW0NASF01W09IXQ==

>  <s_epik_cmdline>  (313) 
J2VwaWtfcHl0aG9uJywgJy1waHQnLCAnMi4wJywgJy1waCcsICc3LjAnLCAnLXRuJywgJzgnLCAnLW1hJywgJzIwMCcsICctaW1hZScsICc8aW5maWxlLm1hZT4nLCAnLW9tYWUnLCAnPG91dGZpbGUubWFlPic=

>  <r_lp_tautomer_probability>  (313) 
1

>  <r_epik_Ionization_Penalty>  (313) 
3.35019e-06

>  <r_epik_Ionization_Penalty_Charging>  (313) 
0

>  <r_epik_Ionization_Penalty_Neutral>  (313) 
3.35019e-06

>  <r_epik_State_Penalty>  (313) 
-0

>  <r_epik_Charging_Adjusted_Penalty>  (313) 
0

>  <i_epik_Tot_Q>  (313) 
0

>  <i_epik_Tot_abs_Q>  (313) 
0

>  <s_lp_Force_Field>  (313) 
OPLS3e

>  <r_lp_Energy>  (313) 
93.4943

>  <b_lp_Chiralities_Consistent>  (313) 
1

>  <s_lp_Variant>  (313) 
77:0-1

>  <s_i_glide_gridfile>  (313) 
pfpi4k_grid

>  <i_i_glide_lignum>  (313) 
40

>  <i_i_glide_rotatable_bonds>  (313) 
5

>  <r_i_docking_score>  (313) 
-3.12831

>  <r_i_glide_ligand_efficiency>  (313) 
-0.12032

>  <r_i_glide_ligand_efficiency_sa>  (313) 
-0.356447

>  <r_i_glide_ligand_efficiency_ln>  (313) 
-0.734674

>  <r_i_glide_gscore>  (313) 
-3.12831

>  <r_i_glide_lipo>  (313) 
-0.305187

>  <r_i_glide_hbond>  (313) 
-0.125158

>  <r_i_glide_metal>  (313) 
-0

>  <r_i_glide_rewards>  (313) 
-0.910578

>  <r_i_glide_evdw>  (313) 
-12.6806

>  <r_i_glide_ecoul>  (313) 
-7.68905

>  <r_i_glide_erotb>  (313) 
0

>  <r_i_glide_esite>  (313) 
0

>  <r_i_glide_emodel>  (313) 
-24.1443

>  <r_i_glide_energy>  (313) 
-20.3697

>  <r_i_glide_einternal>  (313) 
0.906674

>  <r_i_glide_intrahb_reward>  (313) 
-0

>  <i_i_glide_confnum>  (313) 
1

>  <i_i_glide_posenum>  (313) 
19

>  <r_i_glide_eff_state_penalty>  (313) 
0

>  <ligand_id>  (313) 
77

>  <original_smiles>  (313) 
CC1CC(O)C2(O)C(C1O)C13OC1C1(O)CC(C4CCC(O)C42C)C13C

>  <smiles>  (313) 
[H]OC1([H])C([H])(C([H])([H])[H])C([H])([H])C([H])(O[H])C2(O[H])C1([H])C13OC1([H])C1(O[H])C([H])([H])C([H])(C4([H])C([H])([H])C([H])([H])C([H])(O[H])C42C([H])([H])[H])C13C([H])([H])[H]

$$$$
77:0:2
     RDKit          3D

 56 61  0  0  1  0  0  0  0  0999 V2000
    3.8432   -1.0364   -2.5731 C   0  0  0  0  0  0  0  0  0  0  0  0
    4.9568   -1.3135   -1.5442 C   0  0  2  0  0  0  0  0  0  0  0  0
    5.3577   -2.7983   -1.5109 C   0  0  0  0  0  0  0  0  0  0  0  0
    4.2432   -3.6718   -0.8926 C   0  0  1  0  0  0  0  0  0  0  0  0
    4.6234   -4.9969   -1.0797 O   0  0  0  0  0  0  0  0  0  0  0  0
    3.8378   -3.3135    0.5896 C   0  0  2  0  0  0  0  0  0  0  0  0
    2.5345   -3.8329    0.6088 O   0  0  0  0  0  0  0  0  0  0  0  0
    3.6086   -1.7001    0.6569 C   0  0  2  0  0  0  0  0  0  0  0  0
    4.6315   -0.8233   -0.1220 C   0  0  1  0  0  0  0  0  0  0  0  0
    5.8421   -0.6578    0.5703 O   0  0  0  0  0  0  0  0  0  0  0  0
    2.9931   -0.9849    1.9031 C   0  0  2  0  0  0  0  0  0  0  0  0
    2.5026    0.3483    1.7816 O   0  0  0  0  0  0  0  0  0  0  0  0
    3.5036    0.1648    2.7966 C   0  0  1  0  0  0  0  0  0  0  0  0
    3.1610   -0.6170    4.0814 C   0  0  2  0  0  0  0  0  0  0  0  0
    2.2065    0.0620    4.8348 O   0  0  0  0  0  0  0  0  0  0  0  0
    3.9445   -1.7410    4.8601 C   0  0  0  0  0  0  0  0  0  0  0  0
    4.0559   -2.4604    3.5548 C   0  0  1  0  0  0  0  0  0  0  0  0
    4.0944   -3.9188    3.1786 C   0  0  2  0  0  0  0  0  0  0  0  0
    4.8214   -4.8936    4.1049 C   0  0  0  0  0  0  0  0  0  0  0  0
    5.1294   -6.0972    3.1932 C   0  0  0  0  0  0  0  0  0  0  0  0
    4.6731   -5.6994    1.7613 C   0  0  1  0  0  0  0  0  0  0  0  0
    3.4335   -6.3212    1.5322 O   0  0  0  0  0  0  0  0  0  0  0  0
    4.6537   -4.1210    1.7435 C   0  0  1  0  0  0  0  0  0  0  0  0
    6.1552   -3.7597    1.6451 C   0  0  0  0  0  0  0  0  0  0  0  0
    2.7571   -1.7530    3.1498 C   0  0  2  0  0  0  0  0  0  0  0  0
    1.3664   -2.3388    3.3250 C   0  0  0  0  0  0  0  0  0  0  0  0
    2.8943   -1.5008   -2.2989 H   0  0  0  0  0  0  0  0  0  0  0  0
    4.1284   -1.4060   -3.5588 H   0  0  0  0  0  0  0  0  0  0  0  0
    3.6747    0.0338   -2.6783 H   0  0  0  0  0  0  0  0  0  0  0  0
    5.8166   -0.7539   -1.8961 H   0  0  0  0  0  0  0  0  0  0  0  0
    5.5813   -3.1341   -2.5218 H   0  0  0  0  0  0  0  0  0  0  0  0
    6.2922   -2.9117   -0.9712 H   0  0  0  0  0  0  0  0  0  0  0  0
    3.3756   -3.5333   -1.5446 H   0  0  0  0  0  0  0  0  0  0  0  0
    4.0202   -5.4175   -1.6948 H   0  0  0  0  0  0  0  0  0  0  0  0
    2.0954   -3.4433   -0.1385 H   0  0  0  0  0  0  0  0  0  0  0  0
    2.7614   -1.6075   -0.0081 H   0  0  0  0  0  0  0  0  0  0  0  0
    4.2149    0.1737   -0.2084 H   0  0  0  0  0  0  0  0  0  0  0  0
    5.6488   -0.2641    1.4127 H   0  0  0  0  0  0  0  0  0  0  0  0
    4.4949    0.5690    2.6640 H   0  0  0  0  0  0  0  0  0  0  0  0
    1.7628    0.5927    4.1914 H   0  0  0  0  0  0  0  0  0  0  0  0
    4.9000   -1.4401    5.2957 H   0  0  0  0  0  0  0  0  0  0  0  0
    3.3408   -2.2339    5.6146 H   0  0  0  0  0  0  0  0  0  0  0  0
    4.9399   -1.9797    3.1270 H   0  0  0  0  0  0  0  0  0  0  0  0
    3.0777   -4.3122    3.1602 H   0  0  0  0  0  0  0  0  0  0  0  0
    5.7407   -4.4690    4.5069 H   0  0  0  0  0  0  0  0  0  0  0  0
    4.1899   -5.1857    4.9491 H   0  0  0  0  0  0  0  0  0  0  0  0
    6.2061   -6.2869    3.1890 H   0  0  0  0  0  0  0  0  0  0  0  0
    4.6441   -7.0148    3.5314 H   0  0  0  0  0  0  0  0  0  0  0  0
    5.3655   -6.1155    1.0270 H   0  0  0  0  0  0  0  0  0  0  0  0
    3.1526   -6.0642    0.6632 H   0  0  0  0  0  0  0  0  0  0  0  0
    6.7086   -4.1463    2.4739 H   0  0  0  0  0  0  0  0  0  0  0  0
    6.3461   -2.6963    1.6142 H   0  0  0  0  0  0  0  0  0  0  0  0
    6.6055   -4.1960    0.7499 H   0  0  0  0  0  0  0  0  0  0  0  0
    1.2387   -2.7597    4.3337 H   0  0  0  0  0  0  0  0  0  0  0  0
    1.1850   -3.1427    2.6058 H   0  0  0  0  0  0  0  0  0  0  0  0
    0.6194   -1.5657    3.1707 H   0  0  0  0  0  0  0  0  0  0  0  0
  1  2  1  0
  1 27  1  0
  1 28  1  0
  1 29  1  0
  2  9  1  0
  2  3  1  0
  2 30  1  6
  3  4  1  0
  3 31  1  0
  3 32  1  0
  4  5  1  0
  4  6  1  0
  4 33  1  6
  5 34  1  0
  6 23  1  0
  6  7  1  6
  6  8  1  0
  7 35  1  0
  8  9  1  0
  8 11  1  0
  8 36  1  6
  9 10  1  0
  9 37  1  6
 10 38  1  0
 11 13  1  0
 11 25  1  0
 11 12  1  6
 12 13  1  0
 13 14  1  0
 13 39  1  6
 14 25  1  0
 14 15  1  1
 14 16  1  0
 15 40  1  0
 16 17  1  0
 16 41  1  0
 16 42  1  0
 17 18  1  0
 17 25  1  0
 17 43  1  6
 18 23  1  0
 18 19  1  0
 18 44  1  6
 19 20  1  0
 19 45  1  0
 19 46  1  0
 20 21  1  0
 20 47  1  0
 20 48  1  0
 21 22  1  0
 21 23  1  0
 21 49  1  6
 22 50  1  0
 23 24  1  1
 24 51  1  0
 24 52  1  0
 24 53  1  0
 25 26  1  1
 26 54  1  0
 26 55  1  0
 26 56  1  0
M  END
>  <i_m_ct_stereo_status>  (314) 
1

>  <s_m_source_file>  (314) 
/var/tmp/pbs.5076255.sched01/tmpfes5ahby/80lk6pwr5_.sdf

>  <i_m_source_file_index>  (314) 
40

>  <i_lp_mmshare_version>  (314) 
48012

>  <i_f3d_flags>  (314) 
0

>  <s_epik_input>  (314) 
W09IXVtDQEhdMVtDQEhdKFtDSDNdKVtDSDJdW0NAQEhdKFtPSF0pW0NAXShbT0hdKShbQ0BIXTFbQ0BdMjM0KVtDQEBdNShbQ0gzXSlbQ0BIXShbQ0BIXTZbQ0BAXTQoW0NIM10pW0NAQF0oW0NAQEhdM08yKShbT0hdKVtDSDJdNilbQ0gyXVtDSDJdW0NASF01W09IXQ==

>  <s_epik_cmdline>  (314) 
J2VwaWtfcHl0aG9uJywgJy1waHQnLCAnMi4wJywgJy1waCcsICc3LjAnLCAnLXRuJywgJzgnLCAnLW1hJywgJzIwMCcsICctaW1hZScsICc8aW5maWxlLm1hZT4nLCAnLW9tYWUnLCAnPG91dGZpbGUubWFlPic=

>  <r_lp_tautomer_probability>  (314) 
1

>  <r_epik_Ionization_Penalty>  (314) 
3.35019e-06

>  <r_epik_Ionization_Penalty_Charging>  (314) 
0

>  <r_epik_Ionization_Penalty_Neutral>  (314) 
3.35019e-06

>  <r_epik_State_Penalty>  (314) 
-0

>  <r_epik_Charging_Adjusted_Penalty>  (314) 
0

>  <i_epik_Tot_Q>  (314) 
0

>  <i_epik_Tot_abs_Q>  (314) 
0

>  <s_lp_Force_Field>  (314) 
OPLS3e

>  <r_lp_Energy>  (314) 
93.4943

>  <b_lp_Chiralities_Consistent>  (314) 
1

>  <s_lp_Variant>  (314) 
77:0-1

>  <s_i_glide_gridfile>  (314) 
pfpi4k_grid

>  <i_i_glide_lignum>  (314) 
40

>  <i_i_glide_rotatable_bonds>  (314) 
5

>  <r_i_docking_score>  (314) 
-2.85952

>  <r_i_glide_ligand_efficiency>  (314) 
-0.109982

>  <r_i_glide_ligand_efficiency_sa>  (314) 
-0.32582

>  <r_i_glide_ligand_efficiency_ln>  (314) 
-0.671549

>  <r_i_glide_gscore>  (314) 
-2.85952

>  <r_i_glide_lipo>  (314) 
-0.18774

>  <r_i_glide_hbond>  (314) 
0

>  <r_i_glide_metal>  (314) 
-0

>  <r_i_glide_rewards>  (314) 
-0.910578

>  <r_i_glide_evdw>  (314) 
-14.9288

>  <r_i_glide_ecoul>  (314) 
-6.7651

>  <r_i_glide_erotb>  (314) 
0

>  <r_i_glide_esite>  (314) 
0

>  <r_i_glide_emodel>  (314) 
-24.1586

>  <r_i_glide_energy>  (314) 
-21.6939

>  <r_i_glide_einternal>  (314) 
3.00954

>  <r_i_glide_intrahb_reward>  (314) 
-0

>  <i_i_glide_confnum>  (314) 
1

>  <i_i_glide_posenum>  (314) 
13

>  <r_i_glide_eff_state_penalty>  (314) 
0

>  <ligand_id>  (314) 
77

>  <original_smiles>  (314) 
CC1CC(O)C2(O)C(C1O)C13OC1C1(O)CC(C4CCC(O)C42C)C13C

>  <smiles>  (314) 
[H]OC1([H])C([H])(C([H])([H])[H])C([H])([H])C([H])(O[H])C2(O[H])C1([H])C13OC1([H])C1(O[H])C([H])([H])C([H])(C4([H])C([H])([H])C([H])([H])C([H])(O[H])C42C([H])([H])[H])C13C([H])([H])[H]

$$$$
78:0:0
     RDKit          3D

 41 44  0  0  1  0  0  0  0  0999 V2000
    5.1696   -5.1398    1.5209 O   0  0  0  0  0  0  0  0  0  0  0  0
    4.1416   -4.6472    1.0462 C   0  0  0  0  0  0  0  0  0  0  0  0
    2.7792   -5.0768    1.6298 C   0  0  2  0  0  0  0  0  0  0  0  0
    2.9720   -5.6105    2.9462 O   0  0  0  0  0  0  0  0  0  0  0  0
    2.2156   -6.7769    3.0941 C   0  0  1  0  0  0  0  0  0  0  0  0
    1.4362   -6.7417    4.3648 N   0  0  0  0  0  0  0  0  0  0  0  0
    1.0984   -7.8008    5.1276 C   0  0  0  0  0  0  0  0  0  0  0  0
    0.3652   -7.5527    6.2162 N   0  0  0  0  0  0  0  0  0  0  0  0
    0.2144   -6.1783    6.1371 C   0  0  0  0  0  0  0  0  0  0  0  0
   -0.4617   -5.2481    6.9546 C   0  0  0  0  0  0  0  0  0  0  0  0
   -0.4561   -3.9407    6.6013 N   0  0  0  0  0  0  0  0  0  0  0  0
    0.2162   -3.5784    5.4989 C   0  0  0  0  0  0  0  0  0  0  0  0
    0.8921   -4.3323    4.6345 N   0  0  0  0  0  0  0  0  0  0  0  0
    0.8758   -5.6495    4.9949 C   0  0  0  0  0  0  0  0  0  0  0  0
    1.3126   -6.9341    1.8687 C   0  0  1  0  0  0  0  0  0  0  0  0
    0.0372   -6.3386    2.0350 O   0  0  0  0  0  0  0  0  0  0  0  0
    2.1655   -6.2403    0.8404 C   0  0  1  0  0  0  0  0  0  0  0  0
    1.3947   -5.8565   -0.2850 O   0  0  0  0  0  0  0  0  0  0  0  0
    4.1798   -3.7363    0.0421 N   0  0  0  0  0  0  0  0  0  0  0  0
    3.0084   -3.0158   -0.4764 C   0  0  0  0  0  0  0  0  0  0  0  0
    3.0833   -2.8527   -2.0064 C   0  0  0  0  0  0  0  0  0  0  0  0
    4.3062   -2.2334   -2.3880 O   0  0  0  0  0  0  0  0  0  0  0  0
    5.4220   -3.0216   -1.9976 C   0  0  0  0  0  0  0  0  0  0  0  0
    5.4565   -3.2084   -0.4660 C   0  0  0  0  0  0  0  0  0  0  0  0
    2.0804   -4.2435    1.7034 H   0  0  0  0  0  0  0  0  0  0  0  0
    2.9288   -7.5894    3.1971 H   0  0  0  0  0  0  0  0  0  0  0  0
    1.3987   -8.8105    4.8599 H   0  0  0  0  0  0  0  0  0  0  0  0
   -1.0004   -5.5403    7.8463 H   0  0  0  0  0  0  0  0  0  0  0  0
    0.1893   -2.5267    5.2650 H   0  0  0  0  0  0  0  0  0  0  0  0
    1.1557   -7.9848    1.6387 H   0  0  0  0  0  0  0  0  0  0  0  0
   -0.3784   -6.7602    2.7723 H   0  0  0  0  0  0  0  0  0  0  0  0
    2.9438   -6.9331    0.5109 H   0  0  0  0  0  0  0  0  0  0  0  0
    1.9865   -5.6679   -1.0038 H   0  0  0  0  0  0  0  0  0  0  0  0
    2.0590   -3.5001   -0.2523 H   0  0  0  0  0  0  0  0  0  0  0  0
    2.9800   -2.0373    0.0029 H   0  0  0  0  0  0  0  0  0  0  0  0
    2.9800   -3.8143   -2.5121 H   0  0  0  0  0  0  0  0  0  0  0  0
    2.2482   -2.2436   -2.3474 H   0  0  0  0  0  0  0  0  0  0  0  0
    5.3920   -3.9832   -2.5193 H   0  0  0  0  0  0  0  0  0  0  0  0
    6.3253   -2.5050   -2.3247 H   0  0  0  0  0  0  0  0  0  0  0  0
    5.6322   -2.2542    0.0287 H   0  0  0  0  0  0  0  0  0  0  0  0
    6.3026   -3.8536   -0.2226 H   0  0  0  0  0  0  0  0  0  0  0  0
  1  2  2  0
  2  3  1  0
  2 19  1  0
  3 17  1  0
  3  4  1  0
  3 25  1  1
  4  5  1  0
  5  6  1  0
  5 15  1  0
  5 26  1  1
  6 14  1  0
  6  7  1  0
  7  8  2  0
  7 27  1  0
  8  9  1  0
  9 14  2  0
  9 10  1  0
 10 11  2  0
 10 28  1  0
 11 12  1  0
 12 13  2  0
 12 29  1  0
 13 14  1  0
 15 16  1  0
 15 17  1  0
 15 30  1  6
 16 31  1  0
 17 18  1  0
 17 32  1  6
 18 33  1  0
 19 24  1  0
 19 20  1  0
 20 21  1  0
 20 34  1  0
 20 35  1  0
 21 22  1  0
 21 36  1  0
 21 37  1  0
 22 23  1  0
 23 24  1  0
 23 38  1  0
 23 39  1  0
 24 40  1  0
 24 41  1  0
M  END
>  <i_m_ct_stereo_status>  (315) 
1

>  <s_m_source_file>  (315) 
/var/tmp/pbs.5076255.sched01/tmp6w_bron9/120d4r_aq7a.sdf

>  <i_m_source_file_index>  (315) 
1

>  <i_lp_mmshare_version>  (315) 
48012

>  <i_f3d_flags>  (315) 
0

>  <s_epik_input>  (315) 
W0NIMl0xW0NIMl1PW0NIMl1bQ0gyXU4xQyg9TylbQ0BASF0yT1tDQEhdKFtDQEBIXShbT0hdKVtDQEhdMltPSF0pbihbY0hdbjMpYyhjMzQpbltjSF1uW2NIXTQ=

>  <s_epik_cmdline>  (315) 
J2VwaWtfcHl0aG9uJywgJy1waHQnLCAnMi4wJywgJy1waCcsICc3LjAnLCAnLXRuJywgJzgnLCAnLW1hJywgJzIwMCcsICctaW1hZScsICc8aW5maWxlLm1hZT4nLCAnLW9tYWUnLCAnPG91dGZpbGUubWFlPic=

>  <r_lp_tautomer_probability>  (315) 
1

>  <r_epik_Ionization_Penalty>  (315) 
6.30932e-05

>  <r_epik_Ionization_Penalty_Charging>  (315) 
0

>  <r_epik_Ionization_Penalty_Neutral>  (315) 
6.30932e-05

>  <r_epik_State_Penalty>  (315) 
-0

>  <r_epik_Charging_Adjusted_Penalty>  (315) 
0

>  <i_epik_Tot_Q>  (315) 
0

>  <i_epik_Tot_abs_Q>  (315) 
0

>  <s_epik_Chemistry_Notes>  (315) 
This compound contains an acetal/aminal-like group ( X-CH(R)-Y where X, Y are N, S, or O) that may be acid/base labile, releasing an aldehyde.

>  <s_lp_Force_Field>  (315) 
OPLS3e

>  <r_lp_Energy>  (315) 
40.0469

>  <b_lp_Chiralities_Consistent>  (315) 
1

>  <s_lp_Variant>  (315) 
78:0-1

>  <s_i_glide_gridfile>  (315) 
pfpi4k_grid

>  <i_i_glide_lignum>  (315) 
1

>  <i_i_glide_rotatable_bonds>  (315) 
5

>  <r_i_docking_score>  (315) 
-3.69894

>  <r_i_glide_ligand_efficiency>  (315) 
-0.154123

>  <r_i_glide_ligand_efficiency_sa>  (315) 
-0.444567

>  <r_i_glide_ligand_efficiency_ln>  (315) 
-0.885327

>  <r_i_glide_gscore>  (315) 
-3.69894

>  <r_i_glide_lipo>  (315) 
-0.207848

>  <r_i_glide_hbond>  (315) 
0

>  <r_i_glide_metal>  (315) 
-0

>  <r_i_glide_rewards>  (315) 
-1.17696

>  <r_i_glide_evdw>  (315) 
-22.9625

>  <r_i_glide_ecoul>  (315) 
-10.9041

>  <r_i_glide_erotb>  (315) 
0.503535

>  <r_i_glide_esite>  (315) 
-0.0339276

>  <r_i_glide_emodel>  (315) 
-40.8118

>  <r_i_glide_energy>  (315) 
-33.8666

>  <r_i_glide_einternal>  (315) 
2.94067

>  <r_i_glide_intrahb_reward>  (315) 
-0

>  <i_i_glide_confnum>  (315) 
4

>  <i_i_glide_posenum>  (315) 
39

>  <r_i_glide_eff_state_penalty>  (315) 
0

>  <ligand_id>  (315) 
78

>  <original_smiles>  (315) 
O=C(C1OC(n2cnc3cncnc32)C(O)C1O)N1CCOCC1

>  <smiles>  (315) 
[H]OC1([H])C([H])(C(=O)N2C([H])([H])C([H])([H])OC([H])([H])C2([H])[H])OC([H])(n2c([H])nc3c([H])nc([H])nc32)C1([H])O[H]

$$$$
78:0:1
     RDKit          3D

 41 44  0  0  1  0  0  0  0  0999 V2000
    2.6329   -3.5559    0.3425 O   0  0  0  0  0  0  0  0  0  0  0  0
    3.5797   -2.9289    0.8188 C   0  0  0  0  0  0  0  0  0  0  0  0
    3.2935   -1.7394    1.7532 C   0  0  2  0  0  0  0  0  0  0  0  0
    1.9424   -1.8141    2.2298 O   0  0  0  0  0  0  0  0  0  0  0  0
    1.3224   -0.5682    2.0875 C   0  0  1  0  0  0  0  0  0  0  0  0
    0.5887   -0.2304    3.3340 N   0  0  0  0  0  0  0  0  0  0  0  0
    0.6291   -0.8371    4.5373 C   0  0  0  0  0  0  0  0  0  0  0  0
   -0.1416   -0.3252    5.5033 N   0  0  0  0  0  0  0  0  0  0  0  0
   -0.7258    0.7405    4.8410 C   0  0  0  0  0  0  0  0  0  0  0  0
   -1.6400    1.7362    5.2539 C   0  0  0  0  0  0  0  0  0  0  0  0
   -2.0441    2.6639    4.3577 N   0  0  0  0  0  0  0  0  0  0  0  0
   -1.5665    2.6052    3.1049 C   0  0  0  0  0  0  0  0  0  0  0  0
   -0.7066    1.7331    2.5740 N   0  0  0  0  0  0  0  0  0  0  0  0
   -0.2976    0.8162    3.4898 C   0  0  0  0  0  0  0  0  0  0  0  0
    2.4044    0.4631    1.7605 C   0  0  1  0  0  0  0  0  0  0  0  0
    3.0088    1.0274    2.9154 O   0  0  0  0  0  0  0  0  0  0  0  0
    3.3575   -0.4147    0.9801 C   0  0  1  0  0  0  0  0  0  0  0  0
    4.6499    0.1404    0.8926 O   0  0  0  0  0  0  0  0  0  0  0  0
    4.8682   -3.2403    0.5276 N   0  0  0  0  0  0  0  0  0  0  0  0
    5.2083   -4.0970   -0.6200 C   0  0  0  0  0  0  0  0  0  0  0  0
    5.9882   -3.2525   -1.6482 C   0  0  0  0  0  0  0  0  0  0  0  0
    7.1666   -2.7216   -1.0413 O   0  0  0  0  0  0  0  0  0  0  0  0
    6.8560   -1.8710    0.0585 C   0  0  0  0  0  0  0  0  0  0  0  0
    6.0583   -2.6343    1.1422 C   0  0  0  0  0  0  0  0  0  0  0  0
    3.9545   -1.7247    2.6183 H   0  0  0  0  0  0  0  0  0  0  0  0
    0.5685   -0.6391    1.3063 H   0  0  0  0  0  0  0  0  0  0  0  0
    1.2621   -1.6985    4.7052 H   0  0  0  0  0  0  0  0  0  0  0  0
   -2.0381    1.7799    6.2556 H   0  0  0  0  0  0  0  0  0  0  0  0
   -1.9273    3.3693    2.4342 H   0  0  0  0  0  0  0  0  0  0  0  0
    1.9804    1.2714    1.1700 H   0  0  0  0  0  0  0  0  0  0  0  0
    3.7077    1.6115    2.6413 H   0  0  0  0  0  0  0  0  0  0  0  0
    2.9935   -0.5599   -0.0384 H   0  0  0  0  0  0  0  0  0  0  0  0
    4.6398    0.8667    0.2909 H   0  0  0  0  0  0  0  0  0  0  0  0
    5.7977   -4.9489   -0.2891 H   0  0  0  0  0  0  0  0  0  0  0  0
    4.3358   -4.5202   -1.1174 H   0  0  0  0  0  0  0  0  0  0  0  0
    6.2833   -3.8593   -2.5041 H   0  0  0  0  0  0  0  0  0  0  0  0
    5.3576   -2.4464   -2.0359 H   0  0  0  0  0  0  0  0  0  0  0  0
    7.7605   -1.4407    0.4881 H   0  0  0  0  0  0  0  0  0  0  0  0
    6.2828   -1.0448   -0.3533 H   0  0  0  0  0  0  0  0  0  0  0  0
    5.8299   -1.9544    1.9580 H   0  0  0  0  0  0  0  0  0  0  0  0
    6.6806   -3.4375    1.5576 H   0  0  0  0  0  0  0  0  0  0  0  0
  1  2  2  0
  2  3  1  0
  2 19  1  0
  3 17  1  0
  3  4  1  0
  3 25  1  1
  4  5  1  0
  5  6  1  0
  5 15  1  0
  5 26  1  6
  6 14  1  0
  6  7  1  0
  7  8  2  0
  7 27  1  0
  8  9  1  0
  9 14  2  0
  9 10  1  0
 10 11  2  0
 10 28  1  0
 11 12  1  0
 12 13  2  0
 12 29  1  0
 13 14  1  0
 15 16  1  0
 15 17  1  0
 15 30  1  6
 16 31  1  0
 17 18  1  0
 17 32  1  6
 18 33  1  0
 19 24  1  0
 19 20  1  0
 20 21  1  0
 20 34  1  0
 20 35  1  0
 21 22  1  0
 21 36  1  0
 21 37  1  0
 22 23  1  0
 23 24  1  0
 23 38  1  0
 23 39  1  0
 24 40  1  0
 24 41  1  0
M  END
>  <i_m_ct_stereo_status>  (316) 
1

>  <s_m_source_file>  (316) 
/var/tmp/pbs.5076255.sched01/tmp6w_bron9/120d4r_aq7a.sdf

>  <i_m_source_file_index>  (316) 
1

>  <i_lp_mmshare_version>  (316) 
48012

>  <i_f3d_flags>  (316) 
0

>  <s_epik_input>  (316) 
W0NIMl0xW0NIMl1PW0NIMl1bQ0gyXU4xQyg9TylbQ0BASF0yT1tDQEhdKFtDQEBIXShbT0hdKVtDQEhdMltPSF0pbihbY0hdbjMpYyhjMzQpbltjSF1uW2NIXTQ=

>  <s_epik_cmdline>  (316) 
J2VwaWtfcHl0aG9uJywgJy1waHQnLCAnMi4wJywgJy1waCcsICc3LjAnLCAnLXRuJywgJzgnLCAnLW1hJywgJzIwMCcsICctaW1hZScsICc8aW5maWxlLm1hZT4nLCAnLW9tYWUnLCAnPG91dGZpbGUubWFlPic=

>  <r_lp_tautomer_probability>  (316) 
1

>  <r_epik_Ionization_Penalty>  (316) 
6.30932e-05

>  <r_epik_Ionization_Penalty_Charging>  (316) 
0

>  <r_epik_Ionization_Penalty_Neutral>  (316) 
6.30932e-05

>  <r_epik_State_Penalty>  (316) 
-0

>  <r_epik_Charging_Adjusted_Penalty>  (316) 
0

>  <i_epik_Tot_Q>  (316) 
0

>  <i_epik_Tot_abs_Q>  (316) 
0

>  <s_epik_Chemistry_Notes>  (316) 
This compound contains an acetal/aminal-like group ( X-CH(R)-Y where X, Y are N, S, or O) that may be acid/base labile, releasing an aldehyde.

>  <s_lp_Force_Field>  (316) 
OPLS3e

>  <r_lp_Energy>  (316) 
40.0469

>  <b_lp_Chiralities_Consistent>  (316) 
1

>  <s_lp_Variant>  (316) 
78:0-1

>  <s_i_glide_gridfile>  (316) 
pfpi4k_grid

>  <i_i_glide_lignum>  (316) 
1

>  <i_i_glide_rotatable_bonds>  (316) 
5

>  <r_i_docking_score>  (316) 
-3.43785

>  <r_i_glide_ligand_efficiency>  (316) 
-0.143244

>  <r_i_glide_ligand_efficiency_sa>  (316) 
-0.413186

>  <r_i_glide_ligand_efficiency_ln>  (316) 
-0.822835

>  <r_i_glide_gscore>  (316) 
-3.43785

>  <r_i_glide_lipo>  (316) 
-0.300739

>  <r_i_glide_hbond>  (316) 
-0.0578963

>  <r_i_glide_metal>  (316) 
-0

>  <r_i_glide_rewards>  (316) 
-1.16194

>  <r_i_glide_evdw>  (316) 
-29.2171

>  <r_i_glide_ecoul>  (316) 
-5.17837

>  <r_i_glide_erotb>  (316) 
0.503535

>  <r_i_glide_esite>  (316) 
-0.183204

>  <r_i_glide_emodel>  (316) 
-40.9432

>  <r_i_glide_energy>  (316) 
-34.3954

>  <r_i_glide_einternal>  (316) 
2.51734

>  <r_i_glide_intrahb_reward>  (316) 
-0

>  <i_i_glide_confnum>  (316) 
3

>  <i_i_glide_posenum>  (316) 
2

>  <r_i_glide_eff_state_penalty>  (316) 
0

>  <ligand_id>  (316) 
78

>  <original_smiles>  (316) 
O=C(C1OC(n2cnc3cncnc32)C(O)C1O)N1CCOCC1

>  <smiles>  (316) 
[H]OC1([H])C([H])(C(=O)N2C([H])([H])C([H])([H])OC([H])([H])C2([H])[H])OC([H])(n2c([H])nc3c([H])nc([H])nc32)C1([H])O[H]

$$$$
78:0:2
     RDKit          3D

 41 44  0  0  1  0  0  0  0  0999 V2000
    4.1267   -7.1933    1.6892 O   0  0  0  0  0  0  0  0  0  0  0  0
    3.3876   -6.2115    1.5826 C   0  0  0  0  0  0  0  0  0  0  0  0
    2.0670   -6.2125    2.3713 C   0  0  2  0  0  0  0  0  0  0  0  0
    2.3631   -6.4569    3.7469 O   0  0  0  0  0  0  0  0  0  0  0  0
    1.4721   -7.4007    4.2719 C   0  0  1  0  0  0  0  0  0  0  0  0
    0.9493   -6.9431    5.5868 N   0  0  0  0  0  0  0  0  0  0  0  0
    0.7543   -7.7003    6.6874 C   0  0  0  0  0  0  0  0  0  0  0  0
    0.2230   -7.0880    7.7559 N   0  0  0  0  0  0  0  0  0  0  0  0
    0.0726   -5.8014    7.2836 C   0  0  0  0  0  0  0  0  0  0  0  0
   -0.4587   -4.6332    7.8770 C   0  0  0  0  0  0  0  0  0  0  0  0
   -0.5198   -3.4931    7.1405 N   0  0  0  0  0  0  0  0  0  0  0  0
   -0.0328   -3.5138    5.8867 C   0  0  0  0  0  0  0  0  0  0  0  0
    0.5055   -4.5353    5.2069 N   0  0  0  0  0  0  0  0  0  0  0  0
    0.5343   -5.6748    5.9469 C   0  0  0  0  0  0  0  0  0  0  0  0
    0.3725   -7.6323    3.2239 C   0  0  1  0  0  0  0  0  0  0  0  0
   -0.7343   -6.7522    3.3543 O   0  0  0  0  0  0  0  0  0  0  0  0
    1.1567   -7.3767    1.9527 C   0  0  1  0  0  0  0  0  0  0  0  0
    0.3213   -7.0594    0.8580 O   0  0  0  0  0  0  0  0  0  0  0  0
    3.7345   -5.1515    0.8125 N   0  0  0  0  0  0  0  0  0  0  0  0
    4.9319   -5.1896   -0.0405 C   0  0  0  0  0  0  0  0  0  0  0  0
    5.6572   -3.8358   -0.0293 C   0  0  0  0  0  0  0  0  0  0  0  0
    4.7649   -2.7926   -0.3969 O   0  0  0  0  0  0  0  0  0  0  0  0
    3.6696   -2.7003    0.5034 C   0  0  0  0  0  0  0  0  0  0  0  0
    2.8626   -4.0080    0.5189 C   0  0  0  0  0  0  0  0  0  0  0  0
    1.5100   -5.2872    2.3396 H   0  0  0  0  0  0  0  0  0  0  0  0
    2.0613   -8.2973    4.4761 H   0  0  0  0  0  0  0  0  0  0  0  0
    0.9898   -8.7542    6.6930 H   0  0  0  0  0  0  0  0  0  0  0  0
   -0.8349   -4.6089    8.8904 H   0  0  0  0  0  0  0  0  0  0  0  0
   -0.0993   -2.5827    5.3399 H   0  0  0  0  0  0  0  0  0  0  0  0
    0.0021   -8.6509    3.2997 H   0  0  0  0  0  0  0  0  0  0  0  0
   -1.0880   -6.8452    4.2298 H   0  0  0  0  0  0  0  0  0  0  0  0
    1.7213   -8.2784    1.7052 H   0  0  0  0  0  0  0  0  0  0  0  0
   -0.0606   -7.8773    0.5415 H   0  0  0  0  0  0  0  0  0  0  0  0
    5.6491   -5.9525    0.2642 H   0  0  0  0  0  0  0  0  0  0  0  0
    4.6256   -5.4510   -1.0522 H   0  0  0  0  0  0  0  0  0  0  0  0
    6.0840   -3.6282    0.9554 H   0  0  0  0  0  0  0  0  0  0  0  0
    6.4813   -3.8509   -0.7440 H   0  0  0  0  0  0  0  0  0  0  0  0
    4.0331   -2.4652    1.5026 H   0  0  0  0  0  0  0  0  0  0  0  0
    3.0288   -1.8736    0.2023 H   0  0  0  0  0  0  0  0  0  0  0  0
    2.3997   -4.1669   -0.4571 H   0  0  0  0  0  0  0  0  0  0  0  0
    2.0819   -3.8698    1.2502 H   0  0  0  0  0  0  0  0  0  0  0  0
  1  2  2  0
  2  3  1  0
  2 19  1  0
  3 17  1  0
  3  4  1  0
  3 25  1  1
  4  5  1  0
  5  6  1  0
  5 15  1  0
  5 26  1  1
  6 14  1  0
  6  7  1  0
  7  8  2  0
  7 27  1  0
  8  9  1  0
  9 14  2  0
  9 10  1  0
 10 11  2  0
 10 28  1  0
 11 12  1  0
 12 13  2  0
 12 29  1  0
 13 14  1  0
 15 16  1  0
 15 17  1  0
 15 30  1  6
 16 31  1  0
 17 18  1  0
 17 32  1  6
 18 33  1  0
 19 24  1  0
 19 20  1  0
 20 21  1  0
 20 34  1  0
 20 35  1  0
 21 22  1  0
 21 36  1  0
 21 37  1  0
 22 23  1  0
 23 24  1  0
 23 38  1  0
 23 39  1  0
 24 40  1  0
 24 41  1  0
M  END
>  <i_m_ct_stereo_status>  (317) 
1

>  <s_m_source_file>  (317) 
/var/tmp/pbs.5076255.sched01/tmp6w_bron9/120d4r_aq7a.sdf

>  <i_m_source_file_index>  (317) 
1

>  <i_lp_mmshare_version>  (317) 
48012

>  <i_f3d_flags>  (317) 
0

>  <s_epik_input>  (317) 
W0NIMl0xW0NIMl1PW0NIMl1bQ0gyXU4xQyg9TylbQ0BASF0yT1tDQEhdKFtDQEBIXShbT0hdKVtDQEhdMltPSF0pbihbY0hdbjMpYyhjMzQpbltjSF1uW2NIXTQ=

>  <s_epik_cmdline>  (317) 
J2VwaWtfcHl0aG9uJywgJy1waHQnLCAnMi4wJywgJy1waCcsICc3LjAnLCAnLXRuJywgJzgnLCAnLW1hJywgJzIwMCcsICctaW1hZScsICc8aW5maWxlLm1hZT4nLCAnLW9tYWUnLCAnPG91dGZpbGUubWFlPic=

>  <r_lp_tautomer_probability>  (317) 
1

>  <r_epik_Ionization_Penalty>  (317) 
6.30932e-05

>  <r_epik_Ionization_Penalty_Charging>  (317) 
0

>  <r_epik_Ionization_Penalty_Neutral>  (317) 
6.30932e-05

>  <r_epik_State_Penalty>  (317) 
-0

>  <r_epik_Charging_Adjusted_Penalty>  (317) 
0

>  <i_epik_Tot_Q>  (317) 
0

>  <i_epik_Tot_abs_Q>  (317) 
0

>  <s_epik_Chemistry_Notes>  (317) 
This compound contains an acetal/aminal-like group ( X-CH(R)-Y where X, Y are N, S, or O) that may be acid/base labile, releasing an aldehyde.

>  <s_lp_Force_Field>  (317) 
OPLS3e

>  <r_lp_Energy>  (317) 
40.0469

>  <b_lp_Chiralities_Consistent>  (317) 
1

>  <s_lp_Variant>  (317) 
78:0-1

>  <s_i_glide_gridfile>  (317) 
pfpi4k_grid

>  <i_i_glide_lignum>  (317) 
1

>  <i_i_glide_rotatable_bonds>  (317) 
5

>  <r_i_docking_score>  (317) 
-3.38906

>  <r_i_glide_ligand_efficiency>  (317) 
-0.141211

>  <r_i_glide_ligand_efficiency_sa>  (317) 
-0.407323

>  <r_i_glide_ligand_efficiency_ln>  (317) 
-0.811158

>  <r_i_glide_gscore>  (317) 
-3.38906

>  <r_i_glide_lipo>  (317) 
-0.0695711

>  <r_i_glide_hbond>  (317) 
0

>  <r_i_glide_metal>  (317) 
-0

>  <r_i_glide_rewards>  (317) 
-1.1825

>  <r_i_glide_evdw>  (317) 
-23.9862

>  <r_i_glide_ecoul>  (317) 
-9.31745

>  <r_i_glide_erotb>  (317) 
0.503535

>  <r_i_glide_esite>  (317) 
-0.0435987

>  <r_i_glide_emodel>  (317) 
-40.1943

>  <r_i_glide_energy>  (317) 
-33.3036

>  <r_i_glide_einternal>  (317) 
1.81824

>  <r_i_glide_intrahb_reward>  (317) 
-0

>  <i_i_glide_confnum>  (317) 
5

>  <i_i_glide_posenum>  (317) 
17

>  <r_i_glide_eff_state_penalty>  (317) 
0

>  <ligand_id>  (317) 
78

>  <original_smiles>  (317) 
O=C(C1OC(n2cnc3cncnc32)C(O)C1O)N1CCOCC1

>  <smiles>  (317) 
[H]OC1([H])C([H])(C(=O)N2C([H])([H])C([H])([H])OC([H])([H])C2([H])[H])OC([H])(n2c([H])nc3c([H])nc([H])nc32)C1([H])O[H]

$$$$
80:0:0
     RDKit          3D

 57 61  0  0  1  0  0  0  0  0999 V2000
    1.5511   -9.0153    3.1466 C   0  0  0  0  0  0  0  0  0  0  0  0
    1.6001   -7.4959    2.8634 C   0  0  2  0  0  0  0  0  0  0  0  0
    2.0313   -7.3096    1.3822 C   0  0  0  0  0  0  0  0  0  0  0  0
    2.5821   -5.9299    0.9761 C   0  0  0  0  0  0  0  0  0  0  0  0
    3.6431   -5.4941    1.9844 C   0  0  2  0  0  0  0  0  0  0  0  0
    3.0580   -5.4005    3.3913 C   0  0  2  0  0  0  0  0  0  0  0  0
    4.2212   -4.7901    4.1830 C   0  0  0  0  0  0  0  0  0  0  0  0
    4.8096   -3.8053    3.1972 C   0  0  0  0  0  0  0  0  0  0  0  0
    5.3250   -2.6032    3.4900 C   0  0  0  0  0  0  0  0  0  0  0  0
    5.6029   -1.6675    2.4164 C   0  0  0  0  0  0  0  0  0  0  0  0
    4.9809   -1.7850    1.2239 C   0  0  0  0  0  0  0  0  0  0  0  0
    5.1021   -0.6805    0.1818 C   0  0  0  0  0  0  0  0  0  0  0  0
    5.1323   -1.1880   -1.2612 C   0  0  1  0  0  0  0  0  0  0  0  0
    6.3464   -1.8690   -1.5146 O   0  0  0  0  0  0  0  0  0  0  0  0
    3.9283   -2.0952   -1.5229 C   0  0  0  0  0  0  0  0  0  0  0  0
    3.9149   -3.3017   -0.5750 C   0  0  0  0  0  0  0  0  0  0  0  0
    4.0191   -2.9687    0.9485 C   0  0  2  0  0  0  0  0  0  0  0  0
    2.6413   -2.4642    1.4479 C   0  0  0  0  0  0  0  0  0  0  0  0
    4.5511   -4.2399    1.7633 C   0  0  2  0  0  0  0  0  0  0  0  0
    5.9143   -4.7463    1.1998 C   0  0  0  0  0  0  0  0  0  0  0  0
    2.5209   -6.7714    3.8914 C   0  0  1  0  0  0  0  0  0  0  0  0
    1.6193   -6.5703    5.1311 C   0  0  0  0  0  0  0  0  0  0  0  0
    0.2011   -6.3196    4.6006 C   0  0  0  0  0  0  0  0  0  0  0  0
    0.2225   -6.9206    3.2070 C   0  0  0  0  0  0  0  0  0  0  0  0
   -0.7539   -6.9309    2.4580 O   0  0  0  0  0  0  0  0  0  0  0  0
    2.5501   -9.4533    3.1074 H   0  0  0  0  0  0  0  0  0  0  0  0
    0.9425   -9.5424    2.4075 H   0  0  0  0  0  0  0  0  0  0  0  0
    1.1357   -9.2463    4.1292 H   0  0  0  0  0  0  0  0  0  0  0  0
    2.8053   -8.0461    1.1569 H   0  0  0  0  0  0  0  0  0  0  0  0
    1.1983   -7.5546    0.7243 H   0  0  0  0  0  0  0  0  0  0  0  0
    3.0226   -6.0066   -0.0183 H   0  0  0  0  0  0  0  0  0  0  0  0
    1.7647   -5.2233    0.9028 H   0  0  0  0  0  0  0  0  0  0  0  0
    4.3252   -6.3443    2.0293 H   0  0  0  0  0  0  0  0  0  0  0  0
    2.2398   -4.6763    3.3667 H   0  0  0  0  0  0  0  0  0  0  0  0
    3.9012   -4.3062    5.1032 H   0  0  0  0  0  0  0  0  0  0  0  0
    4.9683   -5.5477    4.4221 H   0  0  0  0  0  0  0  0  0  0  0  0
    5.4338   -2.3022    4.5202 H   0  0  0  0  0  0  0  0  0  0  0  0
    6.2484   -0.8272    2.6067 H   0  0  0  0  0  0  0  0  0  0  0  0
    4.2309   -0.0358    0.2952 H   0  0  0  0  0  0  0  0  0  0  0  0
    5.9726   -0.0577    0.3869 H   0  0  0  0  0  0  0  0  0  0  0  0
    5.0911   -0.3325   -1.9388 H   0  0  0  0  0  0  0  0  0  0  0  0
    6.3322   -2.6743   -1.0142 H   0  0  0  0  0  0  0  0  0  0  0  0
    3.0129   -1.5156   -1.3977 H   0  0  0  0  0  0  0  0  0  0  0  0
    3.9337   -2.4382   -2.5589 H   0  0  0  0  0  0  0  0  0  0  0  0
    3.0012   -3.8587   -0.7665 H   0  0  0  0  0  0  0  0  0  0  0  0
    4.7176   -3.9566   -0.9003 H   0  0  0  0  0  0  0  0  0  0  0  0
    1.8291   -3.1542    1.2548 H   0  0  0  0  0  0  0  0  0  0  0  0
    2.3738   -1.5326    0.9470 H   0  0  0  0  0  0  0  0  0  0  0  0
    2.6422   -2.2498    2.5178 H   0  0  0  0  0  0  0  0  0  0  0  0
    5.7881   -5.3737    0.3173 H   0  0  0  0  0  0  0  0  0  0  0  0
    6.4473   -5.3571    1.9318 H   0  0  0  0  0  0  0  0  0  0  0  0
    6.5859   -3.9295    0.9350 H   0  0  0  0  0  0  0  0  0  0  0  0
    3.3661   -7.4166    4.1420 H   0  0  0  0  0  0  0  0  0  0  0  0
    1.6182   -7.4772    5.7393 H   0  0  0  0  0  0  0  0  0  0  0  0
    1.9642   -5.7578    5.7704 H   0  0  0  0  0  0  0  0  0  0  0  0
   -0.5639   -6.7750    5.2284 H   0  0  0  0  0  0  0  0  0  0  0  0
   -0.0127   -5.2544    4.5186 H   0  0  0  0  0  0  0  0  0  0  0  0
  2  1  1  1
  1 26  1  0
  1 27  1  0
  1 28  1  0
  2 21  1  0
  2 24  1  0
  2  3  1  0
  3  4  1  0
  3 29  1  0
  3 30  1  0
  4  5  1  0
  4 31  1  0
  4 32  1  0
  5 19  1  0
  5  6  1  0
  5 33  1  1
  6  7  1  0
  6 21  1  0
  6 34  1  6
  7  8  1  0
  7 35  1  0
  7 36  1  0
  8 19  1  0
  8  9  2  0
  9 10  1  0
  9 37  1  0
 10 11  2  0
 10 38  1  0
 11 17  1  0
 11 12  1  0
 12 13  1  0
 12 39  1  0
 12 40  1  0
 13 14  1  0
 13 15  1  0
 13 41  1  6
 14 42  1  0
 15 16  1  0
 15 43  1  0
 15 44  1  0
 16 17  1  0
 16 45  1  0
 16 46  1  0
 17 18  1  1
 17 19  1  0
 18 47  1  0
 18 48  1  0
 18 49  1  0
 19 20  1  6
 20 50  1  0
 20 51  1  0
 20 52  1  0
 21 22  1  0
 21 53  1  1
 22 23  1  0
 22 54  1  0
 22 55  1  0
 23 24  1  0
 23 56  1  0
 23 57  1  0
 24 25  2  0
M  END
>  <i_m_ct_stereo_status>  (318) 
1

>  <s_m_source_file>  (318) 
/var/tmp/pbs.5076255.sched01/tmp6w_bron9/120d4r_aq7a.sdf

>  <i_m_source_file_index>  (318) 
3

>  <i_lp_mmshare_version>  (318) 
48012

>  <i_f3d_flags>  (318) 
0

>  <s_epik_input>  (318) 
Tz1DMVtDSDJdW0NIMl1bQ0BASF0oW0NAQF0xMltDSDNdKVtDQEBIXTNbQ0BASF0oW0NIMl1bQ0gyXTIpW0NAXTQoW0NIM10pQyhbQ0gyXTMpPVtDSF1bQ0hdPUM1W0NAQF00KFtDSDNdKVtDSDJdW0NIMl1bQ0BASF0oW0NIMl01KVtPSF0=

>  <s_epik_cmdline>  (318) 
J2VwaWtfcHl0aG9uJywgJy1waHQnLCAnMi4wJywgJy1waCcsICc3LjAnLCAnLXRuJywgJzgnLCAnLW1hJywgJzIwMCcsICctaW1hZScsICc8aW5maWxlLm1hZT4nLCAnLW9tYWUnLCAnPG91dGZpbGUubWFlPic=

>  <r_lp_tautomer_probability>  (318) 
1

>  <r_epik_Ionization_Penalty>  (318) 
9.72601e-07

>  <r_epik_Ionization_Penalty_Charging>  (318) 
0

>  <r_epik_Ionization_Penalty_Neutral>  (318) 
9.72601e-07

>  <r_epik_State_Penalty>  (318) 
-0

>  <r_epik_Charging_Adjusted_Penalty>  (318) 
0

>  <i_epik_Tot_Q>  (318) 
0

>  <i_epik_Tot_abs_Q>  (318) 
0

>  <s_lp_Force_Field>  (318) 
OPLS3e

>  <r_lp_Energy>  (318) 
44.0415

>  <b_lp_Chiralities_Consistent>  (318) 
1

>  <s_lp_Variant>  (318) 
80:0-1

>  <s_i_glide_gridfile>  (318) 
pfpi4k_grid

>  <i_i_glide_lignum>  (318) 
3

>  <i_i_glide_rotatable_bonds>  (318) 
1

>  <r_i_docking_score>  (318) 
-4.02006

>  <r_i_glide_ligand_efficiency>  (318) 
-0.160802

>  <r_i_glide_ligand_efficiency_sa>  (318) 
-0.470189

>  <r_i_glide_ligand_efficiency_ln>  (318) 
-0.952874

>  <r_i_glide_gscore>  (318) 
-4.02006

>  <r_i_glide_lipo>  (318) 
-0.459161

>  <r_i_glide_hbond>  (318) 
-0.312457

>  <r_i_glide_metal>  (318) 
-0

>  <r_i_glide_rewards>  (318) 
-1.08751

>  <r_i_glide_evdw>  (318) 
-23.4854

>  <r_i_glide_ecoul>  (318) 
-6.21846

>  <r_i_glide_erotb>  (318) 
0

>  <r_i_glide_esite>  (318) 
-0.0538912

>  <r_i_glide_emodel>  (318) 
-37.6258

>  <r_i_glide_energy>  (318) 
-29.7039

>  <r_i_glide_einternal>  (318) 
0.0740713

>  <r_i_glide_intrahb_reward>  (318) 
-0

>  <i_i_glide_confnum>  (318) 
2

>  <i_i_glide_posenum>  (318) 
7

>  <r_i_glide_eff_state_penalty>  (318) 
0

>  <ligand_id>  (318) 
80

>  <original_smiles>  (318) 
CC12CCC3C(CC4=CC=C5CC(O)CCC5(C)C43C)C1CCC2=O

>  <smiles>  (318) 
[H]OC1([H])C([H])([H])C2=C([H])C([H])=C3C([H])([H])C4([H])C5([H])C([H])([H])C([H])([H])C(=O)C5(C([H])([H])[H])C([H])([H])C([H])([H])C4([H])C3(C([H])([H])[H])C2(C([H])([H])[H])C([H])([H])C1([H])[H]

$$$$
80:0:1
     RDKit          3D

 57 61  0  0  1  0  0  0  0  0999 V2000
    1.4732   -8.8395    3.5379 C   0  0  0  0  0  0  0  0  0  0  0  0
    1.5824   -7.3614    3.0995 C   0  0  2  0  0  0  0  0  0  0  0  0
    1.7252   -7.3444    1.5495 C   0  0  0  0  0  0  0  0  0  0  0  0
    2.2817   -6.0524    0.9152 C   0  0  0  0  0  0  0  0  0  0  0  0
    3.5584   -5.6484    1.6480 C   0  0  2  0  0  0  0  0  0  0  0  0
    3.2799   -5.3822    3.1258 C   0  0  2  0  0  0  0  0  0  0  0  0
    4.6258   -4.8219    3.6061 C   0  0  0  0  0  0  0  0  0  0  0  0
    5.0826   -3.9927    2.4256 C   0  0  0  0  0  0  0  0  0  0  0  0
    5.7379   -2.8267    2.4809 C   0  0  0  0  0  0  0  0  0  0  0  0
    5.8833   -2.0176    1.2923 C   0  0  0  0  0  0  0  0  0  0  0  0
    5.0182   -2.1643    0.2676 C   0  0  0  0  0  0  0  0  0  0  0  0
    5.0076   -1.1746   -0.8850 C   0  0  0  0  0  0  0  0  0  0  0  0
    4.7163   -1.8076   -2.2469 C   0  0  1  0  0  0  0  0  0  0  0  0
    5.7729   -2.6569   -2.6506 O   0  0  0  0  0  0  0  0  0  0  0  0
    3.4113   -2.5915   -2.1715 C   0  0  0  0  0  0  0  0  0  0  0  0
    3.4892   -3.6993   -1.1158 C   0  0  0  0  0  0  0  0  0  0  0  0
    3.9274   -3.2633    0.3139 C   0  0  2  0  0  0  0  0  0  0  0  0
    2.7283   -2.5891    1.0252 C   0  0  0  0  0  0  0  0  0  0  0  0
    4.5020   -4.5132    1.1264 C   0  0  2  0  0  0  0  0  0  0  0  0
    5.6787   -5.1947    0.3702 C   0  0  0  0  0  0  0  0  0  0  0  0
    2.7469   -6.6502    3.8514 C   0  0  1  0  0  0  0  0  0  0  0  0
    2.1320   -6.2542    5.2154 C   0  0  0  0  0  0  0  0  0  0  0  0
    0.6593   -5.9142    4.9458 C   0  0  0  0  0  0  0  0  0  0  0  0
    0.3539   -6.6352    3.6424 C   0  0  0  0  0  0  0  0  0  0  0  0
   -0.7489   -6.6652    3.1096 O   0  0  0  0  0  0  0  0  0  0  0  0
    2.4056   -9.3766    3.3517 H   0  0  0  0  0  0  0  0  0  0  0  0
    0.6845   -9.3614    2.9897 H   0  0  0  0  0  0  0  0  0  0  0  0
    1.2453   -8.9449    4.6010 H   0  0  0  0  0  0  0  0  0  0  0  0
    2.3779   -8.1677    1.2562 H   0  0  0  0  0  0  0  0  0  0  0  0
    0.7638   -7.5604    1.0821 H   0  0  0  0  0  0  0  0  0  0  0  0
    2.5094   -6.2378   -0.1345 H   0  0  0  0  0  0  0  0  0  0  0  0
    1.5265   -5.2786    0.9470 H   0  0  0  0  0  0  0  0  0  0  0  0
    4.1668   -6.5539    1.6449 H   0  0  0  0  0  0  0  0  0  0  0  0
    2.5378   -4.5820    3.1860 H   0  0  0  0  0  0  0  0  0  0  0  0
    4.5416   -4.2339    4.5202 H   0  0  0  0  0  0  0  0  0  0  0  0
    5.3424   -5.6286    3.7741 H   0  0  0  0  0  0  0  0  0  0  0  0
    6.0608   -2.4423    3.4342 H   0  0  0  0  0  0  0  0  0  0  0  0
    6.6175   -1.2294    1.2749 H   0  0  0  0  0  0  0  0  0  0  0  0
    4.2307   -0.4399   -0.6715 H   0  0  0  0  0  0  0  0  0  0  0  0
    5.9425   -0.6204   -0.9094 H   0  0  0  0  0  0  0  0  0  0  0  0
    4.6183   -1.0140   -2.9891 H   0  0  0  0  0  0  0  0  0  0  0  0
    5.7954   -3.4011   -2.0647 H   0  0  0  0  0  0  0  0  0  0  0  0
    2.6040   -1.9030   -1.9297 H   0  0  0  0  0  0  0  0  0  0  0  0
    3.1719   -3.0237   -3.1449 H   0  0  0  0  0  0  0  0  0  0  0  0
    2.5159   -4.1825   -1.0732 H   0  0  0  0  0  0  0  0  0  0  0  0
    4.1682   -4.4461   -1.5164 H   0  0  0  0  0  0  0  0  0  0  0  0
    1.8352   -3.2004    1.0562 H   0  0  0  0  0  0  0  0  0  0  0  0
    2.4544   -1.6755    0.4996 H   0  0  0  0  0  0  0  0  0  0  0  0
    2.9588   -2.2920    2.0492 H   0  0  0  0  0  0  0  0  0  0  0  0
    5.3253   -5.8733   -0.4063 H   0  0  0  0  0  0  0  0  0  0  0  0
    6.2972   -5.7938    1.0419 H   0  0  0  0  0  0  0  0  0  0  0  0
    6.3472   -4.4720   -0.0993 H   0  0  0  0  0  0  0  0  0  0  0  0
    3.5736   -7.3481    4.0010 H   0  0  0  0  0  0  0  0  0  0  0  0
    2.1807   -7.1028    5.9001 H   0  0  0  0  0  0  0  0  0  0  0  0
    2.6608   -5.4295    5.6929 H   0  0  0  0  0  0  0  0  0  0  0  0
    0.0035   -6.2359    5.7540 H   0  0  0  0  0  0  0  0  0  0  0  0
    0.5187   -4.8451    4.7959 H   0  0  0  0  0  0  0  0  0  0  0  0
  2  1  1  1
  1 26  1  0
  1 27  1  0
  1 28  1  0
  2 21  1  0
  2 24  1  0
  2  3  1  0
  3  4  1  0
  3 29  1  0
  3 30  1  0
  4  5  1  0
  4 31  1  0
  4 32  1  0
  5 19  1  0
  5  6  1  0
  5 33  1  1
  6  7  1  0
  6 21  1  0
  6 34  1  6
  7  8  1  0
  7 35  1  0
  7 36  1  0
  8 19  1  0
  8  9  2  0
  9 10  1  0
  9 37  1  0
 10 11  2  0
 10 38  1  0
 11 17  1  0
 11 12  1  0
 12 13  1  0
 12 39  1  0
 12 40  1  0
 13 14  1  0
 13 15  1  0
 13 41  1  6
 14 42  1  0
 15 16  1  0
 15 43  1  0
 15 44  1  0
 16 17  1  0
 16 45  1  0
 16 46  1  0
 17 18  1  1
 17 19  1  0
 18 47  1  0
 18 48  1  0
 18 49  1  0
 19 20  1  6
 20 50  1  0
 20 51  1  0
 20 52  1  0
 21 22  1  0
 21 53  1  1
 22 23  1  0
 22 54  1  0
 22 55  1  0
 23 24  1  0
 23 56  1  0
 23 57  1  0
 24 25  2  0
M  END
>  <i_m_ct_stereo_status>  (319) 
1

>  <s_m_source_file>  (319) 
/var/tmp/pbs.5076255.sched01/tmp6w_bron9/120d4r_aq7a.sdf

>  <i_m_source_file_index>  (319) 
3

>  <i_lp_mmshare_version>  (319) 
48012

>  <i_f3d_flags>  (319) 
0

>  <s_epik_input>  (319) 
Tz1DMVtDSDJdW0NIMl1bQ0BASF0oW0NAQF0xMltDSDNdKVtDQEBIXTNbQ0BASF0oW0NIMl1bQ0gyXTIpW0NAXTQoW0NIM10pQyhbQ0gyXTMpPVtDSF1bQ0hdPUM1W0NAQF00KFtDSDNdKVtDSDJdW0NIMl1bQ0BASF0oW0NIMl01KVtPSF0=

>  <s_epik_cmdline>  (319) 
J2VwaWtfcHl0aG9uJywgJy1waHQnLCAnMi4wJywgJy1waCcsICc3LjAnLCAnLXRuJywgJzgnLCAnLW1hJywgJzIwMCcsICctaW1hZScsICc8aW5maWxlLm1hZT4nLCAnLW9tYWUnLCAnPG91dGZpbGUubWFlPic=

>  <r_lp_tautomer_probability>  (319) 
1

>  <r_epik_Ionization_Penalty>  (319) 
9.72601e-07

>  <r_epik_Ionization_Penalty_Charging>  (319) 
0

>  <r_epik_Ionization_Penalty_Neutral>  (319) 
9.72601e-07

>  <r_epik_State_Penalty>  (319) 
-0

>  <r_epik_Charging_Adjusted_Penalty>  (319) 
0

>  <i_epik_Tot_Q>  (319) 
0

>  <i_epik_Tot_abs_Q>  (319) 
0

>  <s_lp_Force_Field>  (319) 
OPLS3e

>  <r_lp_Energy>  (319) 
44.0415

>  <b_lp_Chiralities_Consistent>  (319) 
1

>  <s_lp_Variant>  (319) 
80:0-1

>  <s_i_glide_gridfile>  (319) 
pfpi4k_grid

>  <i_i_glide_lignum>  (319) 
3

>  <i_i_glide_rotatable_bonds>  (319) 
1

>  <r_i_docking_score>  (319) 
-3.42628

>  <r_i_glide_ligand_efficiency>  (319) 
-0.137051

>  <r_i_glide_ligand_efficiency_sa>  (319) 
-0.40074

>  <r_i_glide_ligand_efficiency_ln>  (319) 
-0.812131

>  <r_i_glide_gscore>  (319) 
-3.42628

>  <r_i_glide_lipo>  (319) 
-0.370487

>  <r_i_glide_hbond>  (319) 
-0.16

>  <r_i_glide_metal>  (319) 
-0

>  <r_i_glide_rewards>  (319) 
-1.08751

>  <r_i_glide_evdw>  (319) 
-23.1814

>  <r_i_glide_ecoul>  (319) 
-4.04366

>  <r_i_glide_erotb>  (319) 
0

>  <r_i_glide_esite>  (319) 
-0.0426715

>  <r_i_glide_emodel>  (319) 
-33.9024

>  <r_i_glide_energy>  (319) 
-27.225

>  <r_i_glide_einternal>  (319) 
0.0811501

>  <r_i_glide_intrahb_reward>  (319) 
-0

>  <i_i_glide_confnum>  (319) 
1

>  <i_i_glide_posenum>  (319) 
8

>  <r_i_glide_eff_state_penalty>  (319) 
0

>  <ligand_id>  (319) 
80

>  <original_smiles>  (319) 
CC12CCC3C(CC4=CC=C5CC(O)CCC5(C)C43C)C1CCC2=O

>  <smiles>  (319) 
[H]OC1([H])C([H])([H])C2=C([H])C([H])=C3C([H])([H])C4([H])C5([H])C([H])([H])C([H])([H])C(=O)C5(C([H])([H])[H])C([H])([H])C([H])([H])C4([H])C3(C([H])([H])[H])C2(C([H])([H])[H])C([H])([H])C1([H])[H]

$$$$
80:0:2
     RDKit          3D

 57 61  0  0  1  0  0  0  0  0999 V2000
    1.2587   -8.9458    3.3561 C   0  0  0  0  0  0  0  0  0  0  0  0
    1.4344   -7.4579    2.9792 C   0  0  2  0  0  0  0  0  0  0  0  0
    1.5557   -7.3782    1.4290 C   0  0  0  0  0  0  0  0  0  0  0  0
    2.1591   -6.0873    0.8518 C   0  0  0  0  0  0  0  0  0  0  0  0
    3.4574   -5.7634    1.5810 C   0  0  2  0  0  0  0  0  0  0  0  0
    3.2069   -5.5494    3.0684 C   0  0  2  0  0  0  0  0  0  0  0  0
    4.5771   -5.0658    3.5564 C   0  0  0  0  0  0  0  0  0  0  0  0
    5.0523   -4.2088    2.4062 C   0  0  0  0  0  0  0  0  0  0  0  0
    5.7616   -3.0754    2.4961 C   0  0  0  0  0  0  0  0  0  0  0  0
    5.9289   -2.2211    1.3424 C   0  0  0  0  0  0  0  0  0  0  0  0
    5.0497   -2.2878    0.3258 C   0  0  0  0  0  0  0  0  0  0  0  0
    5.0721   -1.2422   -0.7815 C   0  0  0  0  0  0  0  0  0  0  0  0
    4.7403   -1.8041   -2.1652 C   0  0  1  0  0  0  0  0  0  0  0  0
    5.7502   -2.6924   -2.6102 O   0  0  0  0  0  0  0  0  0  0  0  0
    3.4064   -2.5436   -2.1082 C   0  0  0  0  0  0  0  0  0  0  0  0
    3.4482   -3.6959   -1.0978 C   0  0  0  0  0  0  0  0  0  0  0  0
    3.9121   -3.3407    0.3419 C   0  0  2  0  0  0  0  0  0  0  0  0
    2.7501   -2.6479    1.0890 C   0  0  0  0  0  0  0  0  0  0  0  0
    4.4418   -4.6513    1.0932 C   0  0  2  0  0  0  0  0  0  0  0  0
    5.5813   -5.3468    0.2988 C   0  0  0  0  0  0  0  0  0  0  0  0
    2.6287   -6.8233    3.7511 C   0  0  1  0  0  0  0  0  0  0  0  0
    2.0406   -6.4625    5.1322 C   0  0  0  0  0  0  0  0  0  0  0  0
    0.5821   -6.0474    4.8921 C   0  0  0  0  0  0  0  0  0  0  0  0
    0.2406   -6.7054    3.5650 C   0  0  0  0  0  0  0  0  0  0  0  0
   -0.8723   -6.6738    3.0397 O   0  0  0  0  0  0  0  0  0  0  0  0
    2.1670   -9.5098    3.1366 H   0  0  0  0  0  0  0  0  0  0  0  0
    0.4462   -9.4094    2.7925 H   0  0  0  0  0  0  0  0  0  0  0  0
    1.0364   -9.0847    4.4141 H   0  0  0  0  0  0  0  0  0  0  0  0
    2.1723   -8.2209    1.0938 H   0  0  0  0  0  0  0  0  0  0  0  0
    0.5835   -7.5278    0.9666 H   0  0  0  0  0  0  0  0  0  0  0  0
    2.3684   -6.2399   -0.2065 H   0  0  0  0  0  0  0  0  0  0  0  0
    1.4328   -5.2838    0.9223 H   0  0  0  0  0  0  0  0  0  0  0  0
    4.0288   -6.6925    1.5318 H   0  0  0  0  0  0  0  0  0  0  0  0
    2.4967   -4.7250    3.1707 H   0  0  0  0  0  0  0  0  0  0  0  0
    4.5264   -4.5117    4.4935 H   0  0  0  0  0  0  0  0  0  0  0  0
    5.2606   -5.9057    3.6826 H   0  0  0  0  0  0  0  0  0  0  0  0
    6.0935   -2.7404    3.4598 H   0  0  0  0  0  0  0  0  0  0  0  0
    6.6962   -1.4651    1.3539 H   0  0  0  0  0  0  0  0  0  0  0  0
    4.3246   -0.4912   -0.5268 H   0  0  0  0  0  0  0  0  0  0  0  0
    6.0297   -0.7289   -0.7853 H   0  0  0  0  0  0  0  0  0  0  0  0
    4.6599   -0.9805   -2.8778 H   0  0  0  0  0  0  0  0  0  0  0  0
    6.5251   -2.2100   -2.8559 H   0  0  0  0  0  0  0  0  0  0  0  0
    2.6141   -1.8442   -1.8400 H   0  0  0  0  0  0  0  0  0  0  0  0
    3.1508   -2.9338   -3.0952 H   0  0  0  0  0  0  0  0  0  0  0  0
    2.4610   -4.1476   -1.0695 H   0  0  0  0  0  0  0  0  0  0  0  0
    4.1078   -4.4434   -1.5239 H   0  0  0  0  0  0  0  0  0  0  0  0
    1.8351   -3.2287    1.1068 H   0  0  0  0  0  0  0  0  0  0  0  0
    2.5060   -1.7072    0.5999 H   0  0  0  0  0  0  0  0  0  0  0  0
    3.0053   -2.4011    2.1210 H   0  0  0  0  0  0  0  0  0  0  0  0
    5.1916   -5.9767   -0.5002 H   0  0  0  0  0  0  0  0  0  0  0  0
    6.1822   -5.9967    0.9389 H   0  0  0  0  0  0  0  0  0  0  0  0
    6.2713   -4.6320   -0.1500 H   0  0  0  0  0  0  0  0  0  0  0  0
    3.4263   -7.5664    3.8574 H   0  0  0  0  0  0  0  0  0  0  0  0
    2.0591   -7.3390    5.7808 H   0  0  0  0  0  0  0  0  0  0  0  0
    2.6101   -5.6806    5.6389 H   0  0  0  0  0  0  0  0  0  0  0  0
   -0.0808   -6.3796    5.6915 H   0  0  0  0  0  0  0  0  0  0  0  0
    0.4841   -4.9686    4.7928 H   0  0  0  0  0  0  0  0  0  0  0  0
  2  1  1  6
  1 26  1  0
  1 27  1  0
  1 28  1  0
  2 21  1  0
  2 24  1  0
  2  3  1  0
  3  4  1  0
  3 29  1  0
  3 30  1  0
  4  5  1  0
  4 31  1  0
  4 32  1  0
  5 19  1  0
  5  6  1  0
  5 33  1  1
  6  7  1  0
  6 21  1  0
  6 34  1  6
  7  8  1  0
  7 35  1  0
  7 36  1  0
  8 19  1  0
  8  9  2  0
  9 10  1  0
  9 37  1  0
 10 11  2  0
 10 38  1  0
 11 17  1  0
 11 12  1  0
 12 13  1  0
 12 39  1  0
 12 40  1  0
 13 14  1  0
 13 15  1  0
 13 41  1  6
 14 42  1  0
 15 16  1  0
 15 43  1  0
 15 44  1  0
 16 17  1  0
 16 45  1  0
 16 46  1  0
 17 18  1  1
 17 19  1  0
 18 47  1  0
 18 48  1  0
 18 49  1  0
 19 20  1  6
 20 50  1  0
 20 51  1  0
 20 52  1  0
 21 22  1  0
 21 53  1  1
 22 23  1  0
 22 54  1  0
 22 55  1  0
 23 24  1  0
 23 56  1  0
 23 57  1  0
 24 25  2  0
M  END
>  <i_m_ct_stereo_status>  (320) 
1

>  <s_m_source_file>  (320) 
/var/tmp/pbs.5076255.sched01/tmp6w_bron9/120d4r_aq7a.sdf

>  <i_m_source_file_index>  (320) 
3

>  <i_lp_mmshare_version>  (320) 
48012

>  <i_f3d_flags>  (320) 
0

>  <s_epik_input>  (320) 
Tz1DMVtDSDJdW0NIMl1bQ0BASF0oW0NAQF0xMltDSDNdKVtDQEBIXTNbQ0BASF0oW0NIMl1bQ0gyXTIpW0NAXTQoW0NIM10pQyhbQ0gyXTMpPVtDSF1bQ0hdPUM1W0NAQF00KFtDSDNdKVtDSDJdW0NIMl1bQ0BASF0oW0NIMl01KVtPSF0=

>  <s_epik_cmdline>  (320) 
J2VwaWtfcHl0aG9uJywgJy1waHQnLCAnMi4wJywgJy1waCcsICc3LjAnLCAnLXRuJywgJzgnLCAnLW1hJywgJzIwMCcsICctaW1hZScsICc8aW5maWxlLm1hZT4nLCAnLW9tYWUnLCAnPG91dGZpbGUubWFlPic=

>  <r_lp_tautomer_probability>  (320) 
1

>  <r_epik_Ionization_Penalty>  (320) 
9.72601e-07

>  <r_epik_Ionization_Penalty_Charging>  (320) 
0

>  <r_epik_Ionization_Penalty_Neutral>  (320) 
9.72601e-07

>  <r_epik_State_Penalty>  (320) 
-0

>  <r_epik_Charging_Adjusted_Penalty>  (320) 
0

>  <i_epik_Tot_Q>  (320) 
0

>  <i_epik_Tot_abs_Q>  (320) 
0

>  <s_lp_Force_Field>  (320) 
OPLS3e

>  <r_lp_Energy>  (320) 
44.0415

>  <b_lp_Chiralities_Consistent>  (320) 
1

>  <s_lp_Variant>  (320) 
80:0-1

>  <s_i_glide_gridfile>  (320) 
pfpi4k_grid

>  <i_i_glide_lignum>  (320) 
3

>  <i_i_glide_rotatable_bonds>  (320) 
1

>  <r_i_docking_score>  (320) 
-3.21094

>  <r_i_glide_ligand_efficiency>  (320) 
-0.128437

>  <r_i_glide_ligand_efficiency_sa>  (320) 
-0.375553

>  <r_i_glide_ligand_efficiency_ln>  (320) 
-0.761088

>  <r_i_glide_gscore>  (320) 
-3.21094

>  <r_i_glide_lipo>  (320) 
-0.353568

>  <r_i_glide_hbond>  (320) 
-0.16

>  <r_i_glide_metal>  (320) 
-0

>  <r_i_glide_rewards>  (320) 
-1.08751

>  <r_i_glide_evdw>  (320) 
-22.5189

>  <r_i_glide_ecoul>  (320) 
-2.90972

>  <r_i_glide_erotb>  (320) 
0

>  <r_i_glide_esite>  (320) 
-0.0474614

>  <r_i_glide_emodel>  (320) 
-31.4497

>  <r_i_glide_energy>  (320) 
-25.4286

>  <r_i_glide_einternal>  (320) 
0.434044

>  <r_i_glide_intrahb_reward>  (320) 
-0

>  <i_i_glide_confnum>  (320) 
1

>  <i_i_glide_posenum>  (320) 
1

>  <r_i_glide_eff_state_penalty>  (320) 
0

>  <ligand_id>  (320) 
80

>  <original_smiles>  (320) 
CC12CCC3C(CC4=CC=C5CC(O)CCC5(C)C43C)C1CCC2=O

>  <smiles>  (320) 
[H]OC1([H])C([H])([H])C2=C([H])C([H])=C3C([H])([H])C4([H])C5([H])C([H])([H])C([H])([H])C(=O)C5(C([H])([H])[H])C([H])([H])C([H])([H])C4([H])C3(C([H])([H])[H])C2(C([H])([H])[H])C([H])([H])C1([H])[H]

$$$$
81:0:0
     RDKit          3D

 88 94  0  0  1  0  0  0  0  0999 V2000
   -0.3275   -7.8555    1.7198 C   0  0  0  0  0  0  0  0  0  0  0  0
    0.6828   -7.8366    2.6091 C   0  0  0  0  0  0  0  0  0  0  0  0
    1.3722   -6.5631    2.9386 C   0  0  0  0  0  0  0  0  0  0  0  0
    0.9098   -5.4712    2.5936 O   0  0  0  0  0  0  0  0  0  0  0  0
    2.6957   -6.6512    3.7592 C   0  0  2  0  0  0  0  0  0  0  0  0
    3.6294   -7.4273    3.0153 O   0  0  0  0  0  0  0  0  0  0  0  0
    2.4392   -7.5251    5.0640 C   0  0  1  0  0  0  0  0  0  0  0  0
    2.1594   -6.6728    6.3247 C   0  0  0  0  0  0  0  0  0  0  0  0
    3.1196   -5.4970    6.4529 C   0  0  0  0  0  0  0  0  0  0  0  0
    3.0941   -4.4963    5.2561 C   0  0  1  0  0  0  0  0  0  0  0  0
    1.6498   -3.9235    5.1795 C   0  0  0  0  0  0  0  0  0  0  0  0
    4.0930   -3.3453    5.6577 C   0  0  1  0  0  0  0  0  0  0  0  0
    5.3174   -3.8951    6.1229 O   0  0  0  0  0  0  0  0  0  0  0  0
    4.4651   -2.1942    4.6722 C   0  0  0  0  0  0  0  0  0  0  0  0
    3.2820   -1.3324    4.1696 C   0  0  0  0  0  0  0  0  0  0  0  0
    5.3842   -1.1708    5.3841 C   0  0  0  0  0  0  0  0  0  0  0  0
    5.3216   -2.7486    3.6713 O   0  0  0  0  0  0  0  0  0  0  0  0
    4.9021   -3.4714    2.5126 C   0  0  2  0  0  0  0  0  0  0  0  0
    4.6539   -2.3439    1.4576 C   0  0  0  0  0  0  0  0  0  0  0  0
    4.9074   -2.5495    0.0783 O   0  0  0  0  0  0  0  0  0  0  0  0
    4.1837   -3.4706   -0.6824 C   0  0  0  0  0  0  0  0  0  0  0  0
    2.6491   -3.3853   -0.4987 C   0  0  0  0  0  0  0  0  0  0  0  0
    4.4786   -3.0737   -2.1407 C   0  0  0  0  0  0  0  0  0  0  0  0
    4.6844   -4.7807   -0.5802 O   0  0  0  0  0  0  0  0  0  0  0  0
    4.5735   -5.5117    0.6076 C   0  0  2  0  0  0  0  0  0  0  0  0
    4.3597   -6.8443    0.2303 O   0  0  0  0  0  0  0  0  0  0  0  0
    3.5021   -5.1275    1.4437 O   0  0  0  0  0  0  0  0  0  0  0  0
    3.6462   -4.3783    2.6663 C   0  0  1  0  0  0  0  0  0  0  0  0
    3.5134   -5.2926    3.9599 C   0  0  2  0  0  0  0  0  0  0  0  0
    5.9079   -5.5212    1.3697 C   0  0  2  0  0  0  0  0  0  0  0  0
    6.1062   -4.4178    2.3596 C   0  0  1  0  0  0  0  0  0  0  0  0
    7.1609   -4.6555    1.2728 C   0  0  0  0  0  0  0  0  0  0  0  0
    8.4674   -5.2926    1.7232 C   0  0  0  0  0  0  0  0  0  0  0  0
    7.4850   -3.6347    0.1984 C   0  0  0  0  0  0  0  0  0  0  0  0
    1.3638   -8.6843    4.8947 C   0  0  2  0  0  0  0  0  0  0  0  0
   -0.0197   -8.3404    5.5378 C   0  0  0  0  0  0  0  0  0  0  0  0
    1.7954  -10.0655    5.4164 C   0  0  0  0  0  0  0  0  0  0  0  0
    1.0155  -11.1092    4.5818 C   0  0  0  0  0  0  0  0  0  0  0  0
    0.4367  -10.3656    3.3606 C   0  0  0  0  0  0  0  0  0  0  0  0
    1.1830   -9.0330    3.4069 C   0  0  1  0  0  0  0  0  0  0  0  0
   -0.8682   -8.7556    1.4958 H   0  0  0  0  0  0  0  0  0  0  0  0
   -0.6151   -6.9659    1.1752 H   0  0  0  0  0  0  0  0  0  0  0  0
    3.2787   -8.3027    2.9444 H   0  0  0  0  0  0  0  0  0  0  0  0
    3.3866   -8.0192    5.2873 H   0  0  0  0  0  0  0  0  0  0  0  0
    1.1400   -6.2949    6.3705 H   0  0  0  0  0  0  0  0  0  0  0  0
    2.2684   -7.3063    7.2093 H   0  0  0  0  0  0  0  0  0  0  0  0
    2.9164   -4.9681    7.3887 H   0  0  0  0  0  0  0  0  0  0  0  0
    4.1057   -5.9433    6.5743 H   0  0  0  0  0  0  0  0  0  0  0  0
    1.4754   -3.2688    4.3338 H   0  0  0  0  0  0  0  0  0  0  0  0
    1.4016   -3.3648    6.0861 H   0  0  0  0  0  0  0  0  0  0  0  0
    0.8912   -4.6936    5.0669 H   0  0  0  0  0  0  0  0  0  0  0  0
    3.6564   -2.8591    6.5323 H   0  0  0  0  0  0  0  0  0  0  0  0
    5.7555   -4.2912    5.3811 H   0  0  0  0  0  0  0  0  0  0  0  0
    2.6620   -1.0185    5.0100 H   0  0  0  0  0  0  0  0  0  0  0  0
    2.6261   -1.8145    3.4585 H   0  0  0  0  0  0  0  0  0  0  0  0
    3.6261   -0.4233    3.6749 H   0  0  0  0  0  0  0  0  0  0  0  0
    4.8952   -0.7129    6.2456 H   0  0  0  0  0  0  0  0  0  0  0  0
    5.6787   -0.3679    4.7069 H   0  0  0  0  0  0  0  0  0  0  0  0
    6.3043   -1.6248    5.7355 H   0  0  0  0  0  0  0  0  0  0  0  0
    3.6699   -1.8906    1.5596 H   0  0  0  0  0  0  0  0  0  0  0  0
    5.3540   -1.5412    1.6987 H   0  0  0  0  0  0  0  0  0  0  0  0
    2.3206   -3.3356    0.5328 H   0  0  0  0  0  0  0  0  0  0  0  0
    2.1688   -4.2337   -0.9827 H   0  0  0  0  0  0  0  0  0  0  0  0
    2.2886   -2.4836   -0.9787 H   0  0  0  0  0  0  0  0  0  0  0  0
    5.5456   -3.1246   -2.3520 H   0  0  0  0  0  0  0  0  0  0  0  0
    4.1336   -2.0564   -2.3337 H   0  0  0  0  0  0  0  0  0  0  0  0
    3.9545   -3.7508   -2.8175 H   0  0  0  0  0  0  0  0  0  0  0  0
    4.4662   -7.3811    1.0024 H   0  0  0  0  0  0  0  0  0  0  0  0
    2.7696   -3.7446    2.6628 H   0  0  0  0  0  0  0  0  0  0  0  0
    4.5203   -5.6382    4.1793 H   0  0  0  0  0  0  0  0  0  0  0  0
    6.0965   -6.4986    1.8026 H   0  0  0  0  0  0  0  0  0  0  0  0
    6.4115   -4.7912    3.3341 H   0  0  0  0  0  0  0  0  0  0  0  0
    9.1481   -4.5200    2.0827 H   0  0  0  0  0  0  0  0  0  0  0  0
    8.9493   -5.8314    0.9046 H   0  0  0  0  0  0  0  0  0  0  0  0
    8.2893   -5.9967    2.5372 H   0  0  0  0  0  0  0  0  0  0  0  0
    8.5426   -3.6696   -0.0767 H   0  0  0  0  0  0  0  0  0  0  0  0
    7.2832   -2.6324    0.5746 H   0  0  0  0  0  0  0  0  0  0  0  0
    6.9232   -3.8424   -0.7063 H   0  0  0  0  0  0  0  0  0  0  0  0
   -0.7770   -9.1002    5.3558 H   0  0  0  0  0  0  0  0  0  0  0  0
   -0.4363   -7.4015    5.1715 H   0  0  0  0  0  0  0  0  0  0  0  0
    0.0535   -8.2776    6.6245 H   0  0  0  0  0  0  0  0  0  0  0  0
    2.8647  -10.2191    5.2538 H   0  0  0  0  0  0  0  0  0  0  0  0
    1.6060  -10.1926    6.4835 H   0  0  0  0  0  0  0  0  0  0  0  0
    1.6784  -11.9236    4.2800 H   0  0  0  0  0  0  0  0  0  0  0  0
    0.2131  -11.5473    5.1823 H   0  0  0  0  0  0  0  0  0  0  0  0
    0.6180  -10.9128    2.4357 H   0  0  0  0  0  0  0  0  0  0  0  0
   -0.6411  -10.2346    3.4604 H   0  0  0  0  0  0  0  0  0  0  0  0
    2.1473   -9.3080    2.9828 H   0  0  0  0  0  0  0  0  0  0  0  0
  1  2  2  0
  1 41  1  0
  1 42  1  0
  2 40  1  0
  2  3  1  0
  3  4  2  0
  3  5  1  0
  5 29  1  0
  5  6  1  6
  5  7  1  0
  6 43  1  0
  7  8  1  0
  7 35  1  0
  7 44  1  1
  8  9  1  0
  8 45  1  0
  8 46  1  0
  9 10  1  0
  9 47  1  0
  9 48  1  0
 10 29  1  0
 10 11  1  6
 10 12  1  0
 11 49  1  0
 11 50  1  0
 11 51  1  0
 12 13  1  0
 12 14  1  0
 12 52  1  1
 13 53  1  0
 14 15  1  0
 14 16  1  0
 14 17  1  0
 15 54  1  0
 15 55  1  0
 15 56  1  0
 16 57  1  0
 16 58  1  0
 16 59  1  0
 18 17  1  1
 18 28  1  0
 18 31  1  0
 18 19  1  0
 19 20  1  0
 19 60  1  0
 19 61  1  0
 20 21  1  0
 21 22  1  0
 21 23  1  0
 21 24  1  0
 22 62  1  0
 22 63  1  0
 22 64  1  0
 23 65  1  0
 23 66  1  0
 23 67  1  0
 24 25  1  0
 25 26  1  6
 25 27  1  0
 25 30  1  0
 26 68  1  0
 27 28  1  0
 28 29  1  0
 28 69  1  1
 29 70  1  1
 30 32  1  0
 30 31  1  0
 30 71  1  1
 31 32  1  0
 31 72  1  1
 32 33  1  0
 32 34  1  0
 33 73  1  0
 33 74  1  0
 33 75  1  0
 34 76  1  0
 34 77  1  0
 34 78  1  0
 35 40  1  0
 35 36  1  1
 35 37  1  0
 36 79  1  0
 36 80  1  0
 36 81  1  0
 37 38  1  0
 37 82  1  0
 37 83  1  0
 38 39  1  0
 38 84  1  0
 38 85  1  0
 39 40  1  0
 39 86  1  0
 39 87  1  0
 40 88  1  6
M  END
>  <i_m_ct_stereo_status>  (321) 
1

>  <s_m_source_file>  (321) 
/var/tmp/pbs.5076255.sched01/tmp6w_bron9/120d4r_aq7a.sdf

>  <i_m_source_file_index>  (321) 
4

>  <i_lp_mmshare_version>  (321) 
48012

>  <i_f3d_flags>  (321) 
0

>  <s_epik_input>  (321) 
W0NIM11DKE8xKShbQ0gzXSlbQ0BIXShbT0hdKVtDQF0yKFtDSDNdKVtDSDJdW0NIMl1bQ0BASF0oW0NAQF0zKFtDSDNdKVtDQEhdKEMoPVtDSDJdKUM0PU8pW0NIMl1bQ0gyXVtDSDJdMylbQ0BdNChbT0hdKVtDQEhdMltDQEBIXShbQ0BdMTU2KU9bQ0BAXShbT0hdKShPQyhbQ0gzXSkoW0NIM10pT1tDSDJdNSlbQ0BASF03W0NASF02QzcoW0NIM10pW0NIM10=

>  <s_epik_cmdline>  (321) 
J2VwaWtfcHl0aG9uJywgJy1waHQnLCAnMi4wJywgJy1waCcsICc3LjAnLCAnLXRuJywgJzgnLCAnLW1hJywgJzIwMCcsICctaW1hZScsICc8aW5maWxlLm1hZT4nLCAnLW9tYWUnLCAnPG91dGZpbGUubWFlPic=

>  <r_lp_tautomer_probability>  (321) 
1

>  <r_epik_Ionization_Penalty>  (321) 
0.000190378

>  <r_epik_Ionization_Penalty_Charging>  (321) 
0

>  <r_epik_Ionization_Penalty_Neutral>  (321) 
0.000190378

>  <r_epik_State_Penalty>  (321) 
-0

>  <r_epik_Charging_Adjusted_Penalty>  (321) 
0

>  <i_epik_Tot_Q>  (321) 
0

>  <i_epik_Tot_abs_Q>  (321) 
0

>  <s_lp_Force_Field>  (321) 
OPLS3e

>  <r_lp_Energy>  (321) 
137.777

>  <b_lp_Chiralities_Consistent>  (321) 
1

>  <s_lp_Variant>  (321) 
81:0-1

>  <s_i_glide_gridfile>  (321) 
pfpi4k_grid

>  <i_i_glide_lignum>  (321) 
4

>  <i_i_glide_rotatable_bonds>  (321) 
3

>  <r_i_docking_score>  (321) 
-2.99191

>  <r_i_glide_ligand_efficiency>  (321) 
-0.0747979

>  <r_i_glide_ligand_efficiency_sa>  (321) 
-0.255805

>  <r_i_glide_ligand_efficiency_ln>  (321) 
-0.638087

>  <r_i_glide_gscore>  (321) 
-2.99191

>  <r_i_glide_lipo>  (321) 
-0.489595

>  <r_i_glide_hbond>  (321) 
-0.0363632

>  <r_i_glide_metal>  (321) 
-0

>  <r_i_glide_rewards>  (321) 
-0.637452

>  <r_i_glide_evdw>  (321) 
-32.608

>  <r_i_glide_ecoul>  (321) 
-1.1552

>  <r_i_glide_erotb>  (321) 
0

>  <r_i_glide_esite>  (321) 
-0.0248233

>  <r_i_glide_emodel>  (321) 
-43.7549

>  <r_i_glide_energy>  (321) 
-33.7632

>  <r_i_glide_einternal>  (321) 
3.16696

>  <r_i_glide_intrahb_reward>  (321) 
-0.5

>  <i_i_glide_confnum>  (321) 
2

>  <i_i_glide_posenum>  (321) 
1

>  <r_i_glide_eff_state_penalty>  (321) 
0

>  <ligand_id>  (321) 
81

>  <original_smiles>  (321) 
C=C1C(=O)C2(O)C(CCC3(C)C(O)C(C)(C)OC45COC(C)(C)OC(O)(OC4C32)C2C5C2(C)C)C2(C)CCCC12

>  <smiles>  (321) 
[H]OC12OC3([H])C4([H])C5(O[H])C(=O)C(=C([H])[H])C6([H])C([H])([H])C([H])([H])C([H])([H])C6(C([H])([H])[H])C5([H])C([H])([H])C([H])([H])C4(C([H])([H])[H])C([H])(O[H])C(C([H])([H])[H])(C([H])([H])[H])OC3(C([H])([H])OC(C([H])([H])[H])(C([H])([H])[H])O1)C1([H])C2([H])C1(C([H])([H])[H])C([H])([H])[H]

$$$$
81:0:1
     RDKit          3D

 88 94  0  0  1  0  0  0  0  0999 V2000
    0.0018   -7.8697    1.8129 C   0  0  0  0  0  0  0  0  0  0  0  0
    1.0225   -7.6788    2.6645 C   0  0  0  0  0  0  0  0  0  0  0  0
    1.6042   -6.3286    2.8332 C   0  0  0  0  0  0  0  0  0  0  0  0
    1.0131   -5.3353    2.4241 O   0  0  0  0  0  0  0  0  0  0  0  0
    2.9507   -6.1944    3.6092 C   0  0  2  0  0  0  0  0  0  0  0  0
    3.9410   -6.9729    2.9536 O   0  0  0  0  0  0  0  0  0  0  0  0
    2.7982   -6.9194    5.0131 C   0  0  1  0  0  0  0  0  0  0  0  0
    2.4768   -5.9374    6.1637 C   0  0  0  0  0  0  0  0  0  0  0  0
    3.3411   -4.6800    6.1136 C   0  0  0  0  0  0  0  0  0  0  0  0
    3.2045   -3.8399    4.8051 C   0  0  1  0  0  0  0  0  0  0  0  0
    1.7114   -3.3997    4.7083 C   0  0  0  0  0  0  0  0  0  0  0  0
    4.1153   -2.5682    5.0192 C   0  0  1  0  0  0  0  0  0  0  0  0
    5.3979   -2.9434    5.5041 O   0  0  0  0  0  0  0  0  0  0  0  0
    4.3636   -1.5168    3.8916 C   0  0  0  0  0  0  0  0  0  0  0  0
    3.0920   -0.8266    3.3387 C   0  0  0  0  0  0  0  0  0  0  0  0
    5.2194   -0.3418    4.4330 C   0  0  0  0  0  0  0  0  0  0  0  0
    5.2335   -2.1003    2.9224 O   0  0  0  0  0  0  0  0  0  0  0  0
    4.8465   -3.0089    1.8946 C   0  0  2  0  0  0  0  0  0  0  0  0
    4.4755   -2.0454    0.7152 C   0  0  0  0  0  0  0  0  0  0  0  0
    4.7103   -2.3835   -0.6383 O   0  0  0  0  0  0  0  0  0  0  0  0
    4.0513   -3.4467   -1.2514 C   0  0  0  0  0  0  0  0  0  0  0  0
    2.5147   -3.4546   -1.0232 C   0  0  0  0  0  0  0  0  0  0  0  0
    4.2783   -3.2191   -2.7591 C   0  0  0  0  0  0  0  0  0  0  0  0
    4.6703   -4.6756   -1.0024 O   0  0  0  0  0  0  0  0  0  0  0  0
    4.6402   -5.2741    0.2663 C   0  0  2  0  0  0  0  0  0  0  0  0
    4.5132   -6.6508    0.0363 O   0  0  0  0  0  0  0  0  0  0  0  0
    3.5608   -4.8923    1.0891 O   0  0  0  0  0  0  0  0  0  0  0  0
    3.6744   -3.9926    2.2084 C   0  0  1  0  0  0  0  0  0  0  0  0
    3.6518   -4.7538    3.6054 C   0  0  2  0  0  0  0  0  0  0  0  0
    5.9882   -5.0964    0.9737 C   0  0  2  0  0  0  0  0  0  0  0  0
    6.1174   -3.8712    1.8194 C   0  0  1  0  0  0  0  0  0  0  0  0
    7.1673   -4.1506    0.7401 C   0  0  0  0  0  0  0  0  0  0  0  0
    8.5345   -4.6217    1.2238 C   0  0  0  0  0  0  0  0  0  0  0  0
    7.3777   -3.2501   -0.4641 C   0  0  0  0  0  0  0  0  0  0  0  0
    1.8162   -8.1749    5.0158 C   0  0  2  0  0  0  0  0  0  0  0  0
    0.4249   -7.8699    5.6618 C   0  0  0  0  0  0  0  0  0  0  0  0
    2.3724   -9.4427    5.6877 C   0  0  0  0  0  0  0  0  0  0  0  0
    1.6514  -10.6369    5.0130 C   0  0  0  0  0  0  0  0  0  0  0  0
    0.9894  -10.1042    3.7275 C   0  0  0  0  0  0  0  0  0  0  0  0
    1.6316   -8.7233    3.5884 C   0  0  1  0  0  0  0  0  0  0  0  0
   -0.4514   -8.8443    1.6967 H   0  0  0  0  0  0  0  0  0  0  0  0
   -0.3895   -7.0805    1.1885 H   0  0  0  0  0  0  0  0  0  0  0  0
    3.6512   -7.8711    2.9244 H   0  0  0  0  0  0  0  0  0  0  0  0
    3.7885   -7.3015    5.2658 H   0  0  0  0  0  0  0  0  0  0  0  0
    1.4316   -5.6380    6.1983 H   0  0  0  0  0  0  0  0  0  0  0  0
    2.6600   -6.4440    7.1159 H   0  0  0  0  0  0  0  0  0  0  0  0
    3.1173   -4.0604    6.9847 H   0  0  0  0  0  0  0  0  0  0  0  0
    4.3641   -5.0335    6.2464 H   0  0  0  0  0  0  0  0  0  0  0  0
    1.4593   -2.8751    3.7961 H   0  0  0  0  0  0  0  0  0  0  0  0
    1.4326   -2.7578    5.5458 H   0  0  0  0  0  0  0  0  0  0  0  0
    1.0182   -4.2377    4.7163 H   0  0  0  0  0  0  0  0  0  0  0  0
    3.6603   -2.0163    5.8425 H   0  0  0  0  0  0  0  0  0  0  0  0
    5.2829   -3.4751    6.2762 H   0  0  0  0  0  0  0  0  0  0  0  0
    2.4665   -0.4672    4.1555 H   0  0  0  0  0  0  0  0  0  0  0  0
    2.4640   -1.4484    2.7138 H   0  0  0  0  0  0  0  0  0  0  0  0
    3.3401    0.0385    2.7241 H   0  0  0  0  0  0  0  0  0  0  0  0
    4.7277    0.1660    5.2629 H   0  0  0  0  0  0  0  0  0  0  0  0
    5.3983    0.4010    3.6545 H   0  0  0  0  0  0  0  0  0  0  0  0
    6.2031   -0.6563    4.7772 H   0  0  0  0  0  0  0  0  0  0  0  0
    3.4606   -1.6626    0.8022 H   0  0  0  0  0  0  0  0  0  0  0  0
    5.1080   -1.1629    0.8294 H   0  0  0  0  0  0  0  0  0  0  0  0
    2.2195   -3.3099    0.0072 H   0  0  0  0  0  0  0  0  0  0  0  0
    2.0773   -4.3885   -1.3704 H   0  0  0  0  0  0  0  0  0  0  0  0
    2.0592   -2.6564   -1.5934 H   0  0  0  0  0  0  0  0  0  0  0  0
    5.3436   -3.2141   -2.9916 H   0  0  0  0  0  0  0  0  0  0  0  0
    3.8478   -2.2675   -3.0648 H   0  0  0  0  0  0  0  0  0  0  0  0
    3.8052   -4.0136   -3.3350 H   0  0  0  0  0  0  0  0  0  0  0  0
    3.8309   -6.7446   -0.6098 H   0  0  0  0  0  0  0  0  0  0  0  0
    2.7451   -3.4426    2.1530 H   0  0  0  0  0  0  0  0  0  0  0  0
    4.6927   -4.9766    3.8305 H   0  0  0  0  0  0  0  0  0  0  0  0
    6.2717   -6.0016    1.5086 H   0  0  0  0  0  0  0  0  0  0  0  0
    6.4339   -4.1422    2.8202 H   0  0  0  0  0  0  0  0  0  0  0  0
    9.1646   -3.7678    1.4784 H   0  0  0  0  0  0  0  0  0  0  0  0
    9.0334   -5.2156    0.4562 H   0  0  0  0  0  0  0  0  0  0  0  0
    8.4368   -5.2407    2.1180 H   0  0  0  0  0  0  0  0  0  0  0  0
    8.4228   -3.2321   -0.7807 H   0  0  0  0  0  0  0  0  0  0  0  0
    7.0948   -2.2293   -0.2116 H   0  0  0  0  0  0  0  0  0  0  0  0
    6.8071   -3.6100   -1.3146 H   0  0  0  0  0  0  0  0  0  0  0  0
   -0.2673   -8.7101    5.6013 H   0  0  0  0  0  0  0  0  0  0  0  0
   -0.0780   -7.0210    5.1950 H   0  0  0  0  0  0  0  0  0  0  0  0
    0.5178   -7.6599    6.7265 H   0  0  0  0  0  0  0  0  0  0  0  0
    3.4434   -9.5274    5.4990 H   0  0  0  0  0  0  0  0  0  0  0  0
    2.2309   -9.4445    6.7697 H   0  0  0  0  0  0  0  0  0  0  0  0
    2.3688  -11.4312    4.7940 H   0  0  0  0  0  0  0  0  0  0  0  0
    0.8949  -11.0545    5.6809 H   0  0  0  0  0  0  0  0  0  0  0  0
    1.2046  -10.7456    2.8699 H   0  0  0  0  0  0  0  0  0  0  0  0
   -0.0951  -10.0570    3.8431 H   0  0  0  0  0  0  0  0  0  0  0  0
    2.6038   -8.9677    3.1671 H   0  0  0  0  0  0  0  0  0  0  0  0
  1  2  2  0
  1 41  1  0
  1 42  1  0
  2 40  1  0
  2  3  1  0
  3  4  2  0
  3  5  1  0
  5 29  1  0
  5  6  1  6
  5  7  1  0
  6 43  1  0
  7  8  1  0
  7 35  1  0
  7 44  1  1
  8  9  1  0
  8 45  1  0
  8 46  1  0
  9 10  1  0
  9 47  1  0
  9 48  1  0
 10 29  1  0
 10 11  1  6
 10 12  1  0
 11 49  1  0
 11 50  1  0
 11 51  1  0
 12 13  1  0
 12 14  1  0
 12 52  1  1
 13 53  1  0
 14 15  1  0
 14 16  1  0
 14 17  1  0
 15 54  1  0
 15 55  1  0
 15 56  1  0
 16 57  1  0
 16 58  1  0
 16 59  1  0
 18 17  1  1
 18 28  1  0
 18 31  1  0
 18 19  1  0
 19 20  1  0
 19 60  1  0
 19 61  1  0
 20 21  1  0
 21 22  1  0
 21 23  1  0
 21 24  1  0
 22 62  1  0
 22 63  1  0
 22 64  1  0
 23 65  1  0
 23 66  1  0
 23 67  1  0
 24 25  1  0
 25 26  1  6
 25 27  1  0
 25 30  1  0
 26 68  1  0
 27 28  1  0
 28 29  1  0
 28 69  1  1
 29 70  1  1
 30 32  1  0
 30 31  1  0
 30 71  1  1
 31 32  1  0
 31 72  1  1
 32 33  1  0
 32 34  1  0
 33 73  1  0
 33 74  1  0
 33 75  1  0
 34 76  1  0
 34 77  1  0
 34 78  1  0
 35 40  1  0
 35 36  1  1
 35 37  1  0
 36 79  1  0
 36 80  1  0
 36 81  1  0
 37 38  1  0
 37 82  1  0
 37 83  1  0
 38 39  1  0
 38 84  1  0
 38 85  1  0
 39 40  1  0
 39 86  1  0
 39 87  1  0
 40 88  1  6
M  END
>  <i_m_ct_stereo_status>  (322) 
1

>  <s_m_source_file>  (322) 
/var/tmp/pbs.5076255.sched01/tmp6w_bron9/120d4r_aq7a.sdf

>  <i_m_source_file_index>  (322) 
4

>  <i_lp_mmshare_version>  (322) 
48012

>  <i_f3d_flags>  (322) 
0

>  <s_epik_input>  (322) 
W0NIM11DKE8xKShbQ0gzXSlbQ0BIXShbT0hdKVtDQF0yKFtDSDNdKVtDSDJdW0NIMl1bQ0BASF0oW0NAQF0zKFtDSDNdKVtDQEhdKEMoPVtDSDJdKUM0PU8pW0NIMl1bQ0gyXVtDSDJdMylbQ0BdNChbT0hdKVtDQEhdMltDQEBIXShbQ0BdMTU2KU9bQ0BAXShbT0hdKShPQyhbQ0gzXSkoW0NIM10pT1tDSDJdNSlbQ0BASF03W0NASF02QzcoW0NIM10pW0NIM10=

>  <s_epik_cmdline>  (322) 
J2VwaWtfcHl0aG9uJywgJy1waHQnLCAnMi4wJywgJy1waCcsICc3LjAnLCAnLXRuJywgJzgnLCAnLW1hJywgJzIwMCcsICctaW1hZScsICc8aW5maWxlLm1hZT4nLCAnLW9tYWUnLCAnPG91dGZpbGUubWFlPic=

>  <r_lp_tautomer_probability>  (322) 
1

>  <r_epik_Ionization_Penalty>  (322) 
0.000190378

>  <r_epik_Ionization_Penalty_Charging>  (322) 
0

>  <r_epik_Ionization_Penalty_Neutral>  (322) 
0.000190378

>  <r_epik_State_Penalty>  (322) 
-0

>  <r_epik_Charging_Adjusted_Penalty>  (322) 
0

>  <i_epik_Tot_Q>  (322) 
0

>  <i_epik_Tot_abs_Q>  (322) 
0

>  <s_lp_Force_Field>  (322) 
OPLS3e

>  <r_lp_Energy>  (322) 
137.777

>  <b_lp_Chiralities_Consistent>  (322) 
1

>  <s_lp_Variant>  (322) 
81:0-1

>  <s_i_glide_gridfile>  (322) 
pfpi4k_grid

>  <i_i_glide_lignum>  (322) 
4

>  <i_i_glide_rotatable_bonds>  (322) 
3

>  <r_i_docking_score>  (322) 
-2.78066

>  <r_i_glide_ligand_efficiency>  (322) 
-0.0695166

>  <r_i_glide_ligand_efficiency_sa>  (322) 
-0.237743

>  <r_i_glide_ligand_efficiency_ln>  (322) 
-0.593034

>  <r_i_glide_gscore>  (322) 
-2.78066

>  <r_i_glide_lipo>  (322) 
-0.570922

>  <r_i_glide_hbond>  (322) 
-0.0459806

>  <r_i_glide_metal>  (322) 
-0

>  <r_i_glide_rewards>  (322) 
-0.0636659

>  <r_i_glide_evdw>  (322) 
-33.5122

>  <r_i_glide_ecoul>  (322) 
-2.61881

>  <r_i_glide_erotb>  (322) 
0

>  <r_i_glide_esite>  (322) 
-0.0316656

>  <r_i_glide_emodel>  (322) 
-40.9624

>  <r_i_glide_energy>  (322) 
-36.131

>  <r_i_glide_einternal>  (322) 
2.27632

>  <r_i_glide_intrahb_reward>  (322) 
-0

>  <i_i_glide_confnum>  (322) 
2

>  <i_i_glide_posenum>  (322) 
40

>  <r_i_glide_eff_state_penalty>  (322) 
0

>  <ligand_id>  (322) 
81

>  <original_smiles>  (322) 
C=C1C(=O)C2(O)C(CCC3(C)C(O)C(C)(C)OC45COC(C)(C)OC(O)(OC4C32)C2C5C2(C)C)C2(C)CCCC12

>  <smiles>  (322) 
[H]OC12OC3([H])C4([H])C5(O[H])C(=O)C(=C([H])[H])C6([H])C([H])([H])C([H])([H])C([H])([H])C6(C([H])([H])[H])C5([H])C([H])([H])C([H])([H])C4(C([H])([H])[H])C([H])(O[H])C(C([H])([H])[H])(C([H])([H])[H])OC3(C([H])([H])OC(C([H])([H])[H])(C([H])([H])[H])O1)C1([H])C2([H])C1(C([H])([H])[H])C([H])([H])[H]

$$$$
81:0:2
     RDKit          3D

 88 94  0  0  1  0  0  0  0  0999 V2000
   -0.3219   -7.8518    1.7008 C   0  0  0  0  0  0  0  0  0  0  0  0
    0.6928   -7.8404    2.5822 C   0  0  0  0  0  0  0  0  0  0  0  0
    1.3798   -6.5661    2.9187 C   0  0  0  0  0  0  0  0  0  0  0  0
    0.9250   -5.4717    2.5778 O   0  0  0  0  0  0  0  0  0  0  0  0
    2.6997   -6.6605    3.7390 C   0  0  2  0  0  0  0  0  0  0  0  0
    3.6264   -7.4311    2.9886 O   0  0  0  0  0  0  0  0  0  0  0  0
    2.4512   -7.5439    5.0382 C   0  0  1  0  0  0  0  0  0  0  0  0
    2.1712   -6.6970    6.3010 C   0  0  0  0  0  0  0  0  0  0  0  0
    3.1307   -5.5187    6.4358 C   0  0  0  0  0  0  0  0  0  0  0  0
    3.1031   -4.5136    5.2419 C   0  0  1  0  0  0  0  0  0  0  0  0
    1.6561   -3.9404    5.1716 C   0  0  0  0  0  0  0  0  0  0  0  0
    4.0991   -3.3599    5.6491 C   0  0  1  0  0  0  0  0  0  0  0  0
    5.3257   -3.9090    6.1102 O   0  0  0  0  0  0  0  0  0  0  0  0
    4.4661   -2.2025    4.6700 C   0  0  0  0  0  0  0  0  0  0  0  0
    3.2797   -1.3399    4.1761 C   0  0  0  0  0  0  0  0  0  0  0  0
    5.3857   -1.1807    5.3835 C   0  0  0  0  0  0  0  0  0  0  0  0
    5.3237   -2.7473    3.6652 O   0  0  0  0  0  0  0  0  0  0  0  0
    4.9050   -3.4657    2.5040 C   0  0  2  0  0  0  0  0  0  0  0  0
    4.6531   -2.3308    1.4547 C   0  0  0  0  0  0  0  0  0  0  0  0
    4.9021   -2.5170    0.0731 O   0  0  0  0  0  0  0  0  0  0  0  0
    4.1832   -3.4362   -0.6895 C   0  0  0  0  0  0  0  0  0  0  0  0
    2.6453   -3.3632   -0.5032 C   0  0  0  0  0  0  0  0  0  0  0  0
    4.4713   -3.0389   -2.1487 C   0  0  0  0  0  0  0  0  0  0  0  0
    4.7006   -4.7306   -0.5986 O   0  0  0  0  0  0  0  0  0  0  0  0
    4.5821   -5.4795    0.5759 C   0  0  2  0  0  0  0  0  0  0  0  0
    4.3621   -6.7899    0.1382 O   0  0  0  0  0  0  0  0  0  0  0  0
    3.5093   -5.1234    1.4223 O   0  0  0  0  0  0  0  0  0  0  0  0
    3.6498   -4.3783    2.6516 C   0  0  1  0  0  0  0  0  0  0  0  0
    3.5205   -5.3000    3.9420 C   0  0  2  0  0  0  0  0  0  0  0  0
    5.9092   -5.5078    1.3409 C   0  0  2  0  0  0  0  0  0  0  0  0
    6.1073   -4.4128    2.3438 C   0  0  1  0  0  0  0  0  0  0  0  0
    7.1631   -4.6393    1.2561 C   0  0  0  0  0  0  0  0  0  0  0  0
    8.4742   -5.2727    1.7007 C   0  0  0  0  0  0  0  0  0  0  0  0
    7.4831   -3.6103    0.1891 C   0  0  0  0  0  0  0  0  0  0  0  0
    1.3758   -8.7035    4.8610 C   0  0  2  0  0  0  0  0  0  0  0  0
   -0.0050   -8.3653    5.5073 C   0  0  0  0  0  0  0  0  0  0  0  0
    1.8060  -10.0887    5.3728 C   0  0  0  0  0  0  0  0  0  0  0  0
    1.0168  -11.1245    4.5323 C   0  0  0  0  0  0  0  0  0  0  0  0
    0.4505  -10.3721    3.3147 C   0  0  0  0  0  0  0  0  0  0  0  0
    1.1967   -9.0404    3.3728 C   0  0  1  0  0  0  0  0  0  0  0  0
   -0.8636   -8.7546    1.4758 H   0  0  0  0  0  0  0  0  0  0  0  0
   -0.6127   -6.9591    1.1695 H   0  0  0  0  0  0  0  0  0  0  0  0
    4.4071   -7.5593    3.5052 H   0  0  0  0  0  0  0  0  0  0  0  0
    3.3985   -8.0393    5.2588 H   0  0  0  0  0  0  0  0  0  0  0  0
    1.1530   -6.3194    6.3522 H   0  0  0  0  0  0  0  0  0  0  0  0
    2.2821   -7.3339    7.1830 H   0  0  0  0  0  0  0  0  0  0  0  0
    2.9294   -4.9964    7.3749 H   0  0  0  0  0  0  0  0  0  0  0  0
    4.1190   -5.9636    6.5518 H   0  0  0  0  0  0  0  0  0  0  0  0
    1.4773   -3.2832    4.3301 H   0  0  0  0  0  0  0  0  0  0  0  0
    1.4039   -3.3894    6.0808 H   0  0  0  0  0  0  0  0  0  0  0  0
    0.8992   -4.7126    5.0547 H   0  0  0  0  0  0  0  0  0  0  0  0
    3.6657   -2.8792    6.5285 H   0  0  0  0  0  0  0  0  0  0  0  0
    5.7636   -4.3019    5.3676 H   0  0  0  0  0  0  0  0  0  0  0  0
    2.6596   -1.0341    5.0187 H   0  0  0  0  0  0  0  0  0  0  0  0
    2.6235   -1.8200    3.4619 H   0  0  0  0  0  0  0  0  0  0  0  0
    3.6190   -0.4267    3.6865 H   0  0  0  0  0  0  0  0  0  0  0  0
    4.9051   -0.7349    6.2541 H   0  0  0  0  0  0  0  0  0  0  0  0
    5.6708   -0.3694    4.7110 H   0  0  0  0  0  0  0  0  0  0  0  0
    6.3090   -1.6345    5.7295 H   0  0  0  0  0  0  0  0  0  0  0  0
    3.6698   -1.8787    1.5634 H   0  0  0  0  0  0  0  0  0  0  0  0
    5.3505   -1.5274    1.6979 H   0  0  0  0  0  0  0  0  0  0  0  0
    2.3189   -3.3203    0.5298 H   0  0  0  0  0  0  0  0  0  0  0  0
    2.1638   -4.2075   -0.9919 H   0  0  0  0  0  0  0  0  0  0  0  0
    2.2831   -2.4598   -0.9760 H   0  0  0  0  0  0  0  0  0  0  0  0
    5.5399   -3.0881   -2.3580 H   0  0  0  0  0  0  0  0  0  0  0  0
    4.1278   -2.0222   -2.3356 H   0  0  0  0  0  0  0  0  0  0  0  0
    3.9509   -3.7143   -2.8278 H   0  0  0  0  0  0  0  0  0  0  0  0
    3.6990   -6.7423   -0.5318 H   0  0  0  0  0  0  0  0  0  0  0  0
    2.7734   -3.7441    2.6519 H   0  0  0  0  0  0  0  0  0  0  0  0
    4.5321   -5.6361    4.1604 H   0  0  0  0  0  0  0  0  0  0  0  0
    6.0977   -6.4940    1.7623 H   0  0  0  0  0  0  0  0  0  0  0  0
    6.4195   -4.7852    3.3162 H   0  0  0  0  0  0  0  0  0  0  0  0
    9.1566   -4.5022    2.0655 H   0  0  0  0  0  0  0  0  0  0  0  0
    8.9564   -5.8061    0.8790 H   0  0  0  0  0  0  0  0  0  0  0  0
    8.3031   -5.9849    2.5112 H   0  0  0  0  0  0  0  0  0  0  0  0
    8.5375   -3.6379   -0.0928 H   0  0  0  0  0  0  0  0  0  0  0  0
    7.2764   -2.6097    0.5677 H   0  0  0  0  0  0  0  0  0  0  0  0
    6.9188   -3.8125   -0.7153 H   0  0  0  0  0  0  0  0  0  0  0  0
   -0.7604   -9.1264    5.3203 H   0  0  0  0  0  0  0  0  0  0  0  0
   -0.4239   -7.4251    5.1449 H   0  0  0  0  0  0  0  0  0  0  0  0
    0.0683   -8.3085    6.5929 H   0  0  0  0  0  0  0  0  0  0  0  0
    2.8725  -10.2414    5.1999 H   0  0  0  0  0  0  0  0  0  0  0  0
    1.6267  -10.2220    6.4411 H   0  0  0  0  0  0  0  0  0  0  0  0
    1.6800  -11.9378    4.2279 H   0  0  0  0  0  0  0  0  0  0  0  0
    0.2127  -11.5666    5.1212 H   0  0  0  0  0  0  0  0  0  0  0  0
    0.6310  -10.9140    2.3866 H   0  0  0  0  0  0  0  0  0  0  0  0
   -0.6263  -10.2387    3.4116 H   0  0  0  0  0  0  0  0  0  0  0  0
    2.1637   -9.3001    2.9464 H   0  0  0  0  0  0  0  0  0  0  0  0
  1  2  2  0
  1 41  1  0
  1 42  1  0
  2 40  1  0
  2  3  1  0
  3  4  2  0
  3  5  1  0
  5 29  1  0
  5  6  1  6
  5  7  1  0
  6 43  1  0
  7  8  1  0
  7 35  1  0
  7 44  1  1
  8  9  1  0
  8 45  1  0
  8 46  1  0
  9 10  1  0
  9 47  1  0
  9 48  1  0
 10 29  1  0
 10 11  1  6
 10 12  1  0
 11 49  1  0
 11 50  1  0
 11 51  1  0
 12 13  1  0
 12 14  1  0
 12 52  1  1
 13 53  1  0
 14 15  1  0
 14 16  1  0
 14 17  1  0
 15 54  1  0
 15 55  1  0
 15 56  1  0
 16 57  1  0
 16 58  1  0
 16 59  1  0
 18 17  1  1
 18 28  1  0
 18 31  1  0
 18 19  1  0
 19 20  1  0
 19 60  1  0
 19 61  1  0
 20 21  1  0
 21 22  1  0
 21 23  1  0
 21 24  1  0
 22 62  1  0
 22 63  1  0
 22 64  1  0
 23 65  1  0
 23 66  1  0
 23 67  1  0
 24 25  1  0
 25 26  1  6
 25 27  1  0
 25 30  1  0
 26 68  1  0
 27 28  1  0
 28 29  1  0
 28 69  1  1
 29 70  1  1
 30 32  1  0
 30 31  1  0
 30 71  1  1
 31 32  1  0
 31 72  1  1
 32 33  1  0
 32 34  1  0
 33 73  1  0
 33 74  1  0
 33 75  1  0
 34 76  1  0
 34 77  1  0
 34 78  1  0
 35 40  1  0
 35 36  1  1
 35 37  1  0
 36 79  1  0
 36 80  1  0
 36 81  1  0
 37 38  1  0
 37 82  1  0
 37 83  1  0
 38 39  1  0
 38 84  1  0
 38 85  1  0
 39 40  1  0
 39 86  1  0
 39 87  1  0
 40 88  1  6
M  END
>  <i_m_ct_stereo_status>  (323) 
1

>  <s_m_source_file>  (323) 
/var/tmp/pbs.5076255.sched01/tmp6w_bron9/120d4r_aq7a.sdf

>  <i_m_source_file_index>  (323) 
4

>  <i_lp_mmshare_version>  (323) 
48012

>  <i_f3d_flags>  (323) 
0

>  <s_epik_input>  (323) 
W0NIM11DKE8xKShbQ0gzXSlbQ0BIXShbT0hdKVtDQF0yKFtDSDNdKVtDSDJdW0NIMl1bQ0BASF0oW0NAQF0zKFtDSDNdKVtDQEhdKEMoPVtDSDJdKUM0PU8pW0NIMl1bQ0gyXVtDSDJdMylbQ0BdNChbT0hdKVtDQEhdMltDQEBIXShbQ0BdMTU2KU9bQ0BAXShbT0hdKShPQyhbQ0gzXSkoW0NIM10pT1tDSDJdNSlbQ0BASF03W0NASF02QzcoW0NIM10pW0NIM10=

>  <s_epik_cmdline>  (323) 
J2VwaWtfcHl0aG9uJywgJy1waHQnLCAnMi4wJywgJy1waCcsICc3LjAnLCAnLXRuJywgJzgnLCAnLW1hJywgJzIwMCcsICctaW1hZScsICc8aW5maWxlLm1hZT4nLCAnLW9tYWUnLCAnPG91dGZpbGUubWFlPic=

>  <r_lp_tautomer_probability>  (323) 
1

>  <r_epik_Ionization_Penalty>  (323) 
0.000190378

>  <r_epik_Ionization_Penalty_Charging>  (323) 
0

>  <r_epik_Ionization_Penalty_Neutral>  (323) 
0.000190378

>  <r_epik_State_Penalty>  (323) 
-0

>  <r_epik_Charging_Adjusted_Penalty>  (323) 
0

>  <i_epik_Tot_Q>  (323) 
0

>  <i_epik_Tot_abs_Q>  (323) 
0

>  <s_lp_Force_Field>  (323) 
OPLS3e

>  <r_lp_Energy>  (323) 
137.777

>  <b_lp_Chiralities_Consistent>  (323) 
1

>  <s_lp_Variant>  (323) 
81:0-1

>  <s_i_glide_gridfile>  (323) 
pfpi4k_grid

>  <i_i_glide_lignum>  (323) 
4

>  <i_i_glide_rotatable_bonds>  (323) 
3

>  <r_i_docking_score>  (323) 
-2.70381

>  <r_i_glide_ligand_efficiency>  (323) 
-0.0675952

>  <r_i_glide_ligand_efficiency_sa>  (323) 
-0.231172

>  <r_i_glide_ligand_efficiency_ln>  (323) 
-0.576642

>  <r_i_glide_gscore>  (323) 
-2.70381

>  <r_i_glide_lipo>  (323) 
-0.493115

>  <r_i_glide_hbond>  (323) 
-0.0355499

>  <r_i_glide_metal>  (323) 
-0

>  <r_i_glide_rewards>  (323) 
-0.142117

>  <r_i_glide_evdw>  (323) 
-32.6938

>  <r_i_glide_ecoul>  (323) 
-2.48891

>  <r_i_glide_erotb>  (323) 
0

>  <r_i_glide_esite>  (323) 
-0.0249982

>  <r_i_glide_emodel>  (323) 
-40.754

>  <r_i_glide_energy>  (323) 
-35.1827

>  <r_i_glide_einternal>  (323) 
0.377978

>  <r_i_glide_intrahb_reward>  (323) 
-0

>  <i_i_glide_confnum>  (323) 
2

>  <i_i_glide_posenum>  (323) 
9

>  <r_i_glide_eff_state_penalty>  (323) 
0

>  <ligand_id>  (323) 
81

>  <original_smiles>  (323) 
C=C1C(=O)C2(O)C(CCC3(C)C(O)C(C)(C)OC45COC(C)(C)OC(O)(OC4C32)C2C5C2(C)C)C2(C)CCCC12

>  <smiles>  (323) 
[H]OC12OC3([H])C4([H])C5(O[H])C(=O)C(=C([H])[H])C6([H])C([H])([H])C([H])([H])C([H])([H])C6(C([H])([H])[H])C5([H])C([H])([H])C([H])([H])C4(C([H])([H])[H])C([H])(O[H])C(C([H])([H])[H])(C([H])([H])[H])OC3(C([H])([H])OC(C([H])([H])[H])(C([H])([H])[H])O1)C1([H])C2([H])C1(C([H])([H])[H])C([H])([H])[H]

$$$$
82:0:0
     RDKit          3D

 96100  0  0  1  0  0  0  0  0999 V2000
   -1.5331    1.9547    4.2842 C   0  0  0  0  0  0  0  0  0  0  0  0
   -0.6599    0.9247    3.6014 C   0  0  0  0  0  0  0  0  0  0  0  0
   -0.7624    0.9267    2.0867 C   0  0  0  0  0  0  0  0  0  0  0  0
    0.1589    0.0720    4.2482 C   0  0  0  0  0  0  0  0  0  0  0  0
    0.3769   -0.0212    5.7469 C   0  0  0  0  0  0  0  0  0  0  0  0
    0.3884   -1.4716    6.2534 C   0  0  0  0  0  0  0  0  0  0  0  0
    1.0774   -1.7023    7.6261 C   0  0  2  0  0  0  0  0  0  0  0  0
    2.5462   -1.1960    7.6836 C   0  0  0  0  0  0  0  0  0  0  0  0
    0.8586   -3.1628    8.1632 C   0  0  2  0  0  0  0  0  0  0  0  0
    1.6241   -3.5200    9.4758 C   0  0  0  0  0  0  0  0  0  0  0  0
    2.0015   -5.0131    9.4026 C   0  0  0  0  0  0  0  0  0  0  0  0
    1.1386   -5.5799    8.2673 C   0  0  2  0  0  0  0  0  0  0  0  0
   -0.2476   -5.8681    8.9279 C   0  0  0  0  0  0  0  0  0  0  0  0
    1.5659   -6.9370    7.6089 C   0  0  2  0  0  0  0  0  0  0  0  0
    3.0590   -7.2664    7.4167 C   0  0  0  0  0  0  0  0  0  0  0  0
    3.2447   -8.7235    6.9476 C   0  0  0  0  0  0  0  0  0  0  0  0
    2.3780   -9.1955    5.7377 C   0  0  1  0  0  0  0  0  0  0  0  0
    0.8819   -8.6572    5.7854 C   0  0  2  0  0  0  0  0  0  0  0  0
    0.0870   -9.5031    6.8247 C   0  0  0  0  0  0  0  0  0  0  0  0
    0.1184   -8.9054    4.4475 C   0  0  0  0  0  0  0  0  0  0  0  0
    0.9523   -8.8014    3.1641 C   0  0  0  0  0  0  0  0  0  0  0  0
    2.1626   -9.7671    3.1784 C   0  0  1  0  0  0  0  0  0  0  0  0
    1.6213  -11.2227    3.3463 C   0  0  0  0  0  0  0  0  0  0  0  0
    2.8567   -9.7706    1.7794 C   0  0  0  0  0  0  0  0  0  0  0  0
    3.7439   -8.5719    1.4472 C   0  0  0  0  0  0  0  0  0  0  0  0
    4.7766   -8.3302    2.5556 C   0  0  1  0  0  0  0  0  0  0  0  0
    5.7627   -7.2063    2.1817 C   0  0  0  0  0  0  0  0  0  0  0  0
    4.0581   -8.1142    3.9189 C   0  0  1  0  0  0  0  0  0  0  0  0
    3.3946   -6.7271    3.9239 C   0  0  0  0  0  0  0  0  0  0  0  0
    3.1607   -9.3596    4.3411 C   0  0  1  0  0  0  0  0  0  0  0  0
    4.1690  -10.5431    4.5530 C   0  0  0  0  0  0  0  0  0  0  0  0
    0.8096   -7.1917    6.2946 C   0  0  0  0  0  0  0  0  0  0  0  0
    0.1401   -6.1847    5.6722 C   0  0  0  0  0  0  0  0  0  0  0  0
    0.0264   -4.7466    6.1766 C   0  0  0  0  0  0  0  0  0  0  0  0
    1.1083   -4.4011    7.2363 C   0  0  1  0  0  0  0  0  0  0  0  0
    2.4510   -4.2009    6.4889 C   0  0  0  0  0  0  0  0  0  0  0  0
   -2.5819    1.7517    4.0644 H   0  0  0  0  0  0  0  0  0  0  0  0
   -1.2899    2.9446    3.8994 H   0  0  0  0  0  0  0  0  0  0  0  0
   -1.4202    1.9934    5.3655 H   0  0  0  0  0  0  0  0  0  0  0  0
   -1.7853    0.7112    1.7738 H   0  0  0  0  0  0  0  0  0  0  0  0
   -0.1050    0.1873    1.6246 H   0  0  0  0  0  0  0  0  0  0  0  0
   -0.4906    1.9045    1.6852 H   0  0  0  0  0  0  0  0  0  0  0  0
    0.7486   -0.6092    3.6538 H   0  0  0  0  0  0  0  0  0  0  0  0
    1.3375    0.4681    5.8858 H   0  0  0  0  0  0  0  0  0  0  0  0
   -0.3424    0.5455    6.3357 H   0  0  0  0  0  0  0  0  0  0  0  0
   -0.6465   -1.8170    6.2935 H   0  0  0  0  0  0  0  0  0  0  0  0
    0.8594   -2.0727    5.4809 H   0  0  0  0  0  0  0  0  0  0  0  0
    0.5378   -1.0687    8.3248 H   0  0  0  0  0  0  0  0  0  0  0  0
    3.2412   -1.8298    7.1349 H   0  0  0  0  0  0  0  0  0  0  0  0
    2.8990   -1.1072    8.7093 H   0  0  0  0  0  0  0  0  0  0  0  0
    2.6733   -0.1905    7.2946 H   0  0  0  0  0  0  0  0  0  0  0  0
   -0.2014   -3.1951    8.4103 H   0  0  0  0  0  0  0  0  0  0  0  0
    2.5563   -2.9737    9.6011 H   0  0  0  0  0  0  0  0  0  0  0  0
    1.0117   -3.3028   10.3555 H   0  0  0  0  0  0  0  0  0  0  0  0
    3.0588   -5.0903    9.1626 H   0  0  0  0  0  0  0  0  0  0  0  0
    1.8569   -5.5216   10.3551 H   0  0  0  0  0  0  0  0  0  0  0  0
   -0.9842   -6.2285    8.2076 H   0  0  0  0  0  0  0  0  0  0  0  0
   -0.6899   -5.0136    9.4380 H   0  0  0  0  0  0  0  0  0  0  0  0
   -0.1567   -6.6416    9.6924 H   0  0  0  0  0  0  0  0  0  0  0  0
    1.2494   -7.6874    8.3254 H   0  0  0  0  0  0  0  0  0  0  0  0
    3.5685   -6.6086    6.7183 H   0  0  0  0  0  0  0  0  0  0  0  0
    3.5939   -7.1393    8.3590 H   0  0  0  0  0  0  0  0  0  0  0  0
    4.3028   -8.8975    6.7707 H   0  0  0  0  0  0  0  0  0  0  0  0
    2.9995   -9.3593    7.8013 H   0  0  0  0  0  0  0  0  0  0  0  0
    2.2207  -10.2395    5.9962 H   0  0  0  0  0  0  0  0  0  0  0  0
   -0.0655  -10.5311    6.4932 H   0  0  0  0  0  0  0  0  0  0  0  0
   -0.9001   -9.0787    7.0030 H   0  0  0  0  0  0  0  0  0  0  0  0
    0.5799   -9.5984    7.7886 H   0  0  0  0  0  0  0  0  0  0  0  0
   -0.2936   -9.9108    4.4509 H   0  0  0  0  0  0  0  0  0  0  0  0
   -0.7891   -8.3107    4.3698 H   0  0  0  0  0  0  0  0  0  0  0  0
    0.3090   -9.0433    2.3160 H   0  0  0  0  0  0  0  0  0  0  0  0
    1.2492   -7.7724    3.0049 H   0  0  0  0  0  0  0  0  0  0  0  0
    2.3742  -11.9777    3.1239 H   0  0  0  0  0  0  0  0  0  0  0  0
    0.7879  -11.4099    2.6682 H   0  0  0  0  0  0  0  0  0  0  0  0
    1.2677  -11.4380    4.3548 H   0  0  0  0  0  0  0  0  0  0  0  0
    3.4827  -10.6518    1.6880 H   0  0  0  0  0  0  0  0  0  0  0  0
    2.1117   -9.8657    0.9947 H   0  0  0  0  0  0  0  0  0  0  0  0
    4.2593   -8.7751    0.5084 H   0  0  0  0  0  0  0  0  0  0  0  0
    3.1295   -7.6959    1.2571 H   0  0  0  0  0  0  0  0  0  0  0  0
    5.3968   -9.2172    2.6229 H   0  0  0  0  0  0  0  0  0  0  0  0
    5.2572   -6.2611    1.9770 H   0  0  0  0  0  0  0  0  0  0  0  0
    6.3264   -7.4749    1.2862 H   0  0  0  0  0  0  0  0  0  0  0  0
    6.4869   -7.0392    2.9829 H   0  0  0  0  0  0  0  0  0  0  0  0
    4.8408   -8.0413    4.6737 H   0  0  0  0  0  0  0  0  0  0  0  0
    2.9657   -6.4318    2.9711 H   0  0  0  0  0  0  0  0  0  0  0  0
    4.1196   -5.9550    4.1889 H   0  0  0  0  0  0  0  0  0  0  0  0
    2.5932   -6.6971    4.6354 H   0  0  0  0  0  0  0  0  0  0  0  0
    4.5646  -10.9358    3.6186 H   0  0  0  0  0  0  0  0  0  0  0  0
    3.7222  -11.4030    5.0507 H   0  0  0  0  0  0  0  0  0  0  0  0
    5.0311  -10.2554    5.1505 H   0  0  0  0  0  0  0  0  0  0  0  0
   -0.3836   -6.3504    4.7446 H   0  0  0  0  0  0  0  0  0  0  0  0
    0.1112   -4.1028    5.3055 H   0  0  0  0  0  0  0  0  0  0  0  0
   -0.9807   -4.6042    6.5707 H   0  0  0  0  0  0  0  0  0  0  0  0
    2.6570   -5.0050    5.8048 H   0  0  0  0  0  0  0  0  0  0  0  0
    3.2996   -4.1133    7.1617 H   0  0  0  0  0  0  0  0  0  0  0  0
    2.4584   -3.3159    5.8605 H   0  0  0  0  0  0  0  0  0  0  0  0
  1  2  1  0
  1 37  1  0
  1 38  1  0
  1 39  1  0
  2  3  1  0
  2  4  2  3
  3 40  1  0
  3 41  1  0
  3 42  1  0
  4  5  1  0
  4 43  1  0
  5  6  1  0
  5 44  1  0
  5 45  1  0
  6  7  1  0
  6 46  1  0
  6 47  1  0
  7  8  1  0
  7  9  1  0
  7 48  1  1
  8 49  1  0
  8 50  1  0
  8 51  1  0
  9 35  1  0
  9 10  1  0
  9 52  1  1
 10 11  1  0
 10 53  1  0
 10 54  1  0
 11 12  1  0
 11 55  1  0
 11 56  1  0
 12 35  1  0
 12 13  1  1
 12 14  1  0
 13 57  1  0
 13 58  1  0
 13 59  1  0
 14 32  1  0
 14 15  1  0
 14 60  1  1
 15 16  1  0
 15 61  1  0
 15 62  1  0
 16 17  1  0
 16 63  1  0
 16 64  1  0
 17 30  1  0
 17 18  1  0
 17 65  1  1
 18 19  1  1
 18 20  1  0
 18 32  1  0
 19 66  1  0
 19 67  1  0
 19 68  1  0
 20 21  1  0
 20 69  1  0
 20 70  1  0
 21 22  1  0
 21 71  1  0
 21 72  1  0
 22 30  1  0
 22 23  1  1
 22 24  1  0
 23 73  1  0
 23 74  1  0
 23 75  1  0
 24 25  1  0
 24 76  1  0
 24 77  1  0
 25 26  1  0
 25 78  1  0
 25 79  1  0
 26 27  1  0
 26 28  1  0
 26 80  1  1
 27 81  1  0
 27 82  1  0
 27 83  1  0
 28 29  1  0
 28 30  1  0
 28 84  1  1
 29 85  1  0
 29 86  1  0
 29 87  1  0
 30 31  1  1
 31 88  1  0
 31 89  1  0
 31 90  1  0
 32 33  2  0
 33 34  1  0
 33 91  1  0
 34 35  1  0
 34 92  1  0
 34 93  1  0
 35 36  1  6
 36 94  1  0
 36 95  1  0
 36 96  1  0
M  END
>  <i_m_ct_stereo_status>  (324) 
1

>  <s_m_source_file>  (324) 
/var/tmp/pbs.5076255.sched01/tmp6w_bron9/120d4r_aq7a.sdf

>  <i_m_source_file_index>  (324) 
5

>  <i_lp_mmshare_version>  (324) 
48012

>  <i_f3d_flags>  (324) 
0

>  <s_epik_input>  (324) 
W0NIM11DKFtDSDNdKT1bQ0hdW0NIMl1bQ0gyXVtDQEhdKFtDSDNdKVtDQEhdKFtDSDJdW0NIMl0xKVtDQF0yKFtDSDNdKVtDSDJdW0NIXT1DKFtDQEBIXTNbQ0BAXTEyW0NIM10pW0NAXTQoW0NIM10pW0NASF0oW0NIMl1bQ0gyXTMpW0NAQF01KFtDSDNdKVtDQEBdKFtDSDNdKShbQ0gyXVtDSDJdNClbQ0gyXVtDSDJdW0NAQEhdKFtDSDNdKVtDQEhdNVtDSDNd

>  <s_epik_cmdline>  (324) 
J2VwaWtfcHl0aG9uJywgJy1waHQnLCAnMi4wJywgJy1waCcsICc3LjAnLCAnLXRuJywgJzgnLCAnLW1hJywgJzIwMCcsICctaW1hZScsICc8aW5maWxlLm1hZT4nLCAnLW9tYWUnLCAnPG91dGZpbGUubWFlPic=

>  <r_lp_tautomer_probability>  (324) 
1

>  <r_epik_Ionization_Penalty>  (324) 
0

>  <r_epik_Ionization_Penalty_Charging>  (324) 
0

>  <r_epik_Ionization_Penalty_Neutral>  (324) 
0

>  <r_epik_State_Penalty>  (324) 
-0

>  <r_epik_Charging_Adjusted_Penalty>  (324) 
0

>  <i_epik_Tot_Q>  (324) 
0

>  <i_epik_Tot_abs_Q>  (324) 
0

>  <s_lp_Force_Field>  (324) 
OPLS3e

>  <r_lp_Energy>  (324) 
103.274

>  <b_lp_Chiralities_Consistent>  (324) 
1

>  <s_lp_Variant>  (324) 
82:0-1

>  <s_i_glide_gridfile>  (324) 
pfpi4k_grid

>  <i_i_glide_lignum>  (324) 
5

>  <i_i_glide_rotatable_bonds>  (324) 
4

>  <r_i_docking_score>  (324) 
-1.16015

>  <r_i_glide_ligand_efficiency>  (324) 
-0.0322265

>  <r_i_glide_ligand_efficiency_sa>  (324) 
-0.106409

>  <r_i_glide_ligand_efficiency_ln>  (324) 
-0.253114

>  <r_i_glide_gscore>  (324) 
-1.16015

>  <r_i_glide_lipo>  (324) 
-0.225322

>  <r_i_glide_hbond>  (324) 
0

>  <r_i_glide_metal>  (324) 
-0

>  <r_i_glide_rewards>  (324) 
-0.0486709

>  <r_i_glide_evdw>  (324) 
-22.8502

>  <r_i_glide_ecoul>  (324) 
-0.526913

>  <r_i_glide_erotb>  (324) 
0.335388

>  <r_i_glide_esite>  (324) 
0

>  <r_i_glide_emodel>  (324) 
-21.8823

>  <r_i_glide_energy>  (324) 
-23.3771

>  <r_i_glide_einternal>  (324) 
5.65424

>  <r_i_glide_intrahb_reward>  (324) 
-0

>  <i_i_glide_confnum>  (324) 
4

>  <i_i_glide_posenum>  (324) 
1

>  <r_i_glide_eff_state_penalty>  (324) 
0

>  <ligand_id>  (324) 
82

>  <original_smiles>  (324) 
CC(C)=CCCC(C)C1CCC2(C)C3CCC4C(C)(CCC5(C)CCC(C)C(C)C45C)C3=CCC12C

>  <smiles>  (324) 
[H]C(=C(C([H])([H])[H])C([H])([H])[H])C([H])([H])C([H])([H])C([H])(C([H])([H])[H])C1([H])C([H])([H])C([H])([H])C2(C([H])([H])[H])C3([H])C(=C([H])C([H])([H])C12C([H])([H])[H])C1(C([H])([H])[H])C([H])([H])C([H])([H])C2(C([H])([H])[H])C([H])([H])C([H])([H])C([H])(C([H])([H])[H])C([H])(C([H])([H])[H])C2(C([H])([H])[H])C1([H])C([H])([H])C3([H])[H]

$$$$
82:0:1
     RDKit          3D

 96100  0  0  1  0  0  0  0  0999 V2000
   -0.9199    1.4612    2.2011 C   0  0  0  0  0  0  0  0  0  0  0  0
    0.2911    1.3357    3.1015 C   0  0  0  0  0  0  0  0  0  0  0  0
    1.5618    1.9509    2.6069 C   0  0  0  0  0  0  0  0  0  0  0  0
    0.2787    0.7182    4.3132 C   0  0  0  0  0  0  0  0  0  0  0  0
   -0.9052    0.0362    5.0429 C   0  0  0  0  0  0  0  0  0  0  0  0
   -0.5226   -1.2992    5.7125 C   0  0  0  0  0  0  0  0  0  0  0  0
    0.3942   -1.2557    6.9867 C   0  0  2  0  0  0  0  0  0  0  0  0
    1.8301   -0.6103    6.7664 C   0  0  0  0  0  0  0  0  0  0  0  0
    0.4249   -2.6301    7.7308 C   0  0  2  0  0  0  0  0  0  0  0  0
    1.3963   -2.6756    8.9547 C   0  0  0  0  0  0  0  0  0  0  0  0
    1.9864   -4.0895    9.0289 C   0  0  0  0  0  0  0  0  0  0  0  0
    1.0819   -4.9368    8.1305 C   0  0  2  0  0  0  0  0  0  0  0  0
   -0.1668   -5.2830    9.0160 C   0  0  0  0  0  0  0  0  0  0  0  0
    1.6241   -6.3160    7.6145 C   0  0  2  0  0  0  0  0  0  0  0  0
    3.1166   -6.4714    7.2596 C   0  0  0  0  0  0  0  0  0  0  0  0
    3.4549   -7.9531    6.9929 C   0  0  0  0  0  0  0  0  0  0  0  0
    2.5280   -8.7267    5.9974 C   0  0  1  0  0  0  0  0  0  0  0  0
    0.9847   -8.3832    6.1792 C   0  0  2  0  0  0  0  0  0  0  0  0
    0.4384   -9.1300    7.4370 C   0  0  0  0  0  0  0  0  0  0  0  0
    0.1067   -8.9384    5.0130 C   0  0  0  0  0  0  0  0  0  0  0  0
    0.7561   -8.9443    3.6256 C   0  0  0  0  0  0  0  0  0  0  0  0
    2.0903   -9.7367    3.6077 C   0  0  1  0  0  0  0  0  0  0  0  0
    1.7855  -11.1988    4.0599 C   0  0  0  0  0  0  0  0  0  0  0  0
    2.6025   -9.8843    2.1410 C   0  0  0  0  0  0  0  0  0  0  0  0
    3.2591   -8.6519    1.5093 C   0  0  0  0  0  0  0  0  0  0  0  0
    4.3675   -8.0969    2.4164 C   0  0  1  0  0  0  0  0  0  0  0  0
    5.1309   -6.9401    1.7492 C   0  0  0  0  0  0  0  0  0  0  0  0
    3.7927   -7.7576    3.8199 C   0  0  1  0  0  0  0  0  0  0  0  0
    2.9401   -6.4790    3.7201 C   0  0  0  0  0  0  0  0  0  0  0  0
    3.1481   -9.0177    4.5460 C   0  0  1  0  0  0  0  0  0  0  0  0
    4.3376  -10.0221    4.7755 C   0  0  0  0  0  0  0  0  0  0  0  0
    0.7627   -6.8624    6.4676 C   0  0  0  0  0  0  0  0  0  0  0  0
   -0.1155   -6.0802    5.8120 C   0  0  0  0  0  0  0  0  0  0  0  0
   -0.3794   -4.5963    6.1173 C   0  0  0  0  0  0  0  0  0  0  0  0
    0.7508   -3.9635    6.9588 C   0  0  1  0  0  0  0  0  0  0  0  0
    1.9477   -3.7135    5.9992 C   0  0  0  0  0  0  0  0  0  0  0  0
   -0.6998    0.9414    1.2560 H   0  0  0  0  0  0  0  0  0  0  0  0
   -1.1041    2.5336    2.0505 H   0  0  0  0  0  0  0  0  0  0  0  0
   -1.8162    1.0266    2.6433 H   0  0  0  0  0  0  0  0  0  0  0  0
    1.8832    1.4856    1.6745 H   0  0  0  0  0  0  0  0  0  0  0  0
    2.3965    1.8408    3.3148 H   0  0  0  0  0  0  0  0  0  0  0  0
    1.4366    3.0235    2.4527 H   0  0  0  0  0  0  0  0  0  0  0  0
    1.2313    0.7727    4.7333 H   0  0  0  0  0  0  0  0  0  0  0  0
   -1.3033    0.7222    5.7835 H   0  0  0  0  0  0  0  0  0  0  0  0
   -1.7076   -0.1927    4.3619 H   0  0  0  0  0  0  0  0  0  0  0  0
   -1.4768   -1.7981    5.9807 H   0  0  0  0  0  0  0  0  0  0  0  0
   -0.1042   -1.9359    4.9409 H   0  0  0  0  0  0  0  0  0  0  0  0
   -0.1227   -0.5701    7.6549 H   0  0  0  0  0  0  0  0  0  0  0  0
    2.4520   -1.2141    6.0845 H   0  0  0  0  0  0  0  0  0  0  0  0
    2.3426   -0.4711    7.7073 H   0  0  0  0  0  0  0  0  0  0  0  0
    1.7721    0.3973    6.4452 H   0  0  0  0  0  0  0  0  0  0  0  0
   -0.5846   -2.7577    8.1487 H   0  0  0  0  0  0  0  0  0  0  0  0
    2.2566   -2.0279    8.8851 H   0  0  0  0  0  0  0  0  0  0  0  0
    0.8927   -2.3646    9.8690 H   0  0  0  0  0  0  0  0  0  0  0  0
    3.0114   -4.0647    8.6544 H   0  0  0  0  0  0  0  0  0  0  0  0
    2.0348   -4.4348   10.0587 H   0  0  0  0  0  0  0  0  0  0  0  0
   -0.9290   -5.8390    8.4734 H   0  0  0  0  0  0  0  0  0  0  0  0
   -0.6583   -4.4188    9.4607 H   0  0  0  0  0  0  0  0  0  0  0  0
    0.1275   -5.9030    9.8631 H   0  0  0  0  0  0  0  0  0  0  0  0
    1.5117   -6.9644    8.4747 H   0  0  0  0  0  0  0  0  0  0  0  0
    3.4275   -5.8644    6.4179 H   0  0  0  0  0  0  0  0  0  0  0  0
    3.7320   -6.1386    8.0910 H   0  0  0  0  0  0  0  0  0  0  0  0
    4.4974   -8.0321    6.6943 H   0  0  0  0  0  0  0  0  0  0  0  0
    3.4057   -8.4654    7.9558 H   0  0  0  0  0  0  0  0  0  0  0  0
    2.5548   -9.7274    6.4265 H   0  0  0  0  0  0  0  0  0  0  0  0
    0.3850  -10.2122    7.2866 H   0  0  0  0  0  0  0  0  0  0  0  0
   -0.5704   -8.8041    7.6900 H   0  0  0  0  0  0  0  0  0  0  0  0
    1.0547   -9.0006    8.3268 H   0  0  0  0  0  0  0  0  0  0  0  0
   -0.1624   -9.9711    5.2207 H   0  0  0  0  0  0  0  0  0  0  0  0
   -0.8814   -8.4852    4.9764 H   0  0  0  0  0  0  0  0  0  0  0  0
    0.0530   -9.3893    2.9163 H   0  0  0  0  0  0  0  0  0  0  0  0
    0.8790   -7.9237    3.2877 H   0  0  0  0  0  0  0  0  0  0  0  0
    2.6076  -11.8823    3.8470 H   0  0  0  0  0  0  0  0  0  0  0  0
    0.9146  -11.6016    3.5386 H   0  0  0  0  0  0  0  0  0  0  0  0
    1.5907  -11.2900    5.1263 H   0  0  0  0  0  0  0  0  0  0  0  0
    3.3384  -10.6895    2.0797 H   0  0  0  0  0  0  0  0  0  0  0  0
    1.7846  -10.2119    1.5009 H   0  0  0  0  0  0  0  0  0  0  0  0
    3.6856   -8.9373    0.5463 H   0  0  0  0  0  0  0  0  0  0  0  0
    2.5029   -7.8989    1.2873 H   0  0  0  0  0  0  0  0  0  0  0  0
    5.1162   -8.8812    2.5259 H   0  0  0  0  0  0  0  0  0  0  0  0
    4.4731   -6.1138    1.4820 H   0  0  0  0  0  0  0  0  0  0  0  0
    5.6138   -7.2764    0.8336 H   0  0  0  0  0  0  0  0  0  0  0  0
    5.9140   -6.5533    2.4023 H   0  0  0  0  0  0  0  0  0  0  0  0
    4.6410   -7.4636    4.4358 H   0  0  0  0  0  0  0  0  0  0  0  0
    2.3636   -6.4018    2.8042 H   0  0  0  0  0  0  0  0  0  0  0  0
    3.5691   -5.5893    3.7602 H   0  0  0  0  0  0  0  0  0  0  0  0
    2.2364   -6.4267    4.5253 H   0  0  0  0  0  0  0  0  0  0  0  0
    4.6710  -10.5128    3.8646 H   0  0  0  0  0  0  0  0  0  0  0  0
    4.0889  -10.8396    5.4535 H   0  0  0  0  0  0  0  0  0  0  0  0
    5.2192   -9.5389    5.1927 H   0  0  0  0  0  0  0  0  0  0  0  0
   -0.7146   -6.4472    5.0011 H   0  0  0  0  0  0  0  0  0  0  0  0
   -0.4958   -4.0822    5.1682 H   0  0  0  0  0  0  0  0  0  0  0  0
   -1.3421   -4.5227    6.6219 H   0  0  0  0  0  0  0  0  0  0  0  0
    2.1975   -4.5675    5.3976 H   0  0  0  0  0  0  0  0  0  0  0  0
    2.8464   -3.3896    6.5212 H   0  0  0  0  0  0  0  0  0  0  0  0
    1.7111   -2.9747    5.2379 H   0  0  0  0  0  0  0  0  0  0  0  0
  1  2  1  0
  1 37  1  0
  1 38  1  0
  1 39  1  0
  2  3  1  0
  2  4  2  3
  3 40  1  0
  3 41  1  0
  3 42  1  0
  4  5  1  0
  4 43  1  0
  5  6  1  0
  5 44  1  0
  5 45  1  0
  6  7  1  0
  6 46  1  0
  6 47  1  0
  7  8  1  0
  7  9  1  0
  7 48  1  1
  8 49  1  0
  8 50  1  0
  8 51  1  0
  9 35  1  0
  9 10  1  0
  9 52  1  1
 10 11  1  0
 10 53  1  0
 10 54  1  0
 11 12  1  0
 11 55  1  0
 11 56  1  0
 12 35  1  0
 12 13  1  1
 12 14  1  0
 13 57  1  0
 13 58  1  0
 13 59  1  0
 14 32  1  0
 14 15  1  0
 14 60  1  1
 15 16  1  0
 15 61  1  0
 15 62  1  0
 16 17  1  0
 16 63  1  0
 16 64  1  0
 17 30  1  0
 17 18  1  0
 17 65  1  1
 18 19  1  1
 18 20  1  0
 18 32  1  0
 19 66  1  0
 19 67  1  0
 19 68  1  0
 20 21  1  0
 20 69  1  0
 20 70  1  0
 21 22  1  0
 21 71  1  0
 21 72  1  0
 22 30  1  0
 22 23  1  1
 22 24  1  0
 23 73  1  0
 23 74  1  0
 23 75  1  0
 24 25  1  0
 24 76  1  0
 24 77  1  0
 25 26  1  0
 25 78  1  0
 25 79  1  0
 26 27  1  0
 26 28  1  0
 26 80  1  1
 27 81  1  0
 27 82  1  0
 27 83  1  0
 28 29  1  0
 28 30  1  0
 28 84  1  1
 29 85  1  0
 29 86  1  0
 29 87  1  0
 30 31  1  1
 31 88  1  0
 31 89  1  0
 31 90  1  0
 32 33  2  0
 33 34  1  0
 33 91  1  0
 34 35  1  0
 34 92  1  0
 34 93  1  0
 35 36  1  6
 36 94  1  0
 36 95  1  0
 36 96  1  0
M  END
>  <i_m_ct_stereo_status>  (325) 
1

>  <s_m_source_file>  (325) 
/var/tmp/pbs.5076255.sched01/tmp6w_bron9/120d4r_aq7a.sdf

>  <i_m_source_file_index>  (325) 
5

>  <i_lp_mmshare_version>  (325) 
48012

>  <i_f3d_flags>  (325) 
0

>  <s_epik_input>  (325) 
W0NIM11DKFtDSDNdKT1bQ0hdW0NIMl1bQ0gyXVtDQEhdKFtDSDNdKVtDQEhdKFtDSDJdW0NIMl0xKVtDQF0yKFtDSDNdKVtDSDJdW0NIXT1DKFtDQEBIXTNbQ0BAXTEyW0NIM10pW0NAXTQoW0NIM10pW0NASF0oW0NIMl1bQ0gyXTMpW0NAQF01KFtDSDNdKVtDQEBdKFtDSDNdKShbQ0gyXVtDSDJdNClbQ0gyXVtDSDJdW0NAQEhdKFtDSDNdKVtDQEhdNVtDSDNd

>  <s_epik_cmdline>  (325) 
J2VwaWtfcHl0aG9uJywgJy1waHQnLCAnMi4wJywgJy1waCcsICc3LjAnLCAnLXRuJywgJzgnLCAnLW1hJywgJzIwMCcsICctaW1hZScsICc8aW5maWxlLm1hZT4nLCAnLW9tYWUnLCAnPG91dGZpbGUubWFlPic=

>  <r_lp_tautomer_probability>  (325) 
1

>  <r_epik_Ionization_Penalty>  (325) 
0

>  <r_epik_Ionization_Penalty_Charging>  (325) 
0

>  <r_epik_Ionization_Penalty_Neutral>  (325) 
0

>  <r_epik_State_Penalty>  (325) 
-0

>  <r_epik_Charging_Adjusted_Penalty>  (325) 
0

>  <i_epik_Tot_Q>  (325) 
0

>  <i_epik_Tot_abs_Q>  (325) 
0

>  <s_lp_Force_Field>  (325) 
OPLS3e

>  <r_lp_Energy>  (325) 
103.274

>  <b_lp_Chiralities_Consistent>  (325) 
1

>  <s_lp_Variant>  (325) 
82:0-1

>  <s_i_glide_gridfile>  (325) 
pfpi4k_grid

>  <i_i_glide_lignum>  (325) 
5

>  <i_i_glide_rotatable_bonds>  (325) 
4

>  <r_i_docking_score>  (325) 
-0.990605

>  <r_i_glide_ligand_efficiency>  (325) 
-0.0275168

>  <r_i_glide_ligand_efficiency_sa>  (325) 
-0.0908585

>  <r_i_glide_ligand_efficiency_ln>  (325) 
-0.216123

>  <r_i_glide_gscore>  (325) 
-0.990605

>  <r_i_glide_lipo>  (325) 
-0.0887645

>  <r_i_glide_hbond>  (325) 
0

>  <r_i_glide_metal>  (325) 
-0

>  <r_i_glide_rewards>  (325) 
-0.0486709

>  <r_i_glide_evdw>  (325) 
-22.8104

>  <r_i_glide_ecoul>  (325) 
-0.320256

>  <r_i_glide_erotb>  (325) 
0.335388

>  <r_i_glide_esite>  (325) 
0

>  <r_i_glide_emodel>  (325) 
-19.3963

>  <r_i_glide_energy>  (325) 
-23.1306

>  <r_i_glide_einternal>  (325) 
5.97062

>  <r_i_glide_intrahb_reward>  (325) 
-0

>  <i_i_glide_confnum>  (325) 
4

>  <i_i_glide_posenum>  (325) 
10

>  <r_i_glide_eff_state_penalty>  (325) 
0

>  <ligand_id>  (325) 
82

>  <original_smiles>  (325) 
CC(C)=CCCC(C)C1CCC2(C)C3CCC4C(C)(CCC5(C)CCC(C)C(C)C45C)C3=CCC12C

>  <smiles>  (325) 
[H]C(=C(C([H])([H])[H])C([H])([H])[H])C([H])([H])C([H])([H])C([H])(C([H])([H])[H])C1([H])C([H])([H])C([H])([H])C2(C([H])([H])[H])C3([H])C(=C([H])C([H])([H])C12C([H])([H])[H])C1(C([H])([H])[H])C([H])([H])C([H])([H])C2(C([H])([H])[H])C([H])([H])C([H])([H])C([H])(C([H])([H])[H])C([H])(C([H])([H])[H])C2(C([H])([H])[H])C1([H])C([H])([H])C3([H])[H]

$$$$
82:0:2
     RDKit          3D

 96100  0  0  1  0  0  0  0  0999 V2000
   -1.9895    2.9384    5.4330 C   0  0  0  0  0  0  0  0  0  0  0  0
   -1.0068    2.3369    4.4188 C   0  0  0  0  0  0  0  0  0  0  0  0
   -1.3106    2.7400    2.9854 C   0  0  0  0  0  0  0  0  0  0  0  0
    0.0112    1.5435    4.7316 C   0  0  0  0  0  0  0  0  0  0  0  0
    0.4447    1.0648    6.1179 C   0  0  0  0  0  0  0  0  0  0  0  0
    0.4358   -0.4689    6.2346 C   0  0  0  0  0  0  0  0  0  0  0  0
    0.7797   -1.0158    7.6470 C   0  0  2  0  0  0  0  0  0  0  0  0
    2.1954   -0.5794    8.1474 C   0  0  0  0  0  0  0  0  0  0  0  0
    0.4361   -2.5385    7.7929 C   0  0  2  0  0  0  0  0  0  0  0  0
    0.7705   -3.1759    9.1773 C   0  0  0  0  0  0  0  0  0  0  0  0
    1.1688   -4.6409    8.9134 C   0  0  0  0  0  0  0  0  0  0  0  0
    0.6878   -4.9352    7.4903 C   0  0  2  0  0  0  0  0  0  0  0  0
   -0.8384   -5.2746    7.6346 C   0  0  0  0  0  0  0  0  0  0  0  0
    1.3037   -6.1506    6.7166 C   0  0  2  0  0  0  0  0  0  0  0  0
    2.7967   -6.5087    6.9151 C   0  0  0  0  0  0  0  0  0  0  0  0
    3.1199   -7.8553    6.2404 C   0  0  0  0  0  0  0  0  0  0  0  0
    2.6691   -8.0312    4.7573 C   0  0  1  0  0  0  0  0  0  0  0  0
    1.2182   -7.4408    4.4649 C   0  0  2  0  0  0  0  0  0  0  0  0
    0.1550   -8.4331    5.0384 C   0  0  0  0  0  0  0  0  0  0  0  0
    0.8891   -7.3884    2.9425 C   0  0  0  0  0  0  0  0  0  0  0  0
    2.0612   -7.0801    2.0059 C   0  0  0  0  0  0  0  0  0  0  0  0
    3.2320   -8.0865    2.1812 C   0  0  1  0  0  0  0  0  0  0  0  0
    2.6794   -9.5138    1.8858 C   0  0  0  0  0  0  0  0  0  0  0  0
    4.3165   -7.8541    1.0772 C   0  0  0  0  0  0  0  0  0  0  0  0
    5.2418   -6.6530    1.2722 C   0  0  0  0  0  0  0  0  0  0  0  0
    5.8914   -6.6793    2.6612 C   0  0  1  0  0  0  0  0  0  0  0  0
    6.9290   -5.5611    2.8271 C   0  0  0  0  0  0  0  0  0  0  0  0
    4.7980   -6.6991    3.7638 C   0  0  1  0  0  0  0  0  0  0  0  0
    4.1484   -5.3091    3.8596 C   0  0  0  0  0  0  0  0  0  0  0  0
    3.8294   -7.9583    3.6510 C   0  0  1  0  0  0  0  0  0  0  0  0
    4.7441   -9.2090    3.9013 C   0  0  0  0  0  0  0  0  0  0  0  0
    0.9891   -6.1111    5.2286 C   0  0  0  0  0  0  0  0  0  0  0  0
    0.5076   -4.9522    4.6385 C   0  0  0  0  0  0  0  0  0  0  0  0
    0.2406   -3.6482    5.3848 C   0  0  0  0  0  0  0  0  0  0  0  0
    0.9534   -3.5791    6.7474 C   0  0  1  0  0  0  0  0  0  0  0  0
    2.4503   -3.2917    6.4656 C   0  0  0  0  0  0  0  0  0  0  0  0
   -2.9935    2.5902    5.2005 H   0  0  0  0  0  0  0  0  0  0  0  0
   -1.9777    4.0252    5.3426 H   0  0  0  0  0  0  0  0  0  0  0  0
   -1.7774    2.6849    6.4668 H   0  0  0  0  0  0  0  0  0  0  0  0
   -2.3053    2.4094    2.6858 H   0  0  0  0  0  0  0  0  0  0  0  0
   -0.5876    2.3182    2.2772 H   0  0  0  0  0  0  0  0  0  0  0  0
   -1.2707    3.8249    2.8777 H   0  0  0  0  0  0  0  0  0  0  0  0
    0.6395    1.1770    3.9175 H   0  0  0  0  0  0  0  0  0  0  0  0
    1.4553    1.4506    6.2716 H   0  0  0  0  0  0  0  0  0  0  0  0
   -0.1665    1.4802    6.9201 H   0  0  0  0  0  0  0  0  0  0  0  0
   -0.5491   -0.8285    5.9316 H   0  0  0  0  0  0  0  0  0  0  0  0
    1.1387   -0.8423    5.4895 H   0  0  0  0  0  0  0  0  0  0  0  0
    0.0709   -0.5146    8.3139 H   0  0  0  0  0  0  0  0  0  0  0  0
    2.9977   -1.0939    7.6736 H   0  0  0  0  0  0  0  0  0  0  0  0
    2.2734   -0.7041    9.2474 H   0  0  0  0  0  0  0  0  0  0  0  0
    2.3512    0.5069    8.0060 H   0  0  0  0  0  0  0  0  0  0  0  0
   -0.6452   -2.5703    7.7007 H   0  0  0  0  0  0  0  0  0  0  0  0
    1.6162   -2.7110    9.6803 H   0  0  0  0  0  0  0  0  0  0  0  0
   -0.0770   -3.0996    9.8639 H   0  0  0  0  0  0  0  0  0  0  0  0
    2.2515   -4.7159    8.9828 H   0  0  0  0  0  0  0  0  0  0  0  0
    0.7515   -5.3132    9.6609 H   0  0  0  0  0  0  0  0  0  0  0  0
   -1.3310   -5.4484    6.6804 H   0  0  0  0  0  0  0  0  0  0  0  0
   -1.4142   -4.5189    8.1640 H   0  0  0  0  0  0  0  0  0  0  0  0
   -0.9695   -6.1876    8.2145 H   0  0  0  0  0  0  0  0  0  0  0  0
    0.7994   -7.0099    7.1469 H   0  0  0  0  0  0  0  0  0  0  0  0
    3.4833   -5.7582    6.5455 H   0  0  0  0  0  0  0  0  0  0  0  0
    3.0233   -6.5973    7.9745 H   0  0  0  0  0  0  0  0  0  0  0  0
    4.1871   -8.0332    6.3409 H   0  0  0  0  0  0  0  0  0  0  0  0
    2.6453   -8.6368    6.8342 H   0  0  0  0  0  0  0  0  0  0  0  0
    2.4557   -9.0950    4.7374 H   0  0  0  0  0  0  0  0  0  0  0  0
    0.1093   -9.3660    4.4777 H   0  0  0  0  0  0  0  0  0  0  0  0
   -0.8432   -7.9970    5.0003 H   0  0  0  0  0  0  0  0  0  0  0  0
    0.3385   -8.7341    6.0676 H   0  0  0  0  0  0  0  0  0  0  0  0
    0.4948   -8.3503    2.6286 H   0  0  0  0  0  0  0  0  0  0  0  0
    0.0443   -6.7378    2.7308 H   0  0  0  0  0  0  0  0  0  0  0  0
    1.7074   -7.1115    0.9756 H   0  0  0  0  0  0  0  0  0  0  0  0
    2.3831   -6.0580    2.1639 H   0  0  0  0  0  0  0  0  0  0  0  0
    3.4734  -10.2503    1.7519 H   0  0  0  0  0  0  0  0  0  0  0  0
    2.1017   -9.5191    0.9654 H   0  0  0  0  0  0  0  0  0  0  0  0
    2.0430   -9.8989    2.6779 H   0  0  0  0  0  0  0  0  0  0  0  0
    4.9518   -8.7377    0.9916 H   0  0  0  0  0  0  0  0  0  0  0  0
    3.8422   -7.7477    0.1131 H   0  0  0  0  0  0  0  0  0  0  0  0
    6.0162   -6.6712    0.5068 H   0  0  0  0  0  0  0  0  0  0  0  0
    4.6874   -5.7295    1.0953 H   0  0  0  0  0  0  0  0  0  0  0  0
    6.4772   -7.5936    2.7273 H   0  0  0  0  0  0  0  0  0  0  0  0
    6.4872   -4.5754    2.6694 H   0  0  0  0  0  0  0  0  0  0  0  0
    7.7377   -5.6729    2.1037 H   0  0  0  0  0  0  0  0  0  0  0  0
    7.3764   -5.5862    3.8211 H   0  0  0  0  0  0  0  0  0  0  0  0
    5.3166   -6.8190    4.7147 H   0  0  0  0  0  0  0  0  0  0  0  0
    4.0190   -4.8162    2.9032 H   0  0  0  0  0  0  0  0  0  0  0  0
    4.7523   -4.6465    4.4738 H   0  0  0  0  0  0  0  0  0  0  0  0
    3.1719   -5.3848    4.2930 H   0  0  0  0  0  0  0  0  0  0  0  0
    5.4027   -9.4278    3.0666 H   0  0  0  0  0  0  0  0  0  0  0  0
    4.1792  -10.1261    4.0596 H   0  0  0  0  0  0  0  0  0  0  0  0
    5.3837   -9.0860    4.7695 H   0  0  0  0  0  0  0  0  0  0  0  0
    0.3057   -4.9042    3.5977 H   0  0  0  0  0  0  0  0  0  0  0  0
    0.5802   -2.8490    4.7284 H   0  0  0  0  0  0  0  0  0  0  0  0
   -0.8338   -3.5135    5.4933 H   0  0  0  0  0  0  0  0  0  0  0  0
    2.8572   -3.9822    5.7464 H   0  0  0  0  0  0  0  0  0  0  0  0
    3.0583   -3.3536    7.3661 H   0  0  0  0  0  0  0  0  0  0  0  0
    2.5980   -2.3100    6.0467 H   0  0  0  0  0  0  0  0  0  0  0  0
  1  2  1  0
  1 37  1  0
  1 38  1  0
  1 39  1  0
  2  3  1  0
  2  4  2  3
  3 40  1  0
  3 41  1  0
  3 42  1  0
  4  5  1  0
  4 43  1  0
  5  6  1  0
  5 44  1  0
  5 45  1  0
  6  7  1  0
  6 46  1  0
  6 47  1  0
  7  8  1  0
  7  9  1  0
  7 48  1  1
  8 49  1  0
  8 50  1  0
  8 51  1  0
  9 35  1  0
  9 10  1  0
  9 52  1  1
 10 11  1  0
 10 53  1  0
 10 54  1  0
 11 12  1  0
 11 55  1  0
 11 56  1  0
 12 35  1  0
 12 13  1  1
 12 14  1  0
 13 57  1  0
 13 58  1  0
 13 59  1  0
 14 32  1  0
 14 15  1  0
 14 60  1  1
 15 16  1  0
 15 61  1  0
 15 62  1  0
 16 17  1  0
 16 63  1  0
 16 64  1  0
 17 30  1  0
 17 18  1  0
 17 65  1  1
 18 19  1  1
 18 20  1  0
 18 32  1  0
 19 66  1  0
 19 67  1  0
 19 68  1  0
 20 21  1  0
 20 69  1  0
 20 70  1  0
 21 22  1  0
 21 71  1  0
 21 72  1  0
 22 30  1  0
 22 23  1  1
 22 24  1  0
 23 73  1  0
 23 74  1  0
 23 75  1  0
 24 25  1  0
 24 76  1  0
 24 77  1  0
 25 26  1  0
 25 78  1  0
 25 79  1  0
 26 27  1  0
 26 28  1  0
 26 80  1  6
 27 81  1  0
 27 82  1  0
 27 83  1  0
 28 29  1  0
 28 30  1  0
 28 84  1  1
 29 85  1  0
 29 86  1  0
 29 87  1  0
 30 31  1  1
 31 88  1  0
 31 89  1  0
 31 90  1  0
 32 33  2  0
 33 34  1  0
 33 91  1  0
 34 35  1  0
 34 92  1  0
 34 93  1  0
 35 36  1  6
 36 94  1  0
 36 95  1  0
 36 96  1  0
M  END
>  <i_m_ct_stereo_status>  (326) 
1

>  <s_m_source_file>  (326) 
/var/tmp/pbs.5076255.sched01/tmp6w_bron9/120d4r_aq7a.sdf

>  <i_m_source_file_index>  (326) 
5

>  <i_lp_mmshare_version>  (326) 
48012

>  <i_f3d_flags>  (326) 
0

>  <s_epik_input>  (326) 
W0NIM11DKFtDSDNdKT1bQ0hdW0NIMl1bQ0gyXVtDQEhdKFtDSDNdKVtDQEhdKFtDSDJdW0NIMl0xKVtDQF0yKFtDSDNdKVtDSDJdW0NIXT1DKFtDQEBIXTNbQ0BAXTEyW0NIM10pW0NAXTQoW0NIM10pW0NASF0oW0NIMl1bQ0gyXTMpW0NAQF01KFtDSDNdKVtDQEBdKFtDSDNdKShbQ0gyXVtDSDJdNClbQ0gyXVtDSDJdW0NAQEhdKFtDSDNdKVtDQEhdNVtDSDNd

>  <s_epik_cmdline>  (326) 
J2VwaWtfcHl0aG9uJywgJy1waHQnLCAnMi4wJywgJy1waCcsICc3LjAnLCAnLXRuJywgJzgnLCAnLW1hJywgJzIwMCcsICctaW1hZScsICc8aW5maWxlLm1hZT4nLCAnLW9tYWUnLCAnPG91dGZpbGUubWFlPic=

>  <r_lp_tautomer_probability>  (326) 
1

>  <r_epik_Ionization_Penalty>  (326) 
0

>  <r_epik_Ionization_Penalty_Charging>  (326) 
0

>  <r_epik_Ionization_Penalty_Neutral>  (326) 
0

>  <r_epik_State_Penalty>  (326) 
-0

>  <r_epik_Charging_Adjusted_Penalty>  (326) 
0

>  <i_epik_Tot_Q>  (326) 
0

>  <i_epik_Tot_abs_Q>  (326) 
0

>  <s_lp_Force_Field>  (326) 
OPLS3e

>  <r_lp_Energy>  (326) 
103.274

>  <b_lp_Chiralities_Consistent>  (326) 
1

>  <s_lp_Variant>  (326) 
82:0-1

>  <s_i_glide_gridfile>  (326) 
pfpi4k_grid

>  <i_i_glide_lignum>  (326) 
5

>  <i_i_glide_rotatable_bonds>  (326) 
4

>  <r_i_docking_score>  (326) 
-0.964287

>  <r_i_glide_ligand_efficiency>  (326) 
-0.0267858

>  <r_i_glide_ligand_efficiency_sa>  (326) 
-0.0884446

>  <r_i_glide_ligand_efficiency_ln>  (326) 
-0.210381

>  <r_i_glide_gscore>  (326) 
-0.964287

>  <r_i_glide_lipo>  (326) 
-0.272199

>  <r_i_glide_hbond>  (326) 
0

>  <r_i_glide_metal>  (326) 
-0

>  <r_i_glide_rewards>  (326) 
-0.0486709

>  <r_i_glide_evdw>  (326) 
-19.988

>  <r_i_glide_ecoul>  (326) 
0.137293

>  <r_i_glide_erotb>  (326) 
0.335388

>  <r_i_glide_esite>  (326) 
0

>  <r_i_glide_emodel>  (326) 
-18.4836

>  <r_i_glide_energy>  (326) 
-19.8507

>  <r_i_glide_einternal>  (326) 
4.90128

>  <r_i_glide_intrahb_reward>  (326) 
-0

>  <i_i_glide_confnum>  (326) 
4

>  <i_i_glide_posenum>  (326) 
16

>  <r_i_glide_eff_state_penalty>  (326) 
0

>  <ligand_id>  (326) 
82

>  <original_smiles>  (326) 
CC(C)=CCCC(C)C1CCC2(C)C3CCC4C(C)(CCC5(C)CCC(C)C(C)C45C)C3=CCC12C

>  <smiles>  (326) 
[H]C(=C(C([H])([H])[H])C([H])([H])[H])C([H])([H])C([H])([H])C([H])(C([H])([H])[H])C1([H])C([H])([H])C([H])([H])C2(C([H])([H])[H])C3([H])C(=C([H])C([H])([H])C12C([H])([H])[H])C1(C([H])([H])[H])C([H])([H])C([H])([H])C2(C([H])([H])[H])C([H])([H])C([H])([H])C([H])(C([H])([H])[H])C([H])(C([H])([H])[H])C2(C([H])([H])[H])C1([H])C([H])([H])C3([H])[H]

$$$$
83:0:0
     RDKit          3D

 75 81  0  0  1  0  0  0  0  0999 V2000
    5.0277   -3.3428   -1.3823 C   0  0  0  0  0  0  0  0  0  0  0  0
    3.9943   -3.7938   -0.3065 C   0  0  0  0  0  0  0  0  0  0  0  0
    3.1093   -2.5429   -0.0602 C   0  0  0  0  0  0  0  0  0  0  0  0
    4.6862   -4.3434    0.9828 C   0  0  2  0  0  0  0  0  0  0  0  0
    5.8348   -5.3731    0.6519 C   0  0  0  0  0  0  0  0  0  0  0  0
    6.0472   -6.5500    1.6375 C   0  0  0  0  0  0  0  0  0  0  0  0
    4.6736   -6.9118    2.2114 C   0  0  1  0  0  0  0  0  0  0  0  0
    4.1121   -8.2169    2.5328 C   0  0  1  0  0  0  0  0  0  0  0  0
    4.4216   -9.2177    1.3859 C   0  0  0  0  0  0  0  0  0  0  0  0
    5.2542   -8.5604    3.6272 C   0  0  0  0  0  0  0  0  0  0  0  0
    5.6755   -7.6990    4.7417 O   0  0  0  0  0  0  0  0  0  0  0  0
    4.9362   -6.7110    5.3960 C   0  0  0  0  0  0  0  0  0  0  0  0
    5.2830   -6.0630    6.3831 O   0  0  0  0  0  0  0  0  0  0  0  0
    3.6169   -6.5240    4.6877 C   0  0  2  0  0  0  0  0  0  0  0  0
    2.4497   -5.4924    5.0171 C   0  0  2  0  0  0  0  0  0  0  0  0
    1.8284   -4.9167    6.1495 O   0  0  0  0  0  0  0  0  0  0  0  0
    0.5214   -4.5950    5.6379 C   0  0  0  0  0  0  0  0  0  0  0  0
   -0.5229   -4.8537    6.7596 C   0  0  0  0  0  0  0  0  0  0  0  0
    0.4679   -3.1023    5.2152 C   0  0  0  0  0  0  0  0  0  0  0  0
    0.2033   -5.4130    4.5068 O   0  0  0  0  0  0  0  0  0  0  0  0
    1.2554   -6.3401    4.6531 C   0  0  1  0  0  0  0  0  0  0  0  0
    1.7035   -7.7106    4.0732 C   0  0  2  0  0  0  0  0  0  0  0  0
    2.7994   -7.9008    5.0830 C   0  0  0  0  0  0  0  0  0  0  0  0
    3.1616   -9.4372    5.1181 C   0  0  0  0  0  0  0  0  0  0  0  0
    2.4614   -7.8839    6.6361 C   0  0  0  0  0  0  0  0  0  0  0  0
    2.4205   -7.9188    2.6484 C   0  0  2  0  0  0  0  0  0  0  0  0
    1.6965   -9.1791    2.0662 C   0  0  0  0  0  0  0  0  0  0  0  0
    1.8930   -6.7270    1.7026 C   0  0  1  0  0  0  0  0  0  0  0  0
    0.4733   -6.7056    1.6230 O   0  0  0  0  0  0  0  0  0  0  0  0
    2.2939   -5.2123    1.8742 C   0  0  0  0  0  0  0  0  0  0  0  0
    3.7710   -4.8198    2.1871 C   0  0  2  0  0  0  0  0  0  0  0  0
    4.6360   -4.5406    3.3925 C   0  0  0  0  0  0  0  0  0  0  0  0
    4.1481   -5.9428    3.2239 C   0  0  2  0  0  0  0  0  0  0  0  0
    5.5936   -2.4737   -1.0439 H   0  0  0  0  0  0  0  0  0  0  0  0
    4.5368   -3.0634   -2.3146 H   0  0  0  0  0  0  0  0  0  0  0  0
    5.7561   -4.0992   -1.6688 H   0  0  0  0  0  0  0  0  0  0  0  0
    3.4136   -4.6006   -0.7565 H   0  0  0  0  0  0  0  0  0  0  0  0
    3.7056   -1.7207    0.3327 H   0  0  0  0  0  0  0  0  0  0  0  0
    2.2753   -2.6173    0.6311 H   0  0  0  0  0  0  0  0  0  0  0  0
    2.6686   -2.2148   -1.0018 H   0  0  0  0  0  0  0  0  0  0  0  0
    5.2182   -3.4540    1.3417 H   0  0  0  0  0  0  0  0  0  0  0  0
    5.6473   -5.8007   -0.3335 H   0  0  0  0  0  0  0  0  0  0  0  0
    6.7818   -4.8389    0.5672 H   0  0  0  0  0  0  0  0  0  0  0  0
    6.5198   -7.3764    1.1061 H   0  0  0  0  0  0  0  0  0  0  0  0
    6.7418   -6.2552    2.4264 H   0  0  0  0  0  0  0  0  0  0  0  0
    4.1790   -6.8102    1.2630 H   0  0  0  0  0  0  0  0  0  0  0  0
    4.1202  -10.2239    1.6723 H   0  0  0  0  0  0  0  0  0  0  0  0
    5.4816   -9.3039    1.1607 H   0  0  0  0  0  0  0  0  0  0  0  0
    3.9337   -8.9727    0.4427 H   0  0  0  0  0  0  0  0  0  0  0  0
    5.2241   -9.5996    3.9391 H   0  0  0  0  0  0  0  0  0  0  0  0
    6.1882   -8.5977    3.0706 H   0  0  0  0  0  0  0  0  0  0  0  0
    2.4633   -4.6413    4.3851 H   0  0  0  0  0  0  0  0  0  0  0  0
   -0.4729   -5.8858    7.1097 H   0  0  0  0  0  0  0  0  0  0  0  0
   -1.5302   -4.6681    6.3983 H   0  0  0  0  0  0  0  0  0  0  0  0
   -0.3356   -4.1907    7.6025 H   0  0  0  0  0  0  0  0  0  0  0  0
    1.1546   -2.8919    4.3925 H   0  0  0  0  0  0  0  0  0  0  0  0
    0.7345   -2.4688    6.0627 H   0  0  0  0  0  0  0  0  0  0  0  0
   -0.5397   -2.8475    4.8920 H   0  0  0  0  0  0  0  0  0  0  0  0
    0.7607   -6.7904    5.5146 H   0  0  0  0  0  0  0  0  0  0  0  0
    0.9082   -8.4422    4.2340 H   0  0  0  0  0  0  0  0  0  0  0  0
    2.3629  -10.0172    5.5871 H   0  0  0  0  0  0  0  0  0  0  0  0
    4.0546   -9.6498    5.7091 H   0  0  0  0  0  0  0  0  0  0  0  0
    3.2521   -9.9463    4.1699 H   0  0  0  0  0  0  0  0  0  0  0  0
    1.5573   -8.4526    6.8577 H   0  0  0  0  0  0  0  0  0  0  0  0
    2.3216   -6.9192    7.1065 H   0  0  0  0  0  0  0  0  0  0  0  0
    3.2601   -8.3198    7.2371 H   0  0  0  0  0  0  0  0  0  0  0  0
    0.6180   -9.1584    2.2035 H   0  0  0  0  0  0  0  0  0  0  0  0
    2.0168  -10.1194    2.5071 H   0  0  0  0  0  0  0  0  0  0  0  0
    1.8402   -9.2765    0.9919 H   0  0  0  0  0  0  0  0  0  0  0  0
    2.1690   -6.9803    0.6824 H   0  0  0  0  0  0  0  0  0  0  0  0
    0.1868   -7.5792    1.4588 H   0  0  0  0  0  0  0  0  0  0  0  0
    1.9857   -4.8468    0.9126 H   0  0  0  0  0  0  0  0  0  0  0  0
    1.6330   -4.6918    2.5514 H   0  0  0  0  0  0  0  0  0  0  0  0
    5.7088   -4.4085    3.2529 H   0  0  0  0  0  0  0  0  0  0  0  0
    4.2488   -3.8440    4.1342 H   0  0  0  0  0  0  0  0  0  0  0  0
  1  2  1  0
  1 34  1  0
  1 35  1  0
  1 36  1  0
  2  3  1  0
  2  4  1  0
  2 37  1  0
  3 38  1  0
  3 39  1  0
  3 40  1  0
  4 31  1  0
  4  5  1  0
  4 41  1  1
  5  6  1  0
  5 42  1  0
  5 43  1  0
  6  7  1  0
  6 44  1  0
  6 45  1  0
  7 33  1  0
  7  8  1  0
  7 46  1  6
  8 26  1  0
  8  9  1  6
  8 10  1  0
  9 47  1  0
  9 48  1  0
  9 49  1  0
 10 11  1  0
 10 50  1  0
 10 51  1  0
 11 12  1  0
 12 13  2  0
 12 14  1  0
 14 23  1  6
 14 33  1  0
 14 15  1  0
 15 21  1  0
 15 16  1  0
 15 52  1  6
 16 17  1  0
 17 18  1  0
 17 19  1  0
 17 20  1  0
 18 53  1  0
 18 54  1  0
 18 55  1  0
 19 56  1  0
 19 57  1  0
 19 58  1  0
 20 21  1  0
 21 22  1  0
 21 59  1  1
 22 23  1  0
 22 26  1  0
 22 60  1  1
 23 24  1  0
 23 25  1  0
 24 61  1  0
 24 62  1  0
 24 63  1  0
 25 64  1  0
 25 65  1  0
 25 66  1  0
 26 27  1  6
 26 28  1  0
 27 67  1  0
 27 68  1  0
 27 69  1  0
 28 29  1  0
 28 30  1  0
 28 70  1  6
 29 71  1  0
 31 30  1  1
 30 72  1  0
 30 73  1  0
 31 33  1  0
 31 32  1  0
 33 32  1  1
 32 74  1  0
 32 75  1  0
M  END
>  <i_m_ct_stereo_status>  (327) 
1

>  <s_m_source_file>  (327) 
/var/tmp/pbs.5076255.sched01/tmp6w_bron9/120d4r_aq7a.sdf

>  <i_m_source_file_index>  (327) 
6

>  <i_lp_mmshare_version>  (327) 
48012

>  <i_f3d_flags>  (327) 
0

>  <s_epik_input>  (327) 
W0NAXTEyM1tDQF00NVtDQEBdNihbQ0gyXTUpW0NASF0oW0NIXShbQ0gzXSlbQ0gzXSlbQ0gyXVtDSDJdW0NASF00W0NAQF0oW0NIM10pKFtDSDJdT0MxPU8pW0NAXShbQ0gzXSkoW0NAQEhdKFtPSF0pW0NIMl02KVtDQEBIXShDMyhbQ0gzXSlbQ0gzXSlbQ0BIXTdbQ0BIXTJPQyhPNykoW0NIM10pW0NIM10=

>  <s_epik_cmdline>  (327) 
J2VwaWtfcHl0aG9uJywgJy1waHQnLCAnMi4wJywgJy1waCcsICc3LjAnLCAnLXRuJywgJzgnLCAnLW1hJywgJzIwMCcsICctaW1hZScsICc8aW5maWxlLm1hZT4nLCAnLW9tYWUnLCAnPG91dGZpbGUubWFlPic=

>  <r_lp_tautomer_probability>  (327) 
1

>  <r_epik_Ionization_Penalty>  (327) 
3.52473e-07

>  <r_epik_Ionization_Penalty_Charging>  (327) 
0

>  <r_epik_Ionization_Penalty_Neutral>  (327) 
3.52473e-07

>  <r_epik_State_Penalty>  (327) 
-0

>  <r_epik_Charging_Adjusted_Penalty>  (327) 
0

>  <i_epik_Tot_Q>  (327) 
0

>  <i_epik_Tot_abs_Q>  (327) 
0

>  <s_epik_Chemistry_Notes>  (327) 
This compound has an ester and may undergo hydrolysis at high or low pH.

>  <s_lp_Force_Field>  (327) 
OPLS3e

>  <r_lp_Energy>  (327) 
339.9

>  <b_lp_Chiralities_Consistent>  (327) 
1

>  <s_lp_Variant>  (327) 
83:0-1

>  <s_i_glide_gridfile>  (327) 
pfpi4k_grid

>  <i_i_glide_lignum>  (327) 
6

>  <i_i_glide_rotatable_bonds>  (327) 
2

>  <r_i_docking_score>  (327) 
-2.1865

>  <r_i_glide_ligand_efficiency>  (327) 
-0.0662576

>  <r_i_glide_ligand_efficiency_sa>  (327) 
-0.212523

>  <r_i_glide_ligand_efficiency_ln>  (327) 
-0.486266

>  <r_i_glide_gscore>  (327) 
-2.1865

>  <r_i_glide_lipo>  (327) 
-0.380846

>  <r_i_glide_hbond>  (327) 
0

>  <r_i_glide_metal>  (327) 
-0

>  <r_i_glide_rewards>  (327) 
-0.282068

>  <r_i_glide_evdw>  (327) 
-20.2141

>  <r_i_glide_ecoul>  (327) 
-3.39626

>  <r_i_glide_erotb>  (327) 
0

>  <r_i_glide_esite>  (327) 
-0.00344296

>  <r_i_glide_emodel>  (327) 
-26.5066

>  <r_i_glide_energy>  (327) 
-23.6103

>  <r_i_glide_einternal>  (327) 
0.609442

>  <r_i_glide_intrahb_reward>  (327) 
-0

>  <i_i_glide_confnum>  (327) 
1

>  <i_i_glide_posenum>  (327) 
19

>  <r_i_glide_eff_state_penalty>  (327) 
0

>  <ligand_id>  (327) 
83

>  <original_smiles>  (327) 
CC(C)C1CCC2C3(C)COC(=O)C45C6OC(C)(C)OC6C(C4(C)C)C3(C)C(O)CC13CC235

>  <smiles>  (327) 
[H]OC1([H])C([H])([H])C23C([H])([H])C24C([H])(C([H])([H])C([H])([H])C3([H])C([H])(C([H])([H])[H])C([H])([H])[H])C2(C([H])([H])[H])C([H])([H])OC(=O)C43C4([H])OC(C([H])([H])[H])(C([H])([H])[H])OC4([H])C([H])(C3(C([H])([H])[H])C([H])([H])[H])C12C([H])([H])[H]

$$$$
83:0:1
     RDKit          3D

 75 81  0  0  1  0  0  0  0  0999 V2000
    3.2740   -4.0339   -0.6881 C   0  0  0  0  0  0  0  0  0  0  0  0
    3.9356   -3.1677    0.4035 C   0  0  0  0  0  0  0  0  0  0  0  0
    4.9496   -2.2264   -0.2915 C   0  0  0  0  0  0  0  0  0  0  0  0
    4.5975   -3.9506    1.5848 C   0  0  2  0  0  0  0  0  0  0  0  0
    5.8021   -4.8614    1.1354 C   0  0  0  0  0  0  0  0  0  0  0  0
    6.0108   -6.1702    1.9461 C   0  0  0  0  0  0  0  0  0  0  0  0
    4.6221   -6.6187    2.4318 C   0  0  1  0  0  0  0  0  0  0  0  0
    4.0874   -7.9702    2.5866 C   0  0  1  0  0  0  0  0  0  0  0  0
    4.4066   -8.8111    1.3127 C   0  0  0  0  0  0  0  0  0  0  0  0
    5.2210   -8.4607    3.6375 C   0  0  0  0  0  0  0  0  0  0  0  0
    5.6307   -7.7775    4.8780 O   0  0  0  0  0  0  0  0  0  0  0  0
    4.8681   -6.9057    5.6399 C   0  0  0  0  0  0  0  0  0  0  0  0
    5.2063   -6.3987    6.7093 O   0  0  0  0  0  0  0  0  0  0  0  0
    3.5461   -6.6176    4.9665 C   0  0  2  0  0  0  0  0  0  0  0  0
    2.3676   -5.6525    5.4413 C   0  0  2  0  0  0  0  0  0  0  0  0
    1.7227   -5.2535    6.6391 O   0  0  0  0  0  0  0  0  0  0  0  0
    0.4172   -4.8654    6.1796 C   0  0  0  0  0  0  0  0  0  0  0  0
   -0.6240   -5.3012    7.2311 C   0  0  0  0  0  0  0  0  0  0  0  0
    0.3607   -3.3386    5.9710 C   0  0  0  0  0  0  0  0  0  0  0  0
    0.1383   -5.5164    4.9371 O   0  0  0  0  0  0  0  0  0  0  0  0
    1.1810   -6.4604    4.9569 C   0  0  1  0  0  0  0  0  0  0  0  0
    1.6628   -7.7245    4.1770 C   0  0  2  0  0  0  0  0  0  0  0  0
    2.7499   -8.0512    5.1654 C   0  0  0  0  0  0  0  0  0  0  0  0
    3.1347   -9.5710    4.9740 C   0  0  0  0  0  0  0  0  0  0  0  0
    2.4026   -8.2599    6.7095 C   0  0  0  0  0  0  0  0  0  0  0  0
    2.3769   -7.7107    2.7290 C   0  0  2  0  0  0  0  0  0  0  0  0
    1.6710   -8.8913    1.9726 C   0  0  0  0  0  0  0  0  0  0  0  0
    1.8276   -6.3816    1.9614 C   0  0  1  0  0  0  0  0  0  0  0  0
    0.4119   -6.3799    1.8628 O   0  0  0  0  0  0  0  0  0  0  0  0
    2.2078   -4.8855    2.3894 C   0  0  0  0  0  0  0  0  0  0  0  0
    3.6963   -4.5715    2.7386 C   0  0  2  0  0  0  0  0  0  0  0  0
    4.5549   -4.4388    3.9779 C   0  0  0  0  0  0  0  0  0  0  0  0
    4.1054   -5.8175    3.6029 C   0  0  2  0  0  0  0  0  0  0  0  0
    4.0175   -4.5727   -1.2719 H   0  0  0  0  0  0  0  0  0  0  0  0
    2.7158   -3.4058   -1.3820 H   0  0  0  0  0  0  0  0  0  0  0  0
    2.5743   -4.7698   -0.3122 H   0  0  0  0  0  0  0  0  0  0  0  0
    3.1673   -2.5193    0.8278 H   0  0  0  0  0  0  0  0  0  0  0  0
    5.7566   -2.7833   -0.7731 H   0  0  0  0  0  0  0  0  0  0  0  0
    5.4063   -1.5252    0.4095 H   0  0  0  0  0  0  0  0  0  0  0  0
    4.4658   -1.6347   -1.0701 H   0  0  0  0  0  0  0  0  0  0  0  0
    5.1000   -3.1223    2.0927 H   0  0  0  0  0  0  0  0  0  0  0  0
    5.6539   -5.1474    0.0963 H   0  0  0  0  0  0  0  0  0  0  0  0
    6.7306   -4.2899    1.1385 H   0  0  0  0  0  0  0  0  0  0  0  0
    6.4769   -6.9076    1.2959 H   0  0  0  0  0  0  0  0  0  0  0  0
    6.6953   -6.0197    2.7809 H   0  0  0  0  0  0  0  0  0  0  0  0
    4.1183   -6.4041    1.4974 H   0  0  0  0  0  0  0  0  0  0  0  0
    4.1117   -9.8535    1.4389 H   0  0  0  0  0  0  0  0  0  0  0  0
    5.4708   -8.8478    1.0843 H   0  0  0  0  0  0  0  0  0  0  0  0
    3.9222   -8.4284    0.4165 H   0  0  0  0  0  0  0  0  0  0  0  0
    5.2021   -9.5363    3.7890 H   0  0  0  0  0  0  0  0  0  0  0  0
    6.1582   -8.4089    3.0879 H   0  0  0  0  0  0  0  0  0  0  0  0
    2.3947   -4.7080    4.9483 H   0  0  0  0  0  0  0  0  0  0  0  0
   -0.5559   -6.3693    7.4334 H   0  0  0  0  0  0  0  0  0  0  0  0
   -1.6276   -5.0754    6.8688 H   0  0  0  0  0  0  0  0  0  0  0  0
   -0.4560   -4.7626    8.1655 H   0  0  0  0  0  0  0  0  0  0  0  0
    1.0464   -3.0114    5.1905 H   0  0  0  0  0  0  0  0  0  0  0  0
    0.6182   -2.8308    6.9019 H   0  0  0  0  0  0  0  0  0  0  0  0
   -0.6505   -3.0499    5.6826 H   0  0  0  0  0  0  0  0  0  0  0  0
    0.6788   -7.0444    5.7321 H   0  0  0  0  0  0  0  0  0  0  0  0
    0.8731   -8.4804    4.2301 H   0  0  0  0  0  0  0  0  0  0  0  0
    2.3447  -10.2259    5.3485 H   0  0  0  0  0  0  0  0  0  0  0  0
    4.0305   -9.8569    5.5309 H   0  0  0  0  0  0  0  0  0  0  0  0
    3.2335   -9.9320    3.9602 H   0  0  0  0  0  0  0  0  0  0  0  0
    1.5020   -8.8638    6.8409 H   0  0  0  0  0  0  0  0  0  0  0  0
    2.2529   -7.3682    7.3077 H   0  0  0  0  0  0  0  0  0  0  0  0
    3.2071   -8.7683    7.2478 H   0  0  0  0  0  0  0  0  0  0  0  0
    0.5890   -8.9032    2.1077 H   0  0  0  0  0  0  0  0  0  0  0  0
    2.0054   -9.8796    2.2875 H   0  0  0  0  0  0  0  0  0  0  0  0
    1.8200   -8.8400    0.8949 H   0  0  0  0  0  0  0  0  0  0  0  0
    2.1254   -6.5089    0.9212 H   0  0  0  0  0  0  0  0  0  0  0  0
    0.1473   -7.2408    1.5730 H   0  0  0  0  0  0  0  0  0  0  0  0
    1.8842   -4.2067    1.6103 H   0  0  0  0  0  0  0  0  0  0  0  0
    1.5536   -4.5323    3.1746 H   0  0  0  0  0  0  0  0  0  0  0  0
    5.6278   -4.2723    3.8763 H   0  0  0  0  0  0  0  0  0  0  0  0
    4.1659   -3.8670    4.8186 H   0  0  0  0  0  0  0  0  0  0  0  0
  1  2  1  0
  1 34  1  0
  1 35  1  0
  1 36  1  0
  2  3  1  0
  2  4  1  0
  2 37  1  0
  3 38  1  0
  3 39  1  0
  3 40  1  0
  4 31  1  0
  4  5  1  0
  4 41  1  1
  5  6  1  0
  5 42  1  0
  5 43  1  0
  6  7  1  0
  6 44  1  0
  6 45  1  0
  7 33  1  0
  7  8  1  0
  7 46  1  6
  8 26  1  0
  8  9  1  6
  8 10  1  0
  9 47  1  0
  9 48  1  0
  9 49  1  0
 10 11  1  0
 10 50  1  0
 10 51  1  0
 11 12  1  0
 12 13  2  0
 12 14  1  0
 14 23  1  6
 14 33  1  0
 14 15  1  0
 15 21  1  0
 15 16  1  0
 15 52  1  6
 16 17  1  0
 17 18  1  0
 17 19  1  0
 17 20  1  0
 18 53  1  0
 18 54  1  0
 18 55  1  0
 19 56  1  0
 19 57  1  0
 19 58  1  0
 20 21  1  0
 21 22  1  0
 21 59  1  1
 22 23  1  0
 22 26  1  0
 22 60  1  6
 23 24  1  0
 23 25  1  0
 24 61  1  0
 24 62  1  0
 24 63  1  0
 25 64  1  0
 25 65  1  0
 25 66  1  0
 26 27  1  6
 26 28  1  0
 27 67  1  0
 27 68  1  0
 27 69  1  0
 28 29  1  0
 28 30  1  0
 28 70  1  6
 29 71  1  0
 31 30  1  1
 30 72  1  0
 30 73  1  0
 31 33  1  0
 31 32  1  0
 33 32  1  1
 32 74  1  0
 32 75  1  0
M  END
>  <i_m_ct_stereo_status>  (328) 
1

>  <s_m_source_file>  (328) 
/var/tmp/pbs.5076255.sched01/tmp6w_bron9/120d4r_aq7a.sdf

>  <i_m_source_file_index>  (328) 
6

>  <i_lp_mmshare_version>  (328) 
48012

>  <i_f3d_flags>  (328) 
0

>  <s_epik_input>  (328) 
W0NAXTEyM1tDQF00NVtDQEBdNihbQ0gyXTUpW0NASF0oW0NIXShbQ0gzXSlbQ0gzXSlbQ0gyXVtDSDJdW0NASF00W0NAQF0oW0NIM10pKFtDSDJdT0MxPU8pW0NAXShbQ0gzXSkoW0NAQEhdKFtPSF0pW0NIMl02KVtDQEBIXShDMyhbQ0gzXSlbQ0gzXSlbQ0BIXTdbQ0BIXTJPQyhPNykoW0NIM10pW0NIM10=

>  <s_epik_cmdline>  (328) 
J2VwaWtfcHl0aG9uJywgJy1waHQnLCAnMi4wJywgJy1waCcsICc3LjAnLCAnLXRuJywgJzgnLCAnLW1hJywgJzIwMCcsICctaW1hZScsICc8aW5maWxlLm1hZT4nLCAnLW9tYWUnLCAnPG91dGZpbGUubWFlPic=

>  <r_lp_tautomer_probability>  (328) 
1

>  <r_epik_Ionization_Penalty>  (328) 
3.52473e-07

>  <r_epik_Ionization_Penalty_Charging>  (328) 
0

>  <r_epik_Ionization_Penalty_Neutral>  (328) 
3.52473e-07

>  <r_epik_State_Penalty>  (328) 
-0

>  <r_epik_Charging_Adjusted_Penalty>  (328) 
0

>  <i_epik_Tot_Q>  (328) 
0

>  <i_epik_Tot_abs_Q>  (328) 
0

>  <s_epik_Chemistry_Notes>  (328) 
This compound has an ester and may undergo hydrolysis at high or low pH.

>  <s_lp_Force_Field>  (328) 
OPLS3e

>  <r_lp_Energy>  (328) 
339.9

>  <b_lp_Chiralities_Consistent>  (328) 
1

>  <s_lp_Variant>  (328) 
83:0-1

>  <s_i_glide_gridfile>  (328) 
pfpi4k_grid

>  <i_i_glide_lignum>  (328) 
6

>  <i_i_glide_rotatable_bonds>  (328) 
2

>  <r_i_docking_score>  (328) 
-1.97277

>  <r_i_glide_ligand_efficiency>  (328) 
-0.059781

>  <r_i_glide_ligand_efficiency_sa>  (328) 
-0.19175

>  <r_i_glide_ligand_efficiency_ln>  (328) 
-0.438735

>  <r_i_glide_gscore>  (328) 
-1.97277

>  <r_i_glide_lipo>  (328) 
-0.23559

>  <r_i_glide_hbond>  (328) 
0

>  <r_i_glide_metal>  (328) 
-0

>  <r_i_glide_rewards>  (328) 
-0.282068

>  <r_i_glide_evdw>  (328) 
-18.3735

>  <r_i_glide_ecoul>  (328) 
-3.55673

>  <r_i_glide_erotb>  (328) 
0

>  <r_i_glide_esite>  (328) 
-0.00293328

>  <r_i_glide_emodel>  (328) 
-24.9523

>  <r_i_glide_energy>  (328) 
-21.9302

>  <r_i_glide_einternal>  (328) 
0.337129

>  <r_i_glide_intrahb_reward>  (328) 
-0

>  <i_i_glide_confnum>  (328) 
1

>  <i_i_glide_posenum>  (328) 
6

>  <r_i_glide_eff_state_penalty>  (328) 
0

>  <ligand_id>  (328) 
83

>  <original_smiles>  (328) 
CC(C)C1CCC2C3(C)COC(=O)C45C6OC(C)(C)OC6C(C4(C)C)C3(C)C(O)CC13CC235

>  <smiles>  (328) 
[H]OC1([H])C([H])([H])C23C([H])([H])C24C([H])(C([H])([H])C([H])([H])C3([H])C([H])(C([H])([H])[H])C([H])([H])[H])C2(C([H])([H])[H])C([H])([H])OC(=O)C43C4([H])OC(C([H])([H])[H])(C([H])([H])[H])OC4([H])C([H])(C3(C([H])([H])[H])C([H])([H])[H])C12C([H])([H])[H]

$$$$
83:0:2
     RDKit          3D

 75 81  0  0  1  0  0  0  0  0999 V2000
    3.4374   -3.8226   -0.2238 C   0  0  0  0  0  0  0  0  0  0  0  0
    4.7057   -4.0617    0.6204 C   0  0  0  0  0  0  0  0  0  0  0  0
    5.7229   -4.9750   -0.0980 C   0  0  0  0  0  0  0  0  0  0  0  0
    4.4373   -4.3662    2.1242 C   0  0  2  0  0  0  0  0  0  0  0  0
    5.7035   -4.1085    3.0289 C   0  0  0  0  0  0  0  0  0  0  0  0
    5.8709   -5.0401    4.2644 C   0  0  0  0  0  0  0  0  0  0  0  0
    5.2419   -6.3874    3.8831 C   0  0  1  0  0  0  0  0  0  0  0  0
    5.6591   -7.7409    4.2478 C   0  0  1  0  0  0  0  0  0  0  0  0
    7.1968   -7.8979    4.0372 C   0  0  0  0  0  0  0  0  0  0  0  0
    5.5289   -7.5082    5.8496 C   0  0  0  0  0  0  0  0  0  0  0  0
    4.3662   -6.9618    6.5780 O   0  0  0  0  0  0  0  0  0  0  0  0
    3.0380   -6.9940    6.1676 C   0  0  0  0  0  0  0  0  0  0  0  0
    2.0760   -6.5891    6.8156 O   0  0  0  0  0  0  0  0  0  0  0  0
    2.9191   -7.5680    4.7735 C   0  0  2  0  0  0  0  0  0  0  0  0
    1.6159   -7.7597    3.8837 C   0  0  2  0  0  0  0  0  0  0  0  0
    0.2528   -8.1098    4.0270 O   0  0  0  0  0  0  0  0  0  0  0  0
   -0.0654   -8.6307    2.7247 C   0  0  0  0  0  0  0  0  0  0  0  0
   -1.0090   -9.8296    2.8839 C   0  0  0  0  0  0  0  0  0  0  0  0
   -0.7366   -7.5466    1.8708 C   0  0  0  0  0  0  0  0  0  0  0  0
    1.1352   -9.0538    2.0776 O   0  0  0  0  0  0  0  0  0  0  0  0
    1.9866   -9.0533    3.1905 C   0  0  1  0  0  0  0  0  0  0  0  0
    3.4326   -9.4895    3.5796 C   0  0  2  0  0  0  0  0  0  0  0  0
    3.2454   -9.1638    5.0361 C   0  0  0  0  0  0  0  0  0  0  0  0
    4.3458   -9.9532    5.8452 C   0  0  0  0  0  0  0  0  0  0  0  0
    2.0523   -9.8235    5.8628 C   0  0  0  0  0  0  0  0  0  0  0  0
    4.7932   -8.7445    3.1309 C   0  0  2  0  0  0  0  0  0  0  0  0
    5.7450   -9.9300    2.7335 C   0  0  0  0  0  0  0  0  0  0  0  0
    4.4622   -8.0385    1.7089 C   0  0  1  0  0  0  0  0  0  0  0  0
    3.9787   -8.9894    0.7824 O   0  0  0  0  0  0  0  0  0  0  0  0
    3.4634   -6.8050    1.5451 C   0  0  0  0  0  0  0  0  0  0  0  0
    3.5633   -5.6174    2.5563 C   0  0  2  0  0  0  0  0  0  0  0  0
    2.8721   -5.1508    3.8203 C   0  0  0  0  0  0  0  0  0  0  0  0
    3.7308   -6.3718    3.9253 C   0  0  2  0  0  0  0  0  0  0  0  0
    2.8858   -4.7321   -0.4484 H   0  0  0  0  0  0  0  0  0  0  0  0
    3.6955   -3.3731   -1.1828 H   0  0  0  0  0  0  0  0  0  0  0  0
    2.7503   -3.1353    0.2726 H   0  0  0  0  0  0  0  0  0  0  0  0
    5.1892   -3.0844    0.6318 H   0  0  0  0  0  0  0  0  0  0  0  0
    5.3935   -6.0016   -0.2301 H   0  0  0  0  0  0  0  0  0  0  0  0
    6.6894   -5.0060    0.4038 H   0  0  0  0  0  0  0  0  0  0  0  0
    5.9024   -4.5818   -1.0959 H   0  0  0  0  0  0  0  0  0  0  0  0
    3.8076   -3.5078    2.3807 H   0  0  0  0  0  0  0  0  0  0  0  0
    6.5958   -4.2266    2.4190 H   0  0  0  0  0  0  0  0  0  0  0  0
    5.7342   -3.0703    3.3600 H   0  0  0  0  0  0  0  0  0  0  0  0
    6.9309   -5.1366    4.4913 H   0  0  0  0  0  0  0  0  0  0  0  0
    5.4034   -4.6153    5.1526 H   0  0  0  0  0  0  0  0  0  0  0  0
    5.6538   -6.4071    2.8831 H   0  0  0  0  0  0  0  0  0  0  0  0
    7.5504   -8.8637    4.3999 H   0  0  0  0  0  0  0  0  0  0  0  0
    7.7757   -7.1606    4.5914 H   0  0  0  0  0  0  0  0  0  0  0  0
    7.5000   -7.7943    2.9951 H   0  0  0  0  0  0  0  0  0  0  0  0
    5.9812   -8.3174    6.4166 H   0  0  0  0  0  0  0  0  0  0  0  0
    6.2617   -6.7381    6.0822 H   0  0  0  0  0  0  0  0  0  0  0  0
    1.4943   -6.9743    3.1781 H   0  0  0  0  0  0  0  0  0  0  0  0
   -0.5756  -10.5870    3.5358 H   0  0  0  0  0  0  0  0  0  0  0  0
   -1.2091  -10.2692    1.9079 H   0  0  0  0  0  0  0  0  0  0  0  0
   -1.9540   -9.4960    3.3147 H   0  0  0  0  0  0  0  0  0  0  0  0
   -0.0703   -6.7067    1.6820 H   0  0  0  0  0  0  0  0  0  0  0  0
   -1.6395   -7.1948    2.3732 H   0  0  0  0  0  0  0  0  0  0  0  0
   -1.0043   -7.9856    0.9117 H   0  0  0  0  0  0  0  0  0  0  0  0
    1.5184   -9.9490    3.6056 H   0  0  0  0  0  0  0  0  0  0  0  0
    3.5080  -10.5722    3.4399 H   0  0  0  0  0  0  0  0  0  0  0  0
    4.1192  -11.0212    5.8628 H   0  0  0  0  0  0  0  0  0  0  0  0
    4.3971   -9.6498    6.8932 H   0  0  0  0  0  0  0  0  0  0  0  0
    5.3472   -9.9632    5.4389 H   0  0  0  0  0  0  0  0  0  0  0  0
    1.9469  -10.8865    5.6374 H   0  0  0  0  0  0  0  0  0  0  0  0
    1.0654   -9.3962    5.7306 H   0  0  0  0  0  0  0  0  0  0  0  0
    2.2033   -9.7403    6.9411 H   0  0  0  0  0  0  0  0  0  0  0  0
    5.2464  -10.6936    2.1353 H   0  0  0  0  0  0  0  0  0  0  0  0
    6.1582  -10.4661    3.5862 H   0  0  0  0  0  0  0  0  0  0  0  0
    6.5864   -9.5991    2.1247 H   0  0  0  0  0  0  0  0  0  0  0  0
    5.4210   -7.7323    1.2916 H   0  0  0  0  0  0  0  0  0  0  0  0
    4.4157   -9.8198    0.9175 H   0  0  0  0  0  0  0  0  0  0  0  0
    3.5743   -6.4372    0.5377 H   0  0  0  0  0  0  0  0  0  0  0  0
    2.4422   -7.1416    1.4648 H   0  0  0  0  0  0  0  0  0  0  0  0
    3.2546   -4.2831    4.3589 H   0  0  0  0  0  0  0  0  0  0  0  0
    1.7840   -5.1492    3.8379 H   0  0  0  0  0  0  0  0  0  0  0  0
  1  2  1  0
  1 34  1  0
  1 35  1  0
  1 36  1  0
  2  3  1  0
  2  4  1  0
  2 37  1  0
  3 38  1  0
  3 39  1  0
  3 40  1  0
  4 31  1  0
  4  5  1  0
  4 41  1  1
  5  6  1  0
  5 42  1  0
  5 43  1  0
  6  7  1  0
  6 44  1  0
  6 45  1  0
  7 33  1  0
  7  8  1  0
  7 46  1  6
  8 26  1  0
  8  9  1  1
  8 10  1  0
  9 47  1  0
  9 48  1  0
  9 49  1  0
 10 11  1  0
 10 50  1  0
 10 51  1  0
 11 12  1  0
 12 13  2  0
 12 14  1  0
 14 23  1  1
 14 33  1  0
 14 15  1  0
 15 21  1  0
 15 16  1  0
 15 52  1  6
 16 17  1  0
 17 18  1  0
 17 19  1  0
 17 20  1  0
 18 53  1  0
 18 54  1  0
 18 55  1  0
 19 56  1  0
 19 57  1  0
 19 58  1  0
 20 21  1  0
 21 22  1  0
 21 59  1  1
 22 23  1  0
 22 26  1  0
 22 60  1  1
 23 24  1  0
 23 25  1  0
 24 61  1  0
 24 62  1  0
 24 63  1  0
 25 64  1  0
 25 65  1  0
 25 66  1  0
 26 27  1  6
 26 28  1  0
 27 67  1  0
 27 68  1  0
 27 69  1  0
 28 29  1  0
 28 30  1  0
 28 70  1  6
 29 71  1  0
 31 30  1  6
 30 72  1  0
 30 73  1  0
 31 33  1  0
 31 32  1  0
 33 32  1  1
 32 74  1  0
 32 75  1  0
M  END
>  <i_m_ct_stereo_status>  (329) 
1

>  <s_m_source_file>  (329) 
/var/tmp/pbs.5076255.sched01/tmp6w_bron9/120d4r_aq7a.sdf

>  <i_m_source_file_index>  (329) 
6

>  <i_lp_mmshare_version>  (329) 
48012

>  <i_f3d_flags>  (329) 
0

>  <s_epik_input>  (329) 
W0NAXTEyM1tDQF00NVtDQEBdNihbQ0gyXTUpW0NASF0oW0NIXShbQ0gzXSlbQ0gzXSlbQ0gyXVtDSDJdW0NASF00W0NAQF0oW0NIM10pKFtDSDJdT0MxPU8pW0NAXShbQ0gzXSkoW0NAQEhdKFtPSF0pW0NIMl02KVtDQEBIXShDMyhbQ0gzXSlbQ0gzXSlbQ0BIXTdbQ0BIXTJPQyhPNykoW0NIM10pW0NIM10=

>  <s_epik_cmdline>  (329) 
J2VwaWtfcHl0aG9uJywgJy1waHQnLCAnMi4wJywgJy1waCcsICc3LjAnLCAnLXRuJywgJzgnLCAnLW1hJywgJzIwMCcsICctaW1hZScsICc8aW5maWxlLm1hZT4nLCAnLW9tYWUnLCAnPG91dGZpbGUubWFlPic=

>  <r_lp_tautomer_probability>  (329) 
1

>  <r_epik_Ionization_Penalty>  (329) 
3.52473e-07

>  <r_epik_Ionization_Penalty_Charging>  (329) 
0

>  <r_epik_Ionization_Penalty_Neutral>  (329) 
3.52473e-07

>  <r_epik_State_Penalty>  (329) 
-0

>  <r_epik_Charging_Adjusted_Penalty>  (329) 
0

>  <i_epik_Tot_Q>  (329) 
0

>  <i_epik_Tot_abs_Q>  (329) 
0

>  <s_epik_Chemistry_Notes>  (329) 
This compound has an ester and may undergo hydrolysis at high or low pH.

>  <s_lp_Force_Field>  (329) 
OPLS3e

>  <r_lp_Energy>  (329) 
339.9

>  <b_lp_Chiralities_Consistent>  (329) 
1

>  <s_lp_Variant>  (329) 
83:0-1

>  <s_i_glide_gridfile>  (329) 
pfpi4k_grid

>  <i_i_glide_lignum>  (329) 
6

>  <i_i_glide_rotatable_bonds>  (329) 
2

>  <r_i_docking_score>  (329) 
-1.68712

>  <r_i_glide_ligand_efficiency>  (329) 
-0.0511247

>  <r_i_glide_ligand_efficiency_sa>  (329) 
-0.163984

>  <r_i_glide_ligand_efficiency_ln>  (329) 
-0.375206

>  <r_i_glide_gscore>  (329) 
-1.68712

>  <r_i_glide_lipo>  (329) 
-0.181888

>  <r_i_glide_hbond>  (329) 
0

>  <r_i_glide_metal>  (329) 
-0

>  <r_i_glide_rewards>  (329) 
-0.282068

>  <r_i_glide_evdw>  (329) 
-19.9682

>  <r_i_glide_ecoul>  (329) 
-1.25321

>  <r_i_glide_erotb>  (329) 
0

>  <r_i_glide_esite>  (329) 
-0.03677

>  <r_i_glide_emodel>  (329) 
-23.5432

>  <r_i_glide_energy>  (329) 
-21.2214

>  <r_i_glide_einternal>  (329) 
0.740187

>  <r_i_glide_intrahb_reward>  (329) 
-0

>  <i_i_glide_confnum>  (329) 
1

>  <i_i_glide_posenum>  (329) 
35

>  <r_i_glide_eff_state_penalty>  (329) 
0

>  <ligand_id>  (329) 
83

>  <original_smiles>  (329) 
CC(C)C1CCC2C3(C)COC(=O)C45C6OC(C)(C)OC6C(C4(C)C)C3(C)C(O)CC13CC235

>  <smiles>  (329) 
[H]OC1([H])C([H])([H])C23C([H])([H])C24C([H])(C([H])([H])C([H])([H])C3([H])C([H])(C([H])([H])[H])C([H])([H])[H])C2(C([H])([H])[H])C([H])([H])OC(=O)C43C4([H])OC(C([H])([H])[H])(C([H])([H])[H])OC4([H])C([H])(C3(C([H])([H])[H])C([H])([H])[H])C12C([H])([H])[H]

$$$$
84:0:0
     RDKit          3D

 51 55  0  0  1  0  0  0  0  0999 V2000
    1.8761   -5.7102    0.4714 C   0  0  0  0  0  0  0  0  0  0  0  0
    3.2109   -4.9750    0.2961 C   0  0  2  0  0  0  0  0  0  0  0  0
    4.4253   -5.9452    0.4508 C   0  0  0  0  0  0  0  0  0  0  0  0
    5.7329   -5.2839    0.9864 C   0  0  0  0  0  0  0  0  0  0  0  0
    5.8440   -3.8388    0.4719 C   0  0  2  0  0  0  0  0  0  0  0  0
    7.1551   -3.0763    0.6698 C   0  0  1  0  0  0  0  0  0  0  0  0
    8.2718   -3.4359   -0.3264 C   0  0  0  0  0  0  0  0  0  0  0  0
    6.7950   -1.5724    0.5718 C   0  0  1  0  0  0  0  0  0  0  0  0
    5.9369   -1.3524   -0.5474 O   0  0  0  0  0  0  0  0  0  0  0  0
    4.6060   -1.9381   -0.4685 C   0  0  1  0  0  0  0  0  0  0  0  0
    4.2408   -2.4530   -1.8389 C   0  0  0  0  0  0  0  0  0  0  0  0
    3.0962   -2.3631   -2.5800 C   0  0  0  0  0  0  0  0  0  0  0  0
    3.3319   -3.0501   -3.8010 C   0  0  0  0  0  0  0  0  0  0  0  0
    4.6162   -3.5152   -3.7175 C   0  0  0  0  0  0  0  0  0  0  0  0
    5.1933   -3.1225   -2.5514 O   0  0  0  0  0  0  0  0  0  0  0  0
    4.6341   -2.8921    0.7851 C   0  0  1  0  0  0  0  0  0  0  0  0
    3.4308   -3.7721    1.2349 C   0  0  1  0  0  0  0  0  0  0  0  0
    2.2858   -2.9373    1.8287 C   0  0  0  0  0  0  0  0  0  0  0  0
    2.7392   -2.2786    3.1621 C   0  0  0  0  0  0  0  0  0  0  0  0
    4.2653   -1.9870    3.2828 C   0  0  1  0  0  0  0  0  0  0  0  0
    5.0228   -2.9831    4.1723 C   0  0  0  0  0  0  0  0  0  0  0  0
    4.8728   -1.7852    1.8808 C   0  0  1  0  0  0  0  0  0  0  0  0
    6.1841   -1.2461    1.7895 O   0  0  0  0  0  0  0  0  0  0  0  0
    1.7474   -6.1046    1.4790 H   0  0  0  0  0  0  0  0  0  0  0  0
    1.7917   -6.5337   -0.2224 H   0  0  0  0  0  0  0  0  0  0  0  0
    1.0532   -5.0613    0.2000 H   0  0  0  0  0  0  0  0  0  0  0  0
    3.2187   -4.6049   -0.7247 H   0  0  0  0  0  0  0  0  0  0  0  0
    4.1651   -6.7668    1.1181 H   0  0  0  0  0  0  0  0  0  0  0  0
    4.6228   -6.4019   -0.5197 H   0  0  0  0  0  0  0  0  0  0  0  0
    5.7560   -5.2966    2.0768 H   0  0  0  0  0  0  0  0  0  0  0  0
    6.5989   -5.8636    0.6559 H   0  0  0  0  0  0  0  0  0  0  0  0
    5.8416   -4.0408   -0.5894 H   0  0  0  0  0  0  0  0  0  0  0  0
    7.5275   -3.2661    1.6752 H   0  0  0  0  0  0  0  0  0  0  0  0
    7.9806   -3.2336   -1.3588 H   0  0  0  0  0  0  0  0  0  0  0  0
    8.5163   -4.4959   -0.2497 H   0  0  0  0  0  0  0  0  0  0  0  0
    9.1884   -2.8748   -0.1246 H   0  0  0  0  0  0  0  0  0  0  0  0
    7.6848   -0.9498    0.4792 H   0  0  0  0  0  0  0  0  0  0  0  0
    3.8865   -1.1326   -0.3165 H   0  0  0  0  0  0  0  0  0  0  0  0
    2.1970   -1.8517   -2.2758 H   0  0  0  0  0  0  0  0  0  0  0  0
    2.6442   -3.1997   -4.6182 H   0  0  0  0  0  0  0  0  0  0  0  0
    5.2383   -4.1049   -4.3702 H   0  0  0  0  0  0  0  0  0  0  0  0
    3.7278   -4.3041    2.1357 H   0  0  0  0  0  0  0  0  0  0  0  0
    1.9750   -2.1764    1.1104 H   0  0  0  0  0  0  0  0  0  0  0  0
    1.4220   -3.5612    2.0703 H   0  0  0  0  0  0  0  0  0  0  0  0
    2.1759   -1.3503    3.2910 H   0  0  0  0  0  0  0  0  0  0  0  0
    2.4406   -2.9231    3.9902 H   0  0  0  0  0  0  0  0  0  0  0  0
    4.3527   -1.0337    3.8072 H   0  0  0  0  0  0  0  0  0  0  0  0
    5.0438   -3.9990    3.7860 H   0  0  0  0  0  0  0  0  0  0  0  0
    4.6196   -3.0123    5.1853 H   0  0  0  0  0  0  0  0  0  0  0  0
    6.0514   -2.6568    4.2678 H   0  0  0  0  0  0  0  0  0  0  0  0
    4.3008   -0.8912    1.6258 H   0  0  0  0  0  0  0  0  0  0  0  0
  1  2  1  0
  1 24  1  0
  1 25  1  0
  1 26  1  0
  2 17  1  0
  2  3  1  0
  2 27  1  6
  3  4  1  0
  3 28  1  0
  3 29  1  0
  4  5  1  0
  4 30  1  0
  4 31  1  0
  5 16  1  0
  5  6  1  0
  5 32  1  6
  6  7  1  0
  6  8  1  0
  6 33  1  1
  7 34  1  0
  7 35  1  0
  7 36  1  0
  8 23  1  0
  8  9  1  0
  8 37  1  6
  9 10  1  0
 10 11  1  0
 16 10  1  6
 10 38  1  1
 11 15  1  0
 11 12  2  0
 12 13  1  0
 12 39  1  0
 13 14  2  0
 13 40  1  0
 14 15  1  0
 14 41  1  0
 16 22  1  0
 16 17  1  0
 17 18  1  0
 17 42  1  1
 18 19  1  0
 18 43  1  0
 18 44  1  0
 19 20  1  0
 19 45  1  0
 19 46  1  0
 20 21  1  0
 20 22  1  0
 20 47  1  1
 21 48  1  0
 21 49  1  0
 21 50  1  0
 22 23  1  0
 22 51  1  6
M  END
>  <i_m_ct_stereo_status>  (330) 
1

>  <s_m_source_file>  (330) 
/var/tmp/pbs.5076255.sched01/tmp6w_bron9/120d4r_aq7a.sdf

>  <i_m_source_file_index>  (330) 
7

>  <i_lp_mmshare_version>  (330) 
48012

>  <i_f3d_flags>  (330) 
0

>  <s_epik_input>  (330) 
W0NAXTEyM1tDQEBIXTRbQ0gyXVtDSDJdW0NAQEhdKFtDSDNdKVtDQEBIXTJbQ0gyXVtDSDJdW0NAQEhdKFtDSDNdKVtDQEhdM09bQ0BASF0oW0NAQEhdNFtDSDNdKU9bQ0BIXTFjNVtjSF1bY0hdW2NIXW81

>  <s_epik_cmdline>  (330) 
J2VwaWtfcHl0aG9uJywgJy1waHQnLCAnMi4wJywgJy1waCcsICc3LjAnLCAnLXRuJywgJzgnLCAnLW1hJywgJzIwMCcsICctaW1hZScsICc8aW5maWxlLm1hZT4nLCAnLW9tYWUnLCAnPG91dGZpbGUubWFlPic=

>  <r_lp_tautomer_probability>  (330) 
1

>  <r_epik_Ionization_Penalty>  (330) 
4.91936e-12

>  <r_epik_Ionization_Penalty_Charging>  (330) 
0

>  <r_epik_Ionization_Penalty_Neutral>  (330) 
4.91936e-12

>  <r_epik_State_Penalty>  (330) 
-0

>  <r_epik_Charging_Adjusted_Penalty>  (330) 
0

>  <i_epik_Tot_Q>  (330) 
0

>  <i_epik_Tot_abs_Q>  (330) 
0

>  <s_epik_Chemistry_Notes>  (330) 
This compound contains an acetal/aminal-like group ( X-CH(R)-Y where X, Y are N, S, or O) that may be acid/base labile, releasing an aldehyde.

>  <s_lp_Force_Field>  (330) 
OPLS3e

>  <r_lp_Energy>  (330) 
85.1925

>  <b_lp_Chiralities_Consistent>  (330) 
1

>  <s_lp_Variant>  (330) 
84:0-1

>  <s_i_glide_gridfile>  (330) 
pfpi4k_grid

>  <i_i_glide_lignum>  (330) 
7

>  <i_i_glide_rotatable_bonds>  (330) 
1

>  <r_i_docking_score>  (330) 
-3.39354

>  <r_i_glide_ligand_efficiency>  (330) 
-0.147545

>  <r_i_glide_ligand_efficiency_sa>  (330) 
-0.419598

>  <r_i_glide_ligand_efficiency_ln>  (330) 
-0.820588

>  <r_i_glide_gscore>  (330) 
-3.39354

>  <r_i_glide_lipo>  (330) 
-0.972275

>  <r_i_glide_hbond>  (330) 
-0.0400524

>  <r_i_glide_metal>  (330) 
-0

>  <r_i_glide_rewards>  (330) 
-1.25158

>  <r_i_glide_evdw>  (330) 
-24.8861

>  <r_i_glide_ecoul>  (330) 
-0.430154

>  <r_i_glide_erotb>  (330) 
0.185924

>  <r_i_glide_esite>  (330) 
-0.00672232

>  <r_i_glide_emodel>  (330) 
-29.818

>  <r_i_glide_energy>  (330) 
-25.3162

>  <r_i_glide_einternal>  (330) 
0.587027

>  <r_i_glide_intrahb_reward>  (330) 
-0

>  <i_i_glide_confnum>  (330) 
1

>  <i_i_glide_posenum>  (330) 
37

>  <r_i_glide_eff_state_penalty>  (330) 
0

>  <ligand_id>  (330) 
84

>  <original_smiles>  (330) 
CC1CCC2C(C)C3OC(c4ccco4)C24C1CCC(C)C4O3

>  <smiles>  (330) 
[H]c1oc(C2([H])OC3([H])OC4([H])C([H])(C([H])([H])[H])C([H])([H])C([H])([H])C5([H])C([H])(C([H])([H])[H])C([H])([H])C([H])([H])C([H])(C3([H])C([H])([H])[H])C245)c([H])c1[H]

$$$$
84:0:1
     RDKit          3D

 51 55  0  0  1  0  0  0  0  0999 V2000
    1.8739   -5.5440    0.1833 C   0  0  0  0  0  0  0  0  0  0  0  0
    3.1941   -4.7784    0.1168 C   0  0  2  0  0  0  0  0  0  0  0  0
    4.4198   -5.7669    0.1698 C   0  0  0  0  0  0  0  0  0  0  0  0
    5.7400   -5.1819    0.7596 C   0  0  0  0  0  0  0  0  0  0  0  0
    5.8896   -3.6960    0.3909 C   0  0  2  0  0  0  0  0  0  0  0  0
    7.2124   -2.9828    0.6801 C   0  0  1  0  0  0  0  0  0  0  0  0
    8.3485   -3.2710   -0.3122 C   0  0  0  0  0  0  0  0  0  0  0  0
    6.8646   -1.4711    0.7145 C   0  0  1  0  0  0  0  0  0  0  0  0
    6.0391   -1.1428   -0.3945 O   0  0  0  0  0  0  0  0  0  0  0  0
    4.6952   -1.7207   -0.4261 C   0  0  1  0  0  0  0  0  0  0  0  0
    4.4212   -2.1351   -1.8657 C   0  0  0  0  0  0  0  0  0  0  0  0
    4.3464   -3.3022   -2.5604 C   0  0  0  0  0  0  0  0  0  0  0  0
    3.8586   -2.9965   -3.8560 C   0  0  0  0  0  0  0  0  0  0  0  0
    3.8197   -1.6455   -3.9252 C   0  0  0  0  0  0  0  0  0  0  0  0
    4.1594   -1.0887   -2.7300 O   0  0  0  0  0  0  0  0  0  0  0  0
    4.6807   -2.7750    0.7582 C   0  0  1  0  0  0  0  0  0  0  0  0
    3.4497   -3.6715    1.1545 C   0  0  1  0  0  0  0  0  0  0  0  0
    2.3150   -2.8470    1.7566 C   0  0  0  0  0  0  0  0  0  0  0  0
    2.7407   -2.3065    3.1446 C   0  0  0  0  0  0  0  0  0  0  0  0
    4.2718   -2.0718    3.3196 C   0  0  1  0  0  0  0  0  0  0  0  0
    5.0041   -3.1501    4.1375 C   0  0  0  0  0  0  0  0  0  0  0  0
    4.9115   -1.7604    1.9498 C   0  0  1  0  0  0  0  0  0  0  0  0
    6.2352   -1.2401    1.9392 O   0  0  0  0  0  0  0  0  0  0  0  0
    1.6380   -6.0452    1.1291 H   0  0  0  0  0  0  0  0  0  0  0  0
    1.8328   -6.2433   -0.6308 H   0  0  0  0  0  0  0  0  0  0  0  0
    1.0947   -4.8819   -0.1575 H   0  0  0  0  0  0  0  0  0  0  0  0
    3.0630   -4.2612   -0.8319 H   0  0  0  0  0  0  0  0  0  0  0  0
    4.1878   -6.6715    0.7319 H   0  0  0  0  0  0  0  0  0  0  0  0
    4.6186   -6.1199   -0.8371 H   0  0  0  0  0  0  0  0  0  0  0  0
    5.7398   -5.2834    1.8458 H   0  0  0  0  0  0  0  0  0  0  0  0
    6.6092   -5.7461    0.4092 H   0  0  0  0  0  0  0  0  0  0  0  0
    5.9507   -3.7702   -0.6847 H   0  0  0  0  0  0  0  0  0  0  0  0
    7.5520   -3.2768    1.6732 H   0  0  0  0  0  0  0  0  0  0  0  0
    8.0942   -2.9792   -1.3297 H   0  0  0  0  0  0  0  0  0  0  0  0
    8.5721   -4.3370   -0.3220 H   0  0  0  0  0  0  0  0  0  0  0  0
    9.2698   -2.7545   -0.0376 H   0  0  0  0  0  0  0  0  0  0  0  0
    7.7703   -0.8615    0.7046 H   0  0  0  0  0  0  0  0  0  0  0  0
    3.9879   -0.9171   -0.2167 H   0  0  0  0  0  0  0  0  0  0  0  0
    4.5375   -4.3113   -2.1901 H   0  0  0  0  0  0  0  0  0  0  0  0
    3.5733   -3.7082   -4.6167 H   0  0  0  0  0  0  0  0  0  0  0  0
    3.5818   -0.9325   -4.7216 H   0  0  0  0  0  0  0  0  0  0  0  0
    3.7376   -4.2582    2.0259 H   0  0  0  0  0  0  0  0  0  0  0  0
    2.0543   -2.0229    1.0878 H   0  0  0  0  0  0  0  0  0  0  0  0
    1.4350   -3.4664    1.9037 H   0  0  0  0  0  0  0  0  0  0  0  0
    2.1898   -1.3839    3.3398 H   0  0  0  0  0  0  0  0  0  0  0  0
    2.4171   -3.0311    3.8932 H   0  0  0  0  0  0  0  0  0  0  0  0
    4.3641   -1.1693    3.9268 H   0  0  0  0  0  0  0  0  0  0  0  0
    5.0208   -4.1272    3.6569 H   0  0  0  0  0  0  0  0  0  0  0  0
    4.5699   -3.2684    5.1323 H   0  0  0  0  0  0  0  0  0  0  0  0
    6.0338   -2.8531    4.2873 H   0  0  0  0  0  0  0  0  0  0  0  0
    4.3682   -0.8346    1.7571 H   0  0  0  0  0  0  0  0  0  0  0  0
  1  2  1  0
  1 24  1  0
  1 25  1  0
  1 26  1  0
  2 17  1  0
  2  3  1  0
  2 27  1  6
  3  4  1  0
  3 28  1  0
  3 29  1  0
  4  5  1  0
  4 30  1  0
  4 31  1  0
  5 16  1  0
  5  6  1  0
  5 32  1  6
  6  7  1  0
  6  8  1  0
  6 33  1  1
  7 34  1  0
  7 35  1  0
  7 36  1  0
  8 23  1  0
  8  9  1  0
  8 37  1  1
  9 10  1  0
 10 11  1  0
 16 10  1  6
 10 38  1  1
 11 15  1  0
 11 12  2  0
 12 13  1  0
 12 39  1  0
 13 14  2  0
 13 40  1  0
 14 15  1  0
 14 41  1  0
 16 22  1  0
 16 17  1  0
 17 18  1  0
 17 42  1  1
 18 19  1  0
 18 43  1  0
 18 44  1  0
 19 20  1  0
 19 45  1  0
 19 46  1  0
 20 21  1  0
 20 22  1  0
 20 47  1  1
 21 48  1  0
 21 49  1  0
 21 50  1  0
 22 23  1  0
 22 51  1  6
M  END
>  <i_m_ct_stereo_status>  (331) 
1

>  <s_m_source_file>  (331) 
/var/tmp/pbs.5076255.sched01/tmp6w_bron9/120d4r_aq7a.sdf

>  <i_m_source_file_index>  (331) 
7

>  <i_lp_mmshare_version>  (331) 
48012

>  <i_f3d_flags>  (331) 
0

>  <s_epik_input>  (331) 
W0NAXTEyM1tDQEBIXTRbQ0gyXVtDSDJdW0NAQEhdKFtDSDNdKVtDQEBIXTJbQ0gyXVtDSDJdW0NAQEhdKFtDSDNdKVtDQEhdM09bQ0BASF0oW0NAQEhdNFtDSDNdKU9bQ0BIXTFjNVtjSF1bY0hdW2NIXW81

>  <s_epik_cmdline>  (331) 
J2VwaWtfcHl0aG9uJywgJy1waHQnLCAnMi4wJywgJy1waCcsICc3LjAnLCAnLXRuJywgJzgnLCAnLW1hJywgJzIwMCcsICctaW1hZScsICc8aW5maWxlLm1hZT4nLCAnLW9tYWUnLCAnPG91dGZpbGUubWFlPic=

>  <r_lp_tautomer_probability>  (331) 
1

>  <r_epik_Ionization_Penalty>  (331) 
4.91936e-12

>  <r_epik_Ionization_Penalty_Charging>  (331) 
0

>  <r_epik_Ionization_Penalty_Neutral>  (331) 
4.91936e-12

>  <r_epik_State_Penalty>  (331) 
-0

>  <r_epik_Charging_Adjusted_Penalty>  (331) 
0

>  <i_epik_Tot_Q>  (331) 
0

>  <i_epik_Tot_abs_Q>  (331) 
0

>  <s_epik_Chemistry_Notes>  (331) 
This compound contains an acetal/aminal-like group ( X-CH(R)-Y where X, Y are N, S, or O) that may be acid/base labile, releasing an aldehyde.

>  <s_lp_Force_Field>  (331) 
OPLS3e

>  <r_lp_Energy>  (331) 
85.1925

>  <b_lp_Chiralities_Consistent>  (331) 
1

>  <s_lp_Variant>  (331) 
84:0-1

>  <s_i_glide_gridfile>  (331) 
pfpi4k_grid

>  <i_i_glide_lignum>  (331) 
7

>  <i_i_glide_rotatable_bonds>  (331) 
1

>  <r_i_docking_score>  (331) 
-3.20561

>  <r_i_glide_ligand_efficiency>  (331) 
-0.139374

>  <r_i_glide_ligand_efficiency_sa>  (331) 
-0.396362

>  <r_i_glide_ligand_efficiency_ln>  (331) 
-0.775145

>  <r_i_glide_gscore>  (331) 
-3.20561

>  <r_i_glide_lipo>  (331) 
-0.751496

>  <r_i_glide_hbond>  (331) 
-0.0455632

>  <r_i_glide_metal>  (331) 
-0

>  <r_i_glide_rewards>  (331) 
-1.25158

>  <r_i_glide_evdw>  (331) 
-24.2775

>  <r_i_glide_ecoul>  (331) 
-0.778912

>  <r_i_glide_erotb>  (331) 
0.185924

>  <r_i_glide_esite>  (331) 
-0.0121767

>  <r_i_glide_emodel>  (331) 
-27.1954

>  <r_i_glide_energy>  (331) 
-25.0564

>  <r_i_glide_einternal>  (331) 
0.83635

>  <r_i_glide_intrahb_reward>  (331) 
-0

>  <i_i_glide_confnum>  (331) 
1

>  <i_i_glide_posenum>  (331) 
1

>  <r_i_glide_eff_state_penalty>  (331) 
0

>  <ligand_id>  (331) 
84

>  <original_smiles>  (331) 
CC1CCC2C(C)C3OC(c4ccco4)C24C1CCC(C)C4O3

>  <smiles>  (331) 
[H]c1oc(C2([H])OC3([H])OC4([H])C([H])(C([H])([H])[H])C([H])([H])C([H])([H])C5([H])C([H])(C([H])([H])[H])C([H])([H])C([H])([H])C([H])(C3([H])C([H])([H])[H])C245)c([H])c1[H]

$$$$
85:0:0
     RDKit          3D

 21 23  0  0  1  0  0  0  0  0999 V2000
    2.6448  -10.8318    2.9366 C   0  0  0  0  0  0  0  0  0  0  0  0
    2.2603   -9.4341    2.4607 C   0  0  0  0  0  0  0  0  0  0  0  0
    3.2956   -8.7584    1.9110 N   0  0  0  0  0  0  0  0  0  0  0  0
    2.9843   -7.5353    1.4943 N   0  0  0  0  0  0  0  0  0  0  0  0
    3.8791   -6.6978    0.9098 C   0  0  0  0  0  0  0  0  0  0  0  0
    3.2644   -5.5554    0.5992 N   0  0  0  0  0  0  0  0  0  0  0  0
    1.9280   -5.6639    0.9853 N   0  0  0  0  0  0  0  0  0  0  0  0
    1.7673   -6.8725    1.5372 C   0  0  0  0  0  0  0  0  0  0  0  0
    0.6750   -7.5628    2.1111 C   0  0  0  0  0  0  0  0  0  0  0  0
   -0.5395   -6.9699    2.1943 N   0  0  0  0  0  0  0  0  0  0  0  0
   -1.5419   -7.6700    2.7495 C   0  0  0  0  0  0  0  0  0  0  0  0
   -1.3888   -8.9704    3.2403 C   0  0  0  0  0  0  0  0  0  0  0  0
   -0.1320   -9.5919    3.1631 C   0  0  0  0  0  0  0  0  0  0  0  0
    0.9498   -8.8868    2.5859 C   0  0  0  0  0  0  0  0  0  0  0  0
    1.8361  -11.4026    3.3813 H   0  0  0  0  0  0  0  0  0  0  0  0
    3.4388  -10.7825    3.6834 H   0  0  0  0  0  0  0  0  0  0  0  0
    3.0126  -11.4314    2.1025 H   0  0  0  0  0  0  0  0  0  0  0  0
    4.9187   -6.9180    0.7161 H   0  0  0  0  0  0  0  0  0  0  0  0
   -2.4953   -7.1709    2.7947 H   0  0  0  0  0  0  0  0  0  0  0  0
   -2.2326   -9.4721    3.6795 H   0  0  0  0  0  0  0  0  0  0  0  0
   -0.0402  -10.5937    3.5556 H   0  0  0  0  0  0  0  0  0  0  0  0
  1  2  1  0
  1 15  1  0
  1 16  1  0
  1 17  1  0
  2 14  1  0
  2  3  2  0
  3  4  1  0
  4  8  1  0
  4  5  1  0
  5  6  2  0
  5 18  1  0
  6  7  1  0
  7  8  2  0
  8  9  1  0
  9 14  2  0
  9 10  1  0
 10 11  2  0
 11 12  1  0
 11 19  1  0
 12 13  2  0
 12 20  1  0
 13 14  1  0
 13 21  1  0
M  END
>  <i_m_ct_stereo_status>  (332) 
1

>  <s_m_source_file>  (332) 
/var/tmp/pbs.5076255.sched01/tmp6w_bron9/120d4r_aq7a.sdf

>  <i_m_source_file_index>  (332) 
8

>  <i_lp_mmshare_version>  (332) 
48012

>  <i_f3d_flags>  (332) 
0

>  <s_epik_input>  (332) 
bjFbY0hdW2NIXVtjSF1jKGMobjIpW0NIM10pYzFjKG4yMylubltjSF0z

>  <s_epik_cmdline>  (332) 
J2VwaWtfcHl0aG9uJywgJy1waHQnLCAnMi4wJywgJy1waCcsICc3LjAnLCAnLXRuJywgJzgnLCAnLW1hJywgJzIwMCcsICctaW1hZScsICc8aW5maWxlLm1hZT4nLCAnLW9tYWUnLCAnPG91dGZpbGUubWFlPic=

>  <r_lp_tautomer_probability>  (332) 
1

>  <r_epik_Ionization_Penalty>  (332) 
5.33377e-09

>  <r_epik_Ionization_Penalty_Charging>  (332) 
0

>  <r_epik_Ionization_Penalty_Neutral>  (332) 
5.33377e-09

>  <r_epik_State_Penalty>  (332) 
-0

>  <r_epik_Charging_Adjusted_Penalty>  (332) 
0

>  <i_epik_Tot_Q>  (332) 
0

>  <i_epik_Tot_abs_Q>  (332) 
0

>  <s_lp_Force_Field>  (332) 
OPLS3e

>  <r_lp_Energy>  (332) 
24.0138

>  <b_lp_Chiralities_Consistent>  (332) 
1

>  <s_lp_Variant>  (332) 
85:0-1

>  <s_i_glide_gridfile>  (332) 
pfpi4k_grid

>  <i_i_glide_lignum>  (332) 
8

>  <i_i_glide_rotatable_bonds>  (332) 
0

>  <r_i_docking_score>  (332) 
-4.02392

>  <r_i_glide_ligand_efficiency>  (332) 
-0.287423

>  <r_i_glide_ligand_efficiency_sa>  (332) 
-0.69273

>  <r_i_glide_ligand_efficiency_ln>  (332) 
-1.10576

>  <r_i_glide_gscore>  (332) 
-4.02392

>  <r_i_glide_lipo>  (332) 
-0.039339

>  <r_i_glide_hbond>  (332) 
-0.16

>  <r_i_glide_metal>  (332) 
-0

>  <r_i_glide_rewards>  (332) 
-2.31251

>  <r_i_glide_evdw>  (332) 
-18.7445

>  <r_i_glide_ecoul>  (332) 
-3.09467

>  <r_i_glide_erotb>  (332) 
0

>  <r_i_glide_esite>  (332) 
-0.110645

>  <r_i_glide_emodel>  (332) 
-28.5413

>  <r_i_glide_energy>  (332) 
-21.8392

>  <r_i_glide_einternal>  (332) 
0

>  <r_i_glide_intrahb_reward>  (332) 
-0

>  <i_i_glide_confnum>  (332) 
2

>  <i_i_glide_posenum>  (332) 
10

>  <r_i_glide_eff_state_penalty>  (332) 
0

>  <ligand_id>  (332) 
85

>  <original_smiles>  (332) 
Cc1nn2cnnc2c2ncccc12

>  <smiles>  (332) 
[H]c1nc2c(c(C([H])([H])[H])nn3c([H])nnc23)c([H])c1[H]

$$$$
85:0:1
     RDKit          3D

 21 23  0  0  1  0  0  0  0  0999 V2000
    0.8193    1.4747    2.0789 C   0  0  0  0  0  0  0  0  0  0  0  0
    0.2675    0.6814    3.2604 C   0  0  0  0  0  0  0  0  0  0  0  0
    0.6658   -0.6114    3.2516 N   0  0  0  0  0  0  0  0  0  0  0  0
    0.1979   -1.3290    4.2685 N   0  0  0  0  0  0  0  0  0  0  0  0
    0.4771   -2.6467    4.4352 C   0  0  0  0  0  0  0  0  0  0  0  0
   -0.1552   -3.0875    5.5278 N   0  0  0  0  0  0  0  0  0  0  0  0
   -0.8594   -2.0184    6.0786 N   0  0  0  0  0  0  0  0  0  0  0  0
   -0.6273   -0.9459    5.3127 C   0  0  0  0  0  0  0  0  0  0  0  0
   -1.0346    0.4110    5.3500 C   0  0  0  0  0  0  0  0  0  0  0  0
   -1.8178    0.8611    6.3580 N   0  0  0  0  0  0  0  0  0  0  0  0
   -2.1811    2.1566    6.3462 C   0  0  0  0  0  0  0  0  0  0  0  0
   -1.7892    3.0584    5.3396 C   0  0  0  0  0  0  0  0  0  0  0  0
   -0.9717    2.5939    4.2910 C   0  0  0  0  0  0  0  0  0  0  0  0
   -0.5684    1.2368    4.2772 C   0  0  0  0  0  0  0  0  0  0  0  0
    0.5343    2.5196    2.0788 H   0  0  0  0  0  0  0  0  0  0  0  0
    0.4795    1.0539    1.1302 H   0  0  0  0  0  0  0  0  0  0  0  0
    1.9111    1.4620    2.0744 H   0  0  0  0  0  0  0  0  0  0  0  0
    1.0806   -3.2511    3.7758 H   0  0  0  0  0  0  0  0  0  0  0  0
   -2.8144    2.4706    7.1617 H   0  0  0  0  0  0  0  0  0  0  0  0
   -2.1103    4.0884    5.3741 H   0  0  0  0  0  0  0  0  0  0  0  0
   -0.6719    3.2944    3.5253 H   0  0  0  0  0  0  0  0  0  0  0  0
  1  2  1  0
  1 15  1  0
  1 16  1  0
  1 17  1  0
  2 14  1  0
  2  3  2  0
  3  4  1  0
  4  8  1  0
  4  5  1  0
  5  6  2  0
  5 18  1  0
  6  7  1  0
  7  8  2  0
  8  9  1  0
  9 14  2  0
  9 10  1  0
 10 11  2  0
 11 12  1  0
 11 19  1  0
 12 13  2  0
 12 20  1  0
 13 14  1  0
 13 21  1  0
M  END
>  <i_m_ct_stereo_status>  (333) 
1

>  <s_m_source_file>  (333) 
/var/tmp/pbs.5076255.sched01/tmp6w_bron9/120d4r_aq7a.sdf

>  <i_m_source_file_index>  (333) 
8

>  <i_lp_mmshare_version>  (333) 
48012

>  <i_f3d_flags>  (333) 
0

>  <s_epik_input>  (333) 
bjFbY0hdW2NIXVtjSF1jKGMobjIpW0NIM10pYzFjKG4yMylubltjSF0z

>  <s_epik_cmdline>  (333) 
J2VwaWtfcHl0aG9uJywgJy1waHQnLCAnMi4wJywgJy1waCcsICc3LjAnLCAnLXRuJywgJzgnLCAnLW1hJywgJzIwMCcsICctaW1hZScsICc8aW5maWxlLm1hZT4nLCAnLW9tYWUnLCAnPG91dGZpbGUubWFlPic=

>  <r_lp_tautomer_probability>  (333) 
1

>  <r_epik_Ionization_Penalty>  (333) 
5.33377e-09

>  <r_epik_Ionization_Penalty_Charging>  (333) 
0

>  <r_epik_Ionization_Penalty_Neutral>  (333) 
5.33377e-09

>  <r_epik_State_Penalty>  (333) 
-0

>  <r_epik_Charging_Adjusted_Penalty>  (333) 
0

>  <i_epik_Tot_Q>  (333) 
0

>  <i_epik_Tot_abs_Q>  (333) 
0

>  <s_lp_Force_Field>  (333) 
OPLS3e

>  <r_lp_Energy>  (333) 
24.0138

>  <b_lp_Chiralities_Consistent>  (333) 
1

>  <s_lp_Variant>  (333) 
85:0-1

>  <s_i_glide_gridfile>  (333) 
pfpi4k_grid

>  <i_i_glide_lignum>  (333) 
8

>  <i_i_glide_rotatable_bonds>  (333) 
0

>  <r_i_docking_score>  (333) 
-3.89156

>  <r_i_glide_ligand_efficiency>  (333) 
-0.277969

>  <r_i_glide_ligand_efficiency_sa>  (333) 
-0.669944

>  <r_i_glide_ligand_efficiency_ln>  (333) 
-1.06939

>  <r_i_glide_gscore>  (333) 
-3.89156

>  <r_i_glide_lipo>  (333) 
-0.0262122

>  <r_i_glide_hbond>  (333) 
-0.0862304

>  <r_i_glide_metal>  (333) 
-0

>  <r_i_glide_rewards>  (333) 
-2.20583

>  <r_i_glide_evdw>  (333) 
-16.2409

>  <r_i_glide_ecoul>  (333) 
-4.40976

>  <r_i_glide_erotb>  (333) 
0

>  <r_i_glide_esite>  (333) 
-0.0997793

>  <r_i_glide_emodel>  (333) 
-27.1297

>  <r_i_glide_energy>  (333) 
-20.6507

>  <r_i_glide_einternal>  (333) 
0

>  <r_i_glide_intrahb_reward>  (333) 
-0

>  <i_i_glide_confnum>  (333) 
2

>  <i_i_glide_posenum>  (333) 
11

>  <r_i_glide_eff_state_penalty>  (333) 
0

>  <ligand_id>  (333) 
85

>  <original_smiles>  (333) 
Cc1nn2cnnc2c2ncccc12

>  <smiles>  (333) 
[H]c1nc2c(c(C([H])([H])[H])nn3c([H])nnc23)c([H])c1[H]

$$$$
85:0:2
     RDKit          3D

 21 23  0  0  1  0  0  0  0  0999 V2000
    0.6597    1.4940    1.5664 C   0  0  0  0  0  0  0  0  0  0  0  0
    0.1199    1.0580    2.9223 C   0  0  0  0  0  0  0  0  0  0  0  0
   -0.6291    2.0139    3.5161 N   0  0  0  0  0  0  0  0  0  0  0  0
   -1.1121    1.6629    4.7022 N   0  0  0  0  0  0  0  0  0  0  0  0
   -1.8657    2.4907    5.4655 C   0  0  0  0  0  0  0  0  0  0  0  0
   -2.1896    1.8568    6.5967 N   0  0  0  0  0  0  0  0  0  0  0  0
   -1.6484    0.5745    6.5444 N   0  0  0  0  0  0  0  0  0  0  0  0
   -0.9700    0.4713    5.3958 C   0  0  0  0  0  0  0  0  0  0  0  0
   -0.1915   -0.5414    4.7837 C   0  0  0  0  0  0  0  0  0  0  0  0
   -0.0134   -1.7336    5.3947 N   0  0  0  0  0  0  0  0  0  0  0  0
    0.7460   -2.6587    4.7832 C   0  0  0  0  0  0  0  0  0  0  0  0
    1.3472   -2.4516    3.5283 C   0  0  0  0  0  0  0  0  0  0  0  0
    1.1571   -1.2151    2.8818 C   0  0  0  0  0  0  0  0  0  0  0  0
    0.3717   -0.2184    3.5080 C   0  0  0  0  0  0  0  0  0  0  0  0
    1.2501    0.7468    1.0476 H   0  0  0  0  0  0  0  0  0  0  0  0
    1.2915    2.3788    1.6713 H   0  0  0  0  0  0  0  0  0  0  0  0
   -0.1638    1.7440    0.8942 H   0  0  0  0  0  0  0  0  0  0  0  0
   -2.1640    3.4939    5.2013 H   0  0  0  0  0  0  0  0  0  0  0  0
    0.8629   -3.5900    5.3161 H   0  0  0  0  0  0  0  0  0  0  0  0
    1.9334   -3.2338    3.0666 H   0  0  0  0  0  0  0  0  0  0  0  0
    1.6052   -1.0721    1.9088 H   0  0  0  0  0  0  0  0  0  0  0  0
  1  2  1  0
  1 15  1  0
  1 16  1  0
  1 17  1  0
  2 14  1  0
  2  3  2  0
  3  4  1  0
  4  8  1  0
  4  5  1  0
  5  6  2  0
  5 18  1  0
  6  7  1  0
  7  8  2  0
  8  9  1  0
  9 14  2  0
  9 10  1  0
 10 11  2  0
 11 12  1  0
 11 19  1  0
 12 13  2  0
 12 20  1  0
 13 14  1  0
 13 21  1  0
M  END
>  <i_m_ct_stereo_status>  (334) 
1

>  <s_m_source_file>  (334) 
/var/tmp/pbs.5076255.sched01/tmp6w_bron9/120d4r_aq7a.sdf

>  <i_m_source_file_index>  (334) 
8

>  <i_lp_mmshare_version>  (334) 
48012

>  <i_f3d_flags>  (334) 
0

>  <s_epik_input>  (334) 
bjFbY0hdW2NIXVtjSF1jKGMobjIpW0NIM10pYzFjKG4yMylubltjSF0z

>  <s_epik_cmdline>  (334) 
J2VwaWtfcHl0aG9uJywgJy1waHQnLCAnMi4wJywgJy1waCcsICc3LjAnLCAnLXRuJywgJzgnLCAnLW1hJywgJzIwMCcsICctaW1hZScsICc8aW5maWxlLm1hZT4nLCAnLW9tYWUnLCAnPG91dGZpbGUubWFlPic=

>  <r_lp_tautomer_probability>  (334) 
1

>  <r_epik_Ionization_Penalty>  (334) 
5.33377e-09

>  <r_epik_Ionization_Penalty_Charging>  (334) 
0

>  <r_epik_Ionization_Penalty_Neutral>  (334) 
5.33377e-09

>  <r_epik_State_Penalty>  (334) 
-0

>  <r_epik_Charging_Adjusted_Penalty>  (334) 
0

>  <i_epik_Tot_Q>  (334) 
0

>  <i_epik_Tot_abs_Q>  (334) 
0

>  <s_lp_Force_Field>  (334) 
OPLS3e

>  <r_lp_Energy>  (334) 
24.0138

>  <b_lp_Chiralities_Consistent>  (334) 
1

>  <s_lp_Variant>  (334) 
85:0-1

>  <s_i_glide_gridfile>  (334) 
pfpi4k_grid

>  <i_i_glide_lignum>  (334) 
8

>  <i_i_glide_rotatable_bonds>  (334) 
0

>  <r_i_docking_score>  (334) 
-3.87524

>  <r_i_glide_ligand_efficiency>  (334) 
-0.276803

>  <r_i_glide_ligand_efficiency_sa>  (334) 
-0.667134

>  <r_i_glide_ligand_efficiency_ln>  (334) 
-1.0649

>  <r_i_glide_gscore>  (334) 
-3.87524

>  <r_i_glide_lipo>  (334) 
-0.0614519

>  <r_i_glide_hbond>  (334) 
0

>  <r_i_glide_metal>  (334) 
-0

>  <r_i_glide_rewards>  (334) 
-2.19816

>  <r_i_glide_evdw>  (334) 
-15.7757

>  <r_i_glide_ecoul>  (334) 
-4.52396

>  <r_i_glide_erotb>  (334) 
0

>  <r_i_glide_esite>  (334) 
-0.148248

>  <r_i_glide_emodel>  (334) 
-26.7629

>  <r_i_glide_energy>  (334) 
-20.2997

>  <r_i_glide_einternal>  (334) 
0

>  <r_i_glide_intrahb_reward>  (334) 
-0

>  <i_i_glide_confnum>  (334) 
2

>  <i_i_glide_posenum>  (334) 
4

>  <r_i_glide_eff_state_penalty>  (334) 
0

>  <ligand_id>  (334) 
85

>  <original_smiles>  (334) 
Cc1nn2cnnc2c2ncccc12

>  <smiles>  (334) 
[H]c1nc2c(c(C([H])([H])[H])nn3c([H])nnc23)c([H])c1[H]

$$$$
86:0:0
     RDKit          3D

 25 26  0  0  1  0  0  0  0  0999 V2000
    4.8737   -4.9314    0.4728 O   0  0  0  0  0  0  0  0  0  0  0  0
    4.7486   -3.7134    0.5348 C   0  0  0  0  0  0  0  0  0  0  0  0
    5.5957   -2.8709    1.1404 O   0  0  0  0  0  0  0  0  0  0  0  0
    5.2007   -1.5039    1.0852 C   0  0  0  0  0  0  0  0  0  0  0  0
    4.0919   -1.5177    0.0211 C   0  0  1  0  0  0  0  0  0  0  0  0
    4.5204   -1.0582   -1.3961 C   0  0  1  0  0  0  0  0  0  0  0  0
    5.8196   -1.5367   -1.6645 O   0  0  0  0  0  0  0  0  0  0  0  0
    3.5038   -1.5188   -2.4787 C   0  0  1  0  0  0  0  0  0  0  0  0
    3.8719   -1.1217   -3.7875 O   0  0  0  0  0  0  0  0  0  0  0  0
    3.1190   -3.0237   -2.3988 C   0  0  1  0  0  0  0  0  0  0  0  0
    4.2281   -3.8445   -2.7415 O   0  0  0  0  0  0  0  0  0  0  0  0
    2.6998   -3.3367   -0.9418 C   0  0  1  0  0  0  0  0  0  0  0  0
    2.1892   -4.6408   -0.7177 O   0  0  0  0  0  0  0  0  0  0  0  0
    3.7646   -2.9212   -0.0328 N   0  0  0  0  0  0  0  0  0  0  0  0
    4.7942   -1.2460    2.0635 H   0  0  0  0  0  0  0  0  0  0  0  0
    6.0160   -0.8068    0.8632 H   0  0  0  0  0  0  0  0  0  0  0  0
    3.2285   -0.9378    0.3583 H   0  0  0  0  0  0  0  0  0  0  0  0
    4.5900    0.0305   -1.4080 H   0  0  0  0  0  0  0  0  0  0  0  0
    5.7505   -2.4748   -1.7914 H   0  0  0  0  0  0  0  0  0  0  0  0
    2.5920   -0.9604   -2.2786 H   0  0  0  0  0  0  0  0  0  0  0  0
    3.6938   -0.1997   -3.8612 H   0  0  0  0  0  0  0  0  0  0  0  0
    2.2860   -3.2252   -3.0773 H   0  0  0  0  0  0  0  0  0  0  0  0
    3.9295   -4.7523   -2.7293 H   0  0  0  0  0  0  0  0  0  0  0  0
    1.8523   -2.7079   -0.6921 H   0  0  0  0  0  0  0  0  0  0  0  0
    2.5118   -5.2172   -1.4152 H   0  0  0  0  0  0  0  0  0  0  0  0
  1  2  2  0
  2 14  1  0
  2  3  1  0
  3  4  1  0
  4  5  1  0
  4 15  1  0
  4 16  1  0
  5 14  1  0
  5  6  1  0
  5 17  1  1
  6  7  1  0
  6  8  1  0
  6 18  1  1
  7 19  1  0
  8  9  1  0
  8 10  1  0
  8 20  1  1
  9 21  1  0
 10 11  1  0
 10 12  1  0
 10 22  1  6
 11 23  1  0
 12 13  1  0
 12 14  1  0
 12 24  1  1
 13 25  1  0
M  END
>  <i_m_ct_stereo_status>  (335) 
1

>  <s_m_source_file>  (335) 
/var/tmp/pbs.5076255.sched01/tmp6w_bron9/120d4r_aq7a.sdf

>  <i_m_source_file_index>  (335) 
9

>  <i_lp_mmshare_version>  (335) 
48012

>  <i_f3d_flags>  (335) 
0

>  <s_epik_input>  (335) 
W0NIMl0xT0MoPU8pTihbQ0BASF0xMilbQ0BIXShbT0hdKVtDQEhdKFtPSF0pW0NASF0oW09IXSlbQ0BASF0yW09IXQ==

>  <s_epik_cmdline>  (335) 
J2VwaWtfcHl0aG9uJywgJy1waHQnLCAnMi4wJywgJy1waCcsICc3LjAnLCAnLXRuJywgJzgnLCAnLW1hJywgJzIwMCcsICctaW1hZScsICc8aW5maWxlLm1hZT4nLCAnLW9tYWUnLCAnPG91dGZpbGUubWFlPic=

>  <r_lp_tautomer_probability>  (335) 
1

>  <r_epik_Ionization_Penalty>  (335) 
2.43982e-05

>  <r_epik_Ionization_Penalty_Charging>  (335) 
0

>  <r_epik_Ionization_Penalty_Neutral>  (335) 
2.43982e-05

>  <r_epik_State_Penalty>  (335) 
-0

>  <r_epik_Charging_Adjusted_Penalty>  (335) 
0

>  <i_epik_Tot_Q>  (335) 
0

>  <i_epik_Tot_abs_Q>  (335) 
0

>  <s_epik_Chemistry_Notes>  (335) 
This compound has an ester and may undergo hydrolysis at high or low pH. This compound contains an acetal/aminal-like group ( X-CH(R)-Y where X, Y are N, S, or O) that may be acid/base labile, releasing an aldehyde.

>  <s_lp_Force_Field>  (335) 
OPLS3e

>  <r_lp_Energy>  (335) 
3.08553

>  <b_lp_Chiralities_Consistent>  (335) 
1

>  <s_lp_Variant>  (335) 
86:0-1

>  <s_i_glide_gridfile>  (335) 
pfpi4k_grid

>  <i_i_glide_lignum>  (335) 
9

>  <i_i_glide_rotatable_bonds>  (335) 
4

>  <r_i_docking_score>  (335) 
-5.95116

>  <r_i_glide_ligand_efficiency>  (335) 
-0.425083

>  <r_i_glide_ligand_efficiency_sa>  (335) 
-1.02451

>  <r_i_glide_ligand_efficiency_ln>  (335) 
-1.63536

>  <r_i_glide_gscore>  (335) 
-5.95116

>  <r_i_glide_lipo>  (335) 
-0.0832295

>  <r_i_glide_hbond>  (335) 
0

>  <r_i_glide_metal>  (335) 
-0

>  <r_i_glide_rewards>  (335) 
-2.56689

>  <r_i_glide_evdw>  (335) 
-13.8388

>  <r_i_glide_ecoul>  (335) 
-17.3323

>  <r_i_glide_erotb>  (335) 
0

>  <r_i_glide_esite>  (335) 
-0.00926571

>  <r_i_glide_emodel>  (335) 
-48.3547

>  <r_i_glide_energy>  (335) 
-31.171

>  <r_i_glide_einternal>  (335) 
1.21341

>  <r_i_glide_intrahb_reward>  (335) 
-0.5

>  <i_i_glide_confnum>  (335) 
2

>  <i_i_glide_posenum>  (335) 
10

>  <r_i_glide_eff_state_penalty>  (335) 
0

>  <ligand_id>  (335) 
86

>  <original_smiles>  (335) 
O=C1OCC2C(O)C(O)C(O)C(O)N12

>  <smiles>  (335) 
[H]OC1([H])N2C(=O)OC([H])([H])C2([H])C([H])(O[H])C([H])(O[H])C1([H])O[H]

$$$$
86:0:1
     RDKit          3D

 25 26  0  0  1  0  0  0  0  0999 V2000
    4.9194   -4.8985    0.4548 O   0  0  0  0  0  0  0  0  0  0  0  0
    4.7805   -3.6775    0.5022 C   0  0  0  0  0  0  0  0  0  0  0  0
    5.6259   -2.8275    1.0919 O   0  0  0  0  0  0  0  0  0  0  0  0
    5.2187   -1.4603    1.0236 C   0  0  0  0  0  0  0  0  0  0  0  0
    4.1012   -1.5041   -0.0362 C   0  0  1  0  0  0  0  0  0  0  0  0
    4.5118   -1.0549   -1.4592 C   0  0  1  0  0  0  0  0  0  0  0  0
    5.8053   -1.5390   -1.7453 O   0  0  0  0  0  0  0  0  0  0  0  0
    3.4851   -1.5355   -2.5204 C   0  0  1  0  0  0  0  0  0  0  0  0
    3.8357   -1.1645   -3.8443 O   0  0  0  0  0  0  0  0  0  0  0  0
    3.1066   -3.0423   -2.4150 C   0  0  1  0  0  0  0  0  0  0  0  0
    4.2139   -3.8542   -2.7747 O   0  0  0  0  0  0  0  0  0  0  0  0
    2.7098   -3.3361   -0.9475 C   0  0  1  0  0  0  0  0  0  0  0  0
    2.2081   -4.6348   -0.6979 O   0  0  0  0  0  0  0  0  0  0  0  0
    3.7913   -2.9060   -0.0690 N   0  0  0  0  0  0  0  0  0  0  0  0
    4.8062   -1.1781    1.9924 H   0  0  0  0  0  0  0  0  0  0  0  0
    6.0253   -0.7615    0.7781 H   0  0  0  0  0  0  0  0  0  0  0  0
    3.2276   -0.9345    0.2938 H   0  0  0  0  0  0  0  0  0  0  0  0
    4.5631    0.0330   -1.4963 H   0  0  0  0  0  0  0  0  0  0  0  0
    5.7259   -2.4694   -1.9248 H   0  0  0  0  0  0  0  0  0  0  0  0
    2.5729   -0.9688   -2.3225 H   0  0  0  0  0  0  0  0  0  0  0  0
    3.0478   -1.1631   -4.3679 H   0  0  0  0  0  0  0  0  0  0  0  0
    2.2680   -3.2675   -3.0837 H   0  0  0  0  0  0  0  0  0  0  0  0
    3.9393   -4.7668   -2.7324 H   0  0  0  0  0  0  0  0  0  0  0  0
    1.8633   -2.6968   -0.7188 H   0  0  0  0  0  0  0  0  0  0  0  0
    2.5442   -5.2335   -1.3627 H   0  0  0  0  0  0  0  0  0  0  0  0
  1  2  2  0
  2 14  1  0
  2  3  1  0
  3  4  1  0
  4  5  1  0
  4 15  1  0
  4 16  1  0
  5 14  1  0
  5  6  1  0
  5 17  1  1
  6  7  1  0
  6  8  1  0
  6 18  1  1
  7 19  1  0
  8  9  1  0
  8 10  1  0
  8 20  1  1
  9 21  1  0
 10 11  1  0
 10 12  1  0
 10 22  1  6
 11 23  1  0
 12 13  1  0
 12 14  1  0
 12 24  1  1
 13 25  1  0
M  END
>  <i_m_ct_stereo_status>  (336) 
1

>  <s_m_source_file>  (336) 
/var/tmp/pbs.5076255.sched01/tmp6w_bron9/120d4r_aq7a.sdf

>  <i_m_source_file_index>  (336) 
9

>  <i_lp_mmshare_version>  (336) 
48012

>  <i_f3d_flags>  (336) 
0

>  <s_epik_input>  (336) 
W0NIMl0xT0MoPU8pTihbQ0BASF0xMilbQ0BIXShbT0hdKVtDQEhdKFtPSF0pW0NASF0oW09IXSlbQ0BASF0yW09IXQ==

>  <s_epik_cmdline>  (336) 
J2VwaWtfcHl0aG9uJywgJy1waHQnLCAnMi4wJywgJy1waCcsICc3LjAnLCAnLXRuJywgJzgnLCAnLW1hJywgJzIwMCcsICctaW1hZScsICc8aW5maWxlLm1hZT4nLCAnLW9tYWUnLCAnPG91dGZpbGUubWFlPic=

>  <r_lp_tautomer_probability>  (336) 
1

>  <r_epik_Ionization_Penalty>  (336) 
2.43982e-05

>  <r_epik_Ionization_Penalty_Charging>  (336) 
0

>  <r_epik_Ionization_Penalty_Neutral>  (336) 
2.43982e-05

>  <r_epik_State_Penalty>  (336) 
-0

>  <r_epik_Charging_Adjusted_Penalty>  (336) 
0

>  <i_epik_Tot_Q>  (336) 
0

>  <i_epik_Tot_abs_Q>  (336) 
0

>  <s_epik_Chemistry_Notes>  (336) 
This compound has an ester and may undergo hydrolysis at high or low pH. This compound contains an acetal/aminal-like group ( X-CH(R)-Y where X, Y are N, S, or O) that may be acid/base labile, releasing an aldehyde.

>  <s_lp_Force_Field>  (336) 
OPLS3e

>  <r_lp_Energy>  (336) 
3.08553

>  <b_lp_Chiralities_Consistent>  (336) 
1

>  <s_lp_Variant>  (336) 
86:0-1

>  <s_i_glide_gridfile>  (336) 
pfpi4k_grid

>  <i_i_glide_lignum>  (336) 
9

>  <i_i_glide_rotatable_bonds>  (336) 
4

>  <r_i_docking_score>  (336) 
-5.93511

>  <r_i_glide_ligand_efficiency>  (336) 
-0.423937

>  <r_i_glide_ligand_efficiency_sa>  (336) 
-1.02175

>  <r_i_glide_ligand_efficiency_ln>  (336) 
-1.63095

>  <r_i_glide_gscore>  (336) 
-5.93511

>  <r_i_glide_lipo>  (336) 
-0.0853789

>  <r_i_glide_hbond>  (336) 
0

>  <r_i_glide_metal>  (336) 
-0

>  <r_i_glide_rewards>  (336) 
-2.57134

>  <r_i_glide_evdw>  (336) 
-13.985

>  <r_i_glide_ecoul>  (336) 
-17.1333

>  <r_i_glide_erotb>  (336) 
0

>  <r_i_glide_esite>  (336) 
-0.0091412

>  <r_i_glide_emodel>  (336) 
-48.2677

>  <r_i_glide_energy>  (336) 
-31.1183

>  <r_i_glide_einternal>  (336) 
1.10474

>  <r_i_glide_intrahb_reward>  (336) 
-0.5

>  <i_i_glide_confnum>  (336) 
2

>  <i_i_glide_posenum>  (336) 
11

>  <r_i_glide_eff_state_penalty>  (336) 
0

>  <ligand_id>  (336) 
86

>  <original_smiles>  (336) 
O=C1OCC2C(O)C(O)C(O)C(O)N12

>  <smiles>  (336) 
[H]OC1([H])N2C(=O)OC([H])([H])C2([H])C([H])(O[H])C([H])(O[H])C1([H])O[H]

$$$$
86:0:2
     RDKit          3D

 25 26  0  0  1  0  0  0  0  0999 V2000
    6.9915   -2.2952   -1.7360 O   0  0  0  0  0  0  0  0  0  0  0  0
    5.7847   -2.4079   -1.9592 C   0  0  0  0  0  0  0  0  0  0  0  0
    5.2397   -3.1461   -2.9383 O   0  0  0  0  0  0  0  0  0  0  0  0
    3.8176   -3.0454   -3.0148 C   0  0  0  0  0  0  0  0  0  0  0  0
    3.4641   -2.3832   -1.6772 C   0  0  1  0  0  0  0  0  0  0  0  0
    2.9678   -3.3306   -0.5504 C   0  0  1  0  0  0  0  0  0  0  0  0
    3.7215   -4.5353   -0.5477 O   0  0  0  0  0  0  0  0  0  0  0  0
    3.0742   -2.6413    0.8457 C   0  0  1  0  0  0  0  0  0  0  0  0
    2.6532   -3.4817    1.9036 O   0  0  0  0  0  0  0  0  0  0  0  0
    4.4495   -1.9713    1.1372 C   0  0  1  0  0  0  0  0  0  0  0  0
    5.4893   -2.9222    1.2947 O   0  0  0  0  0  0  0  0  0  0  0  0
    4.7707   -1.0391   -0.0503 C   0  0  1  0  0  0  0  0  0  0  0  0
    5.9527   -0.2773    0.1386 O   0  0  0  0  0  0  0  0  0  0  0  0
    4.7316   -1.8342   -1.2746 N   0  0  0  0  0  0  0  0  0  0  0  0
    3.5593   -2.3895   -3.8462 H   0  0  0  0  0  0  0  0  0  0  0  0
    3.3120   -3.9983   -3.1797 H   0  0  0  0  0  0  0  0  0  0  0  0
    2.7440   -1.5836   -1.8388 H   0  0  0  0  0  0  0  0  0  0  0  0
    1.9215   -3.5977   -0.7444 H   0  0  0  0  0  0  0  0  0  0  0  0
    3.4649   -5.0555   -1.3049 H   0  0  0  0  0  0  0  0  0  0  0  0
    2.3481   -1.8284    0.8363 H   0  0  0  0  0  0  0  0  0  0  0  0
    1.7127   -3.5459    1.8732 H   0  0  0  0  0  0  0  0  0  0  0  0
    4.3817   -1.3935    2.0601 H   0  0  0  0  0  0  0  0  0  0  0  0
    5.4412   -3.5262    0.5674 H   0  0  0  0  0  0  0  0  0  0  0  0
    3.9681   -0.3071   -0.1116 H   0  0  0  0  0  0  0  0  0  0  0  0
    5.7694    0.6389   -0.0698 H   0  0  0  0  0  0  0  0  0  0  0  0
  1  2  2  0
  2 14  1  0
  2  3  1  0
  3  4  1  0
  4  5  1  0
  4 15  1  0
  4 16  1  0
  5 14  1  0
  5  6  1  0
  5 17  1  6
  6  7  1  0
  6  8  1  0
  6 18  1  6
  7 19  1  0
  8  9  1  0
  8 10  1  0
  8 20  1  6
  9 21  1  0
 10 11  1  0
 10 12  1  0
 10 22  1  1
 11 23  1  0
 12 13  1  0
 12 14  1  0
 12 24  1  6
 13 25  1  0
M  END
>  <i_m_ct_stereo_status>  (337) 
1

>  <s_m_source_file>  (337) 
/var/tmp/pbs.5076255.sched01/tmp6w_bron9/120d4r_aq7a.sdf

>  <i_m_source_file_index>  (337) 
9

>  <i_lp_mmshare_version>  (337) 
48012

>  <i_f3d_flags>  (337) 
0

>  <s_epik_input>  (337) 
W0NIMl0xT0MoPU8pTihbQ0BASF0xMilbQ0BIXShbT0hdKVtDQEhdKFtPSF0pW0NASF0oW09IXSlbQ0BASF0yW09IXQ==

>  <s_epik_cmdline>  (337) 
J2VwaWtfcHl0aG9uJywgJy1waHQnLCAnMi4wJywgJy1waCcsICc3LjAnLCAnLXRuJywgJzgnLCAnLW1hJywgJzIwMCcsICctaW1hZScsICc8aW5maWxlLm1hZT4nLCAnLW9tYWUnLCAnPG91dGZpbGUubWFlPic=

>  <r_lp_tautomer_probability>  (337) 
1

>  <r_epik_Ionization_Penalty>  (337) 
2.43982e-05

>  <r_epik_Ionization_Penalty_Charging>  (337) 
0

>  <r_epik_Ionization_Penalty_Neutral>  (337) 
2.43982e-05

>  <r_epik_State_Penalty>  (337) 
-0

>  <r_epik_Charging_Adjusted_Penalty>  (337) 
0

>  <i_epik_Tot_Q>  (337) 
0

>  <i_epik_Tot_abs_Q>  (337) 
0

>  <s_epik_Chemistry_Notes>  (337) 
This compound has an ester and may undergo hydrolysis at high or low pH. This compound contains an acetal/aminal-like group ( X-CH(R)-Y where X, Y are N, S, or O) that may be acid/base labile, releasing an aldehyde.

>  <s_lp_Force_Field>  (337) 
OPLS3e

>  <r_lp_Energy>  (337) 
3.08553

>  <b_lp_Chiralities_Consistent>  (337) 
1

>  <s_lp_Variant>  (337) 
86:0-1

>  <s_i_glide_gridfile>  (337) 
pfpi4k_grid

>  <i_i_glide_lignum>  (337) 
9

>  <i_i_glide_rotatable_bonds>  (337) 
4

>  <r_i_docking_score>  (337) 
-5.59139

>  <r_i_glide_ligand_efficiency>  (337) 
-0.399385

>  <r_i_glide_ligand_efficiency_sa>  (337) 
-0.962575

>  <r_i_glide_ligand_efficiency_ln>  (337) 
-1.53649

>  <r_i_glide_gscore>  (337) 
-5.59139

>  <r_i_glide_lipo>  (337) 
-0.0659752

>  <r_i_glide_hbond>  (337) 
-0.152

>  <r_i_glide_metal>  (337) 
-0

>  <r_i_glide_rewards>  (337) 
-2.51024

>  <r_i_glide_evdw>  (337) 
-15.7447

>  <r_i_glide_ecoul>  (337) 
-13.451

>  <r_i_glide_erotb>  (337) 
0

>  <r_i_glide_esite>  (337) 
-0.0582947

>  <r_i_glide_emodel>  (337) 
-45.2524

>  <r_i_glide_energy>  (337) 
-29.1957

>  <r_i_glide_einternal>  (337) 
1.71248

>  <r_i_glide_intrahb_reward>  (337) 
-0.5

>  <i_i_glide_confnum>  (337) 
2

>  <i_i_glide_posenum>  (337) 
38

>  <r_i_glide_eff_state_penalty>  (337) 
0

>  <ligand_id>  (337) 
86

>  <original_smiles>  (337) 
O=C1OCC2C(O)C(O)C(O)C(O)N12

>  <smiles>  (337) 
[H]OC1([H])N2C(=O)OC([H])([H])C2([H])C([H])(O[H])C([H])(O[H])C1([H])O[H]

$$$$
87:0:0
     RDKit          3D

 53 57  0  0  1  0  0  0  0  0999 V2000
    2.1576   -0.2982    1.8078 C   0  0  0  0  0  0  0  0  0  0  0  0
    3.1339   -1.1295    1.1880 O   0  0  0  0  0  0  0  0  0  0  0  0
    3.7476   -2.0333    2.0482 C   0  0  2  0  0  0  0  0  0  0  0  0
    4.9360   -2.8187    1.3778 C   0  0  2  0  0  0  0  0  0  0  0  0
    6.1017   -1.8796    1.0121 C   0  0  2  0  0  0  0  0  0  0  0  0
    5.7214   -0.9562   -0.1643 C   0  0  0  0  0  0  0  0  0  0  0  0
    4.8120   -1.5414   -1.2361 C   0  0  0  0  0  0  0  0  0  0  0  0
    4.5420   -0.7724   -2.3850 C   0  0  0  0  0  0  0  0  0  0  0  0
    3.6772   -1.2465   -3.3856 C   0  0  0  0  0  0  0  0  0  0  0  0
    3.0795   -2.5106   -3.2339 C   0  0  0  0  0  0  0  0  0  0  0  0
    2.2626   -3.0156   -4.1947 O   0  0  0  0  0  0  0  0  0  0  0  0
    3.3333   -3.2759   -2.0815 C   0  0  0  0  0  0  0  0  0  0  0  0
    4.2031   -2.8113   -1.0723 C   0  0  0  0  0  0  0  0  0  0  0  0
    4.5739   -3.6856    0.1334 C   0  0  1  0  0  0  0  0  0  0  0  0
    5.8164   -4.4568   -0.2718 C   0  0  0  0  0  0  0  0  0  0  0  0
    7.0638   -4.0287   -0.0121 C   0  0  0  0  0  0  0  0  0  0  0  0
    7.3627   -2.7479    0.7274 C   0  0  1  0  0  0  0  0  0  0  0  0
    8.3982   -2.0330    0.0766 O   0  0  0  0  0  0  0  0  0  0  0  0
    3.5039   -4.7054    0.5782 C   0  0  0  0  0  0  0  0  0  0  0  0
    2.3020   -3.9865    1.1760 C   0  0  0  0  0  0  0  0  0  0  0  0
    2.6576   -3.1713    2.3651 N   0  0  1  0  0  0  0  0  0  0  0  0
    2.9583   -3.9191    3.6107 C   0  0  0  0  0  0  0  0  0  0  0  0
    1.7529   -4.6532    4.1802 C   0  0  0  0  0  0  0  0  0  0  0  0
    0.8854   -4.0005    5.2339 C   0  0  0  0  0  0  0  0  0  0  0  0
    1.7894   -5.1456    5.6101 C   0  0  0  0  0  0  0  0  0  0  0  0
    1.7432    0.4015    1.0819 H   0  0  0  0  0  0  0  0  0  0  0  0
    2.6005    0.2850    2.6160 H   0  0  0  0  0  0  0  0  0  0  0  0
    1.3238   -0.8706    2.2177 H   0  0  0  0  0  0  0  0  0  0  0  0
    4.0732   -1.5141    2.9541 H   0  0  0  0  0  0  0  0  0  0  0  0
    5.3068   -3.4957    2.1506 H   0  0  0  0  0  0  0  0  0  0  0  0
    6.3587   -1.2460    1.8606 H   0  0  0  0  0  0  0  0  0  0  0  0
    5.1908   -0.0959    0.2384 H   0  0  0  0  0  0  0  0  0  0  0  0
    6.6067   -0.5537   -0.6230 H   0  0  0  0  0  0  0  0  0  0  0  0
    4.9961    0.1991   -2.5027 H   0  0  0  0  0  0  0  0  0  0  0  0
    3.4688   -0.6374   -4.2573 H   0  0  0  0  0  0  0  0  0  0  0  0
    2.0694   -2.4221   -4.9159 H   0  0  0  0  0  0  0  0  0  0  0  0
    2.8577   -4.2392   -1.9965 H   0  0  0  0  0  0  0  0  0  0  0  0
    5.6612   -5.3953   -0.7795 H   0  0  0  0  0  0  0  0  0  0  0  0
    7.9217   -4.6164   -0.2978 H   0  0  0  0  0  0  0  0  0  0  0  0
    7.7476   -3.1255    1.6704 H   0  0  0  0  0  0  0  0  0  0  0  0
    8.8792   -1.5151    0.7054 H   0  0  0  0  0  0  0  0  0  0  0  0
    3.1778   -5.3520   -0.2407 H   0  0  0  0  0  0  0  0  0  0  0  0
    3.9153   -5.3934    1.3225 H   0  0  0  0  0  0  0  0  0  0  0  0
    1.8860   -3.3197    0.4189 H   0  0  0  0  0  0  0  0  0  0  0  0
    1.5332   -4.7096    1.4266 H   0  0  0  0  0  0  0  0  0  0  0  0
    3.7758   -4.6232    3.4618 H   0  0  0  0  0  0  0  0  0  0  0  0
    3.2932   -3.1971    4.3626 H   0  0  0  0  0  0  0  0  0  0  0  0
    1.2619   -5.3482    3.4975 H   0  0  0  0  0  0  0  0  0  0  0  0
    1.1670   -3.0005    5.5647 H   0  0  0  0  0  0  0  0  0  0  0  0
   -0.1839   -4.1969    5.1840 H   0  0  0  0  0  0  0  0  0  0  0  0
    1.3126   -6.0983    5.8290 H   0  0  0  0  0  0  0  0  0  0  0  0
    2.6734   -4.9227    6.2061 H   0  0  0  0  0  0  0  0  0  0  0  0
    1.8031   -2.6876    2.5824 H   0  0  0  0  0  0  0  0  0  0  0  0
  1  2  1  0
  1 26  1  0
  1 27  1  0
  1 28  1  0
  2  3  1  0
  3 21  1  0
  3  4  1  0
  3 29  1  1
  4 14  1  0
  4  5  1  0
  4 30  1  1
  5 17  1  0
  5  6  1  0
  5 31  1  1
  6  7  1  0
  6 32  1  0
  6 33  1  0
  7 13  2  0
  7  8  1  0
  8  9  2  0
  8 34  1  0
  9 10  1  0
  9 35  1  0
 10 11  1  0
 10 12  2  0
 11 36  1  0
 12 13  1  0
 12 37  1  0
 13 14  1  0
 14 15  1  0
 14 19  1  1
 15 16  2  0
 15 38  1  0
 16 17  1  0
 16 39  1  0
 17 18  1  0
 17 40  1  1
 18 41  1  0
 19 20  1  0
 19 42  1  0
 19 43  1  0
 20 21  1  0
 20 44  1  0
 20 45  1  0
 21 22  1  0
 21 53  1  1
 22 23  1  0
 22 46  1  0
 22 47  1  0
 23 25  1  0
 23 24  1  0
 23 48  1  0
 24 25  1  0
 24 49  1  0
 24 50  1  0
 25 51  1  0
 25 52  1  0
M  CHG  1  21   1
M  END
>  <i_m_ct_stereo_status>  (338) 
1

>  <s_m_source_file>  (338) 
/var/tmp/pbs.5076255.sched01/tmp6w_bron9/120d4r_aq7a.sdf

>  <i_m_source_file_index>  (338) 
10

>  <i_lp_mmshare_version>  (338) 
48012

>  <i_f3d_flags>  (338) 
0

>  <s_epik_input>  (338) 
W0NIMl0xW0NIMl1bQ0hdMVtDSDJdTihbQ0gyXVtDSDJdMilbQ0BIXShPW0NIM10pW0NAQEhdKFtDQEBdMjM0KVtDQEBIXShbQ0BIXShbT0hdKVtDSF09W0NIXTQpW0NIMl1jNWMzW2NIXWMoW09IXSlbY0hdW2NIXTU=

>  <s_epik_cmdline>  (338) 
J2VwaWtfcHl0aG9uJywgJy1waHQnLCAnMi4wJywgJy1waCcsICc3LjAnLCAnLXRuJywgJzgnLCAnLW1hJywgJzIwMCcsICctaW1hZScsICc8aW5maWxlLm1hZT4nLCAnLW9tYWUnLCAnPG91dGZpbGUubWFlPic=

>  <r_lp_tautomer_probability>  (338) 
1

>  <r_epik_Ionization_Penalty>  (338) 
0.289796

>  <r_epik_Ionization_Penalty_Charging>  (338) 
0.288915

>  <r_epik_Ionization_Penalty_Neutral>  (338) 
0.000881158

>  <r_epik_State_Penalty>  (338) 
0.281858

>  <r_epik_Charging_Adjusted_Penalty>  (338) 
0.570773

>  <i_epik_Tot_Q>  (338) 
1

>  <i_epik_Tot_abs_Q>  (338) 
1

>  <s_epik_Chemistry_Notes>  (338) 
This compound contains an acetal/aminal-like group ( X-CH(R)-Y where X, Y are N, S, or O) that may be acid/base labile, releasing an aldehyde.

>  <s_lp_Force_Field>  (338) 
OPLS3e

>  <r_lp_Energy>  (338) 
43.9839

>  <b_lp_Chiralities_Consistent>  (338) 
1

>  <s_lp_Variant>  (338) 
87:0-1

>  <s_i_glide_gridfile>  (338) 
pfpi4k_grid

>  <i_i_glide_lignum>  (338) 
10

>  <i_i_glide_rotatable_bonds>  (338) 
5

>  <r_i_docking_score>  (338) 
-3.5417

>  <r_i_glide_ligand_efficiency>  (338) 
-0.141668

>  <r_i_glide_ligand_efficiency_sa>  (338) 
-0.414239

>  <r_i_glide_ligand_efficiency_ln>  (338) 
-0.839488

>  <r_i_glide_gscore>  (338) 
-3.5417

>  <r_i_glide_lipo>  (338) 
-0.706466

>  <r_i_glide_hbond>  (338) 
-0.342941

>  <r_i_glide_metal>  (338) 
-0

>  <r_i_glide_rewards>  (338) 
-1.07419

>  <r_i_glide_evdw>  (338) 
-18.7945

>  <r_i_glide_ecoul>  (338) 
-5.30428

>  <r_i_glide_erotb>  (338) 
0.323393

>  <r_i_glide_esite>  (338) 
-0.0061245

>  <r_i_glide_emodel>  (338) 
-31.3387

>  <r_i_glide_energy>  (338) 
-24.0987

>  <r_i_glide_einternal>  (338) 
0.811787

>  <r_i_glide_intrahb_reward>  (338) 
-0

>  <i_i_glide_confnum>  (338) 
4

>  <i_i_glide_posenum>  (338) 
4

>  <r_i_glide_eff_state_penalty>  (338) 
0

>  <ligand_id>  (338) 
87

>  <original_smiles>  (338) 
COC1C2C3Cc4ccc(O)cc4C2(C=CC3O)CCN1CC1CC1

>  <smiles>  (338) 
[H]Oc1c([H])c([H])c2c(c1[H])C13C([H])=C([H])C([H])(O[H])C([H])(C2([H])[H])C1([H])C([H])(OC([H])([H])[H])[N+]([H])(C([H])([H])C1([H])C([H])([H])C1([H])[H])C([H])([H])C3([H])[H]

$$$$
87:0:1
     RDKit          3D

 53 57  0  0  1  0  0  0  0  0999 V2000
    2.2939   -0.2784    2.1471 C   0  0  0  0  0  0  0  0  0  0  0  0
    3.2333   -1.0952    1.4535 O   0  0  0  0  0  0  0  0  0  0  0  0
    3.8895   -2.0124    2.2612 C   0  0  2  0  0  0  0  0  0  0  0  0
    5.0269   -2.7992    1.5025 C   0  0  2  0  0  0  0  0  0  0  0  0
    6.1797   -1.8611    1.0901 C   0  0  2  0  0  0  0  0  0  0  0  0
    5.7352   -0.9066   -0.0393 C   0  0  0  0  0  0  0  0  0  0  0  0
    4.7635   -1.4637   -1.0696 C   0  0  0  0  0  0  0  0  0  0  0  0
    4.4420   -0.6665   -2.1941 C   0  0  0  0  0  0  0  0  0  0  0  0
    3.5127   -1.1113   -3.1498 C   0  0  0  0  0  0  0  0  0  0  0  0
    2.9219   -2.3751   -2.9919 C   0  0  0  0  0  0  0  0  0  0  0  0
    2.0428   -2.8383   -3.9208 O   0  0  0  0  0  0  0  0  0  0  0  0
    3.2330   -3.1734   -1.8790 C   0  0  0  0  0  0  0  0  0  0  0  0
    4.1525   -2.7298   -0.9024 C   0  0  0  0  0  0  0  0  0  0  0  0
    4.5819   -3.6312    0.2626 C   0  0  1  0  0  0  0  0  0  0  0  0
    5.7933   -4.3994   -0.2462 C   0  0  0  0  0  0  0  0  0  0  0  0
    7.0577   -3.9863   -0.0467 C   0  0  0  0  0  0  0  0  0  0  0  0
    7.4087   -2.7317    0.6981 C   0  0  1  0  0  0  0  0  0  0  0  0
    8.4136   -1.9983    0.0227 O   0  0  0  0  0  0  0  0  0  0  0  0
    3.5270   -4.6484    0.7439 C   0  0  0  0  0  0  0  0  0  0  0  0
    2.3700   -3.9392    1.4361 C   0  0  0  0  0  0  0  0  0  0  0  0
    2.8184   -3.1607    2.6127 N   0  0  1  0  0  0  0  0  0  0  0  0
    3.1787   -3.9351    3.8153 C   0  0  0  0  0  0  0  0  0  0  0  0
    2.0169   -4.7072    4.4231 C   0  0  0  0  0  0  0  0  0  0  0  0
    1.1563   -4.0933    5.5030 C   0  0  0  0  0  0  0  0  0  0  0  0
    2.1052   -5.2097    5.8455 C   0  0  0  0  0  0  0  0  0  0  0  0
    1.8407    0.4372    1.4620 H   0  0  0  0  0  0  0  0  0  0  0  0
    2.7805    0.2830    2.9460 H   0  0  0  0  0  0  0  0  0  0  0  0
    1.4821   -0.8591    2.5886 H   0  0  0  0  0  0  0  0  0  0  0  0
    4.2747   -1.5086    3.1538 H   0  0  0  0  0  0  0  0  0  0  0  0
    5.4383   -3.4930    2.2367 H   0  0  0  0  0  0  0  0  0  0  0  0
    6.4975   -1.2470    1.9349 H   0  0  0  0  0  0  0  0  0  0  0  0
    5.2352   -0.0549    0.4146 H   0  0  0  0  0  0  0  0  0  0  0  0
    6.5982   -0.4851   -0.5196 H   0  0  0  0  0  0  0  0  0  0  0  0
    4.8859    0.3023   -2.3257 H   0  0  0  0  0  0  0  0  0  0  0  0
    3.2525   -0.4757   -3.9857 H   0  0  0  0  0  0  0  0  0  0  0  0
    1.8537   -2.2392   -4.6312 H   0  0  0  0  0  0  0  0  0  0  0  0
    2.7618   -4.1432   -1.8075 H   0  0  0  0  0  0  0  0  0  0  0  0
    5.5939   -5.3288   -0.7549 H   0  0  0  0  0  0  0  0  0  0  0  0
    7.8998   -4.5761   -0.3737 H   0  0  0  0  0  0  0  0  0  0  0  0
    7.8174   -3.1590    1.6048 H   0  0  0  0  0  0  0  0  0  0  0  0
    9.1540   -2.5520   -0.1841 H   0  0  0  0  0  0  0  0  0  0  0  0
    3.1589   -5.2773   -0.0676 H   0  0  0  0  0  0  0  0  0  0  0  0
    3.9852   -5.3497    1.4449 H   0  0  0  0  0  0  0  0  0  0  0  0
    1.8864   -3.2641    0.7349 H   0  0  0  0  0  0  0  0  0  0  0  0
    1.6188   -4.6716    1.7091 H   0  0  0  0  0  0  0  0  0  0  0  0
    3.9933   -4.6281    3.6236 H   0  0  0  0  0  0  0  0  0  0  0  0
    3.5365   -3.2374    4.5722 H   0  0  0  0  0  0  0  0  0  0  0  0
    1.5348   -5.4248    3.7589 H   0  0  0  0  0  0  0  0  0  0  0  0
    1.4114   -3.0870    5.8356 H   0  0  0  0  0  0  0  0  0  0  0  0
    0.0919   -4.3239    5.4767 H   0  0  0  0  0  0  0  0  0  0  0  0
    1.6643   -6.1796    6.0676 H   0  0  0  0  0  0  0  0  0  0  0  0
    2.9962   -4.9652    6.4221 H   0  0  0  0  0  0  0  0  0  0  0  0
    1.9713   -2.6907    2.8957 H   0  0  0  0  0  0  0  0  0  0  0  0
  1  2  1  0
  1 26  1  0
  1 27  1  0
  1 28  1  0
  2  3  1  0
  3 21  1  0
  3  4  1  0
  3 29  1  1
  4 14  1  0
  4  5  1  0
  4 30  1  1
  5 17  1  0
  5  6  1  0
  5 31  1  1
  6  7  1  0
  6 32  1  0
  6 33  1  0
  7 13  2  0
  7  8  1  0
  8  9  2  0
  8 34  1  0
  9 10  1  0
  9 35  1  0
 10 11  1  0
 10 12  2  0
 11 36  1  0
 12 13  1  0
 12 37  1  0
 13 14  1  0
 14 15  1  0
 14 19  1  1
 15 16  2  0
 15 38  1  0
 16 17  1  0
 16 39  1  0
 17 18  1  0
 17 40  1  1
 18 41  1  0
 19 20  1  0
 19 42  1  0
 19 43  1  0
 20 21  1  0
 20 44  1  0
 20 45  1  0
 21 22  1  0
 21 53  1  1
 22 23  1  0
 22 46  1  0
 22 47  1  0
 23 25  1  0
 23 24  1  0
 23 48  1  0
 24 25  1  0
 24 49  1  0
 24 50  1  0
 25 51  1  0
 25 52  1  0
M  CHG  1  21   1
M  END
>  <i_m_ct_stereo_status>  (339) 
1

>  <s_m_source_file>  (339) 
/var/tmp/pbs.5076255.sched01/tmp6w_bron9/120d4r_aq7a.sdf

>  <i_m_source_file_index>  (339) 
10

>  <i_lp_mmshare_version>  (339) 
48012

>  <i_f3d_flags>  (339) 
0

>  <s_epik_input>  (339) 
W0NIMl0xW0NIMl1bQ0hdMVtDSDJdTihbQ0gyXVtDSDJdMilbQ0BIXShPW0NIM10pW0NAQEhdKFtDQEBdMjM0KVtDQEBIXShbQ0BIXShbT0hdKVtDSF09W0NIXTQpW0NIMl1jNWMzW2NIXWMoW09IXSlbY0hdW2NIXTU=

>  <s_epik_cmdline>  (339) 
J2VwaWtfcHl0aG9uJywgJy1waHQnLCAnMi4wJywgJy1waCcsICc3LjAnLCAnLXRuJywgJzgnLCAnLW1hJywgJzIwMCcsICctaW1hZScsICc8aW5maWxlLm1hZT4nLCAnLW9tYWUnLCAnPG91dGZpbGUubWFlPic=

>  <r_lp_tautomer_probability>  (339) 
1

>  <r_epik_Ionization_Penalty>  (339) 
0.289796

>  <r_epik_Ionization_Penalty_Charging>  (339) 
0.288915

>  <r_epik_Ionization_Penalty_Neutral>  (339) 
0.000881158

>  <r_epik_State_Penalty>  (339) 
0.281858

>  <r_epik_Charging_Adjusted_Penalty>  (339) 
0.570773

>  <i_epik_Tot_Q>  (339) 
1

>  <i_epik_Tot_abs_Q>  (339) 
1

>  <s_epik_Chemistry_Notes>  (339) 
This compound contains an acetal/aminal-like group ( X-CH(R)-Y where X, Y are N, S, or O) that may be acid/base labile, releasing an aldehyde.

>  <s_lp_Force_Field>  (339) 
OPLS3e

>  <r_lp_Energy>  (339) 
43.9839

>  <b_lp_Chiralities_Consistent>  (339) 
1

>  <s_lp_Variant>  (339) 
87:0-1

>  <s_i_glide_gridfile>  (339) 
pfpi4k_grid

>  <i_i_glide_lignum>  (339) 
10

>  <i_i_glide_rotatable_bonds>  (339) 
5

>  <r_i_docking_score>  (339) 
-3.25566

>  <r_i_glide_ligand_efficiency>  (339) 
-0.130227

>  <r_i_glide_ligand_efficiency_sa>  (339) 
-0.380785

>  <r_i_glide_ligand_efficiency_ln>  (339) 
-0.77169

>  <r_i_glide_gscore>  (339) 
-3.25566

>  <r_i_glide_lipo>  (339) 
-0.533165

>  <r_i_glide_hbond>  (339) 
-0.306026

>  <r_i_glide_metal>  (339) 
-0

>  <r_i_glide_rewards>  (339) 
-1.07419

>  <r_i_glide_evdw>  (339) 
-20.3432

>  <r_i_glide_ecoul>  (339) 
-4.30899

>  <r_i_glide_erotb>  (339) 
0.323393

>  <r_i_glide_esite>  (339) 
-0.00216385

>  <r_i_glide_emodel>  (339) 
-31.3696

>  <r_i_glide_energy>  (339) 
-24.6522

>  <r_i_glide_einternal>  (339) 
0.713878

>  <r_i_glide_intrahb_reward>  (339) 
-0

>  <i_i_glide_confnum>  (339) 
4

>  <i_i_glide_posenum>  (339) 
11

>  <r_i_glide_eff_state_penalty>  (339) 
0

>  <ligand_id>  (339) 
87

>  <original_smiles>  (339) 
COC1C2C3Cc4ccc(O)cc4C2(C=CC3O)CCN1CC1CC1

>  <smiles>  (339) 
[H]Oc1c([H])c([H])c2c(c1[H])C13C([H])=C([H])C([H])(O[H])C([H])(C2([H])[H])C1([H])C([H])(OC([H])([H])[H])[N+]([H])(C([H])([H])C1([H])C([H])([H])C1([H])[H])C([H])([H])C3([H])[H]

$$$$
87:0:2
     RDKit          3D

 53 57  0  0  1  0  0  0  0  0999 V2000
    2.8012    3.8278    2.8653 C   0  0  0  0  0  0  0  0  0  0  0  0
    2.7656    2.4425    3.2110 O   0  0  0  0  0  0  0  0  0  0  0  0
    1.6784    2.0924    4.0017 C   0  0  2  0  0  0  0  0  0  0  0  0
    1.7117    0.5842    4.4874 C   0  0  2  0  0  0  0  0  0  0  0  0
    2.8949    0.2997    5.4468 C   0  0  2  0  0  0  0  0  0  0  0  0
    4.2491    0.3333    4.6886 C   0  0  0  0  0  0  0  0  0  0  0  0
    4.2314   -0.1745    3.2545 C   0  0  0  0  0  0  0  0  0  0  0  0
    5.4576   -0.2642    2.5688 C   0  0  0  0  0  0  0  0  0  0  0  0
    5.5067   -0.6813    1.2280 C   0  0  0  0  0  0  0  0  0  0  0  0
    4.3185   -1.0256    0.5599 C   0  0  0  0  0  0  0  0  0  0  0  0
    4.3525   -1.4242   -0.7422 O   0  0  0  0  0  0  0  0  0  0  0  0
    3.0935   -0.9593    1.2482 C   0  0  0  0  0  0  0  0  0  0  0  0
    3.0264   -0.5120    2.5884 C   0  0  0  0  0  0  0  0  0  0  0  0
    1.7046   -0.4954    3.3646 C   0  0  1  0  0  0  0  0  0  0  0  0
    1.5963   -1.8699    4.0250 C   0  0  0  0  0  0  0  0  0  0  0  0
    2.0242   -2.1191    5.2772 C   0  0  0  0  0  0  0  0  0  0  0  0
    2.6333   -1.0563    6.1776 C   0  0  1  0  0  0  0  0  0  0  0  0
    3.7824   -1.5568    6.8298 O   0  0  0  0  0  0  0  0  0  0  0  0
    0.4437   -0.2535    2.5103 C   0  0  0  0  0  0  0  0  0  0  0  0
    0.3800    1.1707    1.9528 C   0  0  0  0  0  0  0  0  0  0  0  0
    0.3756    2.1796    3.0405 N   0  0  1  0  0  0  0  0  0  0  0  0
   -0.8794    2.3149    3.8169 C   0  0  0  0  0  0  0  0  0  0  0  0
   -2.0345    2.8483    2.9949 C   0  0  0  0  0  0  0  0  0  0  0  0
   -2.3622    4.3212    3.0165 C   0  0  0  0  0  0  0  0  0  0  0  0
   -3.2778    3.3410    3.6927 C   0  0  0  0  0  0  0  0  0  0  0  0
    3.6806    4.0754    2.2749 H   0  0  0  0  0  0  0  0  0  0  0  0
    2.8338    4.4509    3.7585 H   0  0  0  0  0  0  0  0  0  0  0  0
    1.9435    4.1285    2.2646 H   0  0  0  0  0  0  0  0  0  0  0  0
    1.6096    2.7801    4.8493 H   0  0  0  0  0  0  0  0  0  0  0  0
    0.7987    0.4527    5.0720 H   0  0  0  0  0  0  0  0  0  0  0  0
    2.9321    1.0652    6.2232 H   0  0  0  0  0  0  0  0  0  0  0  0
    4.5541    1.3775    4.6214 H   0  0  0  0  0  0  0  0  0  0  0  0
    5.0523   -0.1464    5.2465 H   0  0  0  0  0  0  0  0  0  0  0  0
    6.3741    0.0056    3.0750 H   0  0  0  0  0  0  0  0  0  0  0  0
    6.4513   -0.7262    0.7088 H   0  0  0  0  0  0  0  0  0  0  0  0
    3.4880   -1.5785   -1.1007 H   0  0  0  0  0  0  0  0  0  0  0  0
    2.2132   -1.2785    0.7191 H   0  0  0  0  0  0  0  0  0  0  0  0
    1.1653   -2.6695    3.4384 H   0  0  0  0  0  0  0  0  0  0  0  0
    1.9274   -3.1093    5.6987 H   0  0  0  0  0  0  0  0  0  0  0  0
    1.8996   -0.8807    6.9649 H   0  0  0  0  0  0  0  0  0  0  0  0
    3.5507   -2.3340    7.3148 H   0  0  0  0  0  0  0  0  0  0  0  0
    0.3782   -0.9586    1.6868 H   0  0  0  0  0  0  0  0  0  0  0  0
   -0.4445   -0.4273    3.1201 H   0  0  0  0  0  0  0  0  0  0  0  0
    1.2348    1.3560    1.3007 H   0  0  0  0  0  0  0  0  0  0  0  0
   -0.4868    1.2897    1.3060 H   0  0  0  0  0  0  0  0  0  0  0  0
   -1.1719    1.3729    4.2780 H   0  0  0  0  0  0  0  0  0  0  0  0
   -0.6957    3.0163    4.6368 H   0  0  0  0  0  0  0  0  0  0  0  0
   -2.2619    2.2851    2.0905 H   0  0  0  0  0  0  0  0  0  0  0  0
   -1.7310    4.9513    3.6350 H   0  0  0  0  0  0  0  0  0  0  0  0
   -2.7099    4.7684    2.0903 H   0  0  0  0  0  0  0  0  0  0  0  0
   -4.2227    3.1465    3.1980 H   0  0  0  0  0  0  0  0  0  0  0  0
   -3.3041    3.3307    4.7812 H   0  0  0  0  0  0  0  0  0  0  0  0
    0.4299    3.0522    2.5253 H   0  0  0  0  0  0  0  0  0  0  0  0
  1  2  1  0
  1 26  1  0
  1 27  1  0
  1 28  1  0
  2  3  1  0
  3 21  1  0
  3  4  1  0
  3 29  1  1
  4 14  1  0
  4  5  1  0
  4 30  1  1
  5 17  1  0
  5  6  1  0
  5 31  1  1
  6  7  1  0
  6 32  1  0
  6 33  1  0
  7 13  2  0
  7  8  1  0
  8  9  2  0
  8 34  1  0
  9 10  1  0
  9 35  1  0
 10 11  1  0
 10 12  2  0
 11 36  1  0
 12 13  1  0
 12 37  1  0
 13 14  1  0
 14 15  1  0
 14 19  1  6
 15 16  2  0
 15 38  1  0
 16 17  1  0
 16 39  1  0
 17 18  1  0
 17 40  1  1
 18 41  1  0
 19 20  1  0
 19 42  1  0
 19 43  1  0
 20 21  1  0
 20 44  1  0
 20 45  1  0
 21 22  1  0
 21 53  1  6
 22 23  1  0
 22 46  1  0
 22 47  1  0
 23 25  1  0
 23 24  1  0
 23 48  1  0
 24 25  1  0
 24 49  1  0
 24 50  1  0
 25 51  1  0
 25 52  1  0
M  CHG  1  21   1
M  END
>  <i_m_ct_stereo_status>  (340) 
1

>  <s_m_source_file>  (340) 
/var/tmp/pbs.5076255.sched01/tmp6w_bron9/120d4r_aq7a.sdf

>  <i_m_source_file_index>  (340) 
10

>  <i_lp_mmshare_version>  (340) 
48012

>  <i_f3d_flags>  (340) 
0

>  <s_epik_input>  (340) 
W0NIMl0xW0NIMl1bQ0hdMVtDSDJdTihbQ0gyXVtDSDJdMilbQ0BIXShPW0NIM10pW0NAQEhdKFtDQEBdMjM0KVtDQEBIXShbQ0BIXShbT0hdKVtDSF09W0NIXTQpW0NIMl1jNWMzW2NIXWMoW09IXSlbY0hdW2NIXTU=

>  <s_epik_cmdline>  (340) 
J2VwaWtfcHl0aG9uJywgJy1waHQnLCAnMi4wJywgJy1waCcsICc3LjAnLCAnLXRuJywgJzgnLCAnLW1hJywgJzIwMCcsICctaW1hZScsICc8aW5maWxlLm1hZT4nLCAnLW9tYWUnLCAnPG91dGZpbGUubWFlPic=

>  <r_lp_tautomer_probability>  (340) 
1

>  <r_epik_Ionization_Penalty>  (340) 
0.289796

>  <r_epik_Ionization_Penalty_Charging>  (340) 
0.288915

>  <r_epik_Ionization_Penalty_Neutral>  (340) 
0.000881158

>  <r_epik_State_Penalty>  (340) 
0.281858

>  <r_epik_Charging_Adjusted_Penalty>  (340) 
0.570773

>  <i_epik_Tot_Q>  (340) 
1

>  <i_epik_Tot_abs_Q>  (340) 
1

>  <s_epik_Chemistry_Notes>  (340) 
This compound contains an acetal/aminal-like group ( X-CH(R)-Y where X, Y are N, S, or O) that may be acid/base labile, releasing an aldehyde.

>  <s_lp_Force_Field>  (340) 
OPLS3e

>  <r_lp_Energy>  (340) 
43.9839

>  <b_lp_Chiralities_Consistent>  (340) 
1

>  <s_lp_Variant>  (340) 
87:0-1

>  <s_i_glide_gridfile>  (340) 
pfpi4k_grid

>  <i_i_glide_lignum>  (340) 
10

>  <i_i_glide_rotatable_bonds>  (340) 
5

>  <r_i_docking_score>  (340) 
-3.02857

>  <r_i_glide_ligand_efficiency>  (340) 
-0.121143

>  <r_i_glide_ligand_efficiency_sa>  (340) 
-0.354223

>  <r_i_glide_ligand_efficiency_ln>  (340) 
-0.717861

>  <r_i_glide_gscore>  (340) 
-3.02857

>  <r_i_glide_lipo>  (340) 
-0.274238

>  <r_i_glide_hbond>  (340) 
-0.110111

>  <r_i_glide_metal>  (340) 
-0

>  <r_i_glide_rewards>  (340) 
-1.07419

>  <r_i_glide_evdw>  (340) 
-20.5332

>  <r_i_glide_ecoul>  (340) 
-5.22447

>  <r_i_glide_erotb>  (340) 
0.323393

>  <r_i_glide_esite>  (340) 
-0.0830908

>  <r_i_glide_emodel>  (340) 
-31.9275

>  <r_i_glide_energy>  (340) 
-25.7577

>  <r_i_glide_einternal>  (340) 
0.718125

>  <r_i_glide_intrahb_reward>  (340) 
-0

>  <i_i_glide_confnum>  (340) 
4

>  <i_i_glide_posenum>  (340) 
1

>  <r_i_glide_eff_state_penalty>  (340) 
0

>  <ligand_id>  (340) 
87

>  <original_smiles>  (340) 
COC1C2C3Cc4ccc(O)cc4C2(C=CC3O)CCN1CC1CC1

>  <smiles>  (340) 
[H]Oc1c([H])c([H])c2c(c1[H])C13C([H])=C([H])C([H])(O[H])C([H])(C2([H])[H])C1([H])C([H])(OC([H])([H])[H])[N+]([H])(C([H])([H])C1([H])C([H])([H])C1([H])[H])C([H])([H])C3([H])[H]

$$$$
87:1:0
     RDKit          3D

 52 56  0  0  1  0  0  0  0  0999 V2000
    3.5473   -5.0622    5.8765 C   0  0  0  0  0  0  0  0  0  0  0  0
    3.8940   -5.9263    4.7948 O   0  0  0  0  0  0  0  0  0  0  0  0
    4.4734   -7.1659    5.0984 C   0  0  2  0  0  0  0  0  0  0  0  0
    5.4004   -7.6066    3.9139 C   0  0  2  0  0  0  0  0  0  0  0  0
    6.5889   -6.6658    3.5760 C   0  0  2  0  0  0  0  0  0  0  0  0
    6.1045   -5.3432    2.9265 C   0  0  0  0  0  0  0  0  0  0  0  0
    4.8587   -5.4282    2.0589 C   0  0  0  0  0  0  0  0  0  0  0  0
    4.4564   -4.2667    1.3703 C   0  0  0  0  0  0  0  0  0  0  0  0
    3.2948   -4.2762    0.5755 C   0  0  0  0  0  0  0  0  0  0  0  0
    2.5189   -5.4459    0.4795 C   0  0  0  0  0  0  0  0  0  0  0  0
    1.4160   -5.4691   -0.3222 O   0  0  0  0  0  0  0  0  0  0  0  0
    2.9126   -6.6050    1.1716 C   0  0  0  0  0  0  0  0  0  0  0  0
    4.0883   -6.6181    1.9616 C   0  0  0  0  0  0  0  0  0  0  0  0
    4.5853   -7.9087    2.6255 C   0  0  1  0  0  0  0  0  0  0  0  0
    5.5326   -8.5556    1.6285 C   0  0  0  0  0  0  0  0  0  0  0  0
    6.8630   -8.3445    1.6367 C   0  0  0  0  0  0  0  0  0  0  0  0
    7.5786   -7.4667    2.6592 C   0  0  1  0  0  0  0  0  0  0  0  0
    8.5527   -6.6483    2.0221 O   0  0  0  0  0  0  0  0  0  0  0  0
    3.4817   -8.9245    3.0183 C   0  0  0  0  0  0  0  0  0  0  0  0
    2.6229   -8.4596    4.2006 C   0  0  0  0  0  0  0  0  0  0  0  0
    3.4652   -8.1854    5.3681 N   0  0  0  0  0  0  0  0  0  0  0  0
    2.6620   -8.0215    6.5771 C   0  0  0  0  0  0  0  0  0  0  0  0
    1.9761   -9.3007    7.0102 C   0  0  0  0  0  0  0  0  0  0  0  0
    0.5356   -9.5483    6.6188 C   0  0  0  0  0  0  0  0  0  0  0  0
    0.8755   -9.2526    8.0533 C   0  0  0  0  0  0  0  0  0  0  0  0
    3.1968   -4.1187    5.4656 H   0  0  0  0  0  0  0  0  0  0  0  0
    4.3949   -4.8592    6.5295 H   0  0  0  0  0  0  0  0  0  0  0  0
    2.7292   -5.4249    6.4872 H   0  0  0  0  0  0  0  0  0  0  0  0
    5.1005   -7.0389    5.9827 H   0  0  0  0  0  0  0  0  0  0  0  0
    5.8337   -8.5503    4.2544 H   0  0  0  0  0  0  0  0  0  0  0  0
    7.1358   -6.4145    4.4862 H   0  0  0  0  0  0  0  0  0  0  0  0
    5.8377   -4.6663    3.7362 H   0  0  0  0  0  0  0  0  0  0  0  0
    6.9015   -4.8372    2.3843 H   0  0  0  0  0  0  0  0  0  0  0  0
    5.0428   -3.3593    1.4488 H   0  0  0  0  0  0  0  0  0  0  0  0
    3.0085   -3.3879    0.0347 H   0  0  0  0  0  0  0  0  0  0  0  0
    1.6078   -5.0372   -1.1511 H   0  0  0  0  0  0  0  0  0  0  0  0
    2.3296   -7.4960    1.0350 H   0  0  0  0  0  0  0  0  0  0  0  0
    5.0788   -9.2133    0.8982 H   0  0  0  0  0  0  0  0  0  0  0  0
    7.4846   -8.8328    0.9075 H   0  0  0  0  0  0  0  0  0  0  0  0
    8.1333   -8.1568    3.2946 H   0  0  0  0  0  0  0  0  0  0  0  0
    9.2711   -7.1950    1.7036 H   0  0  0  0  0  0  0  0  0  0  0  0
    2.8419   -9.1838    2.1805 H   0  0  0  0  0  0  0  0  0  0  0  0
    3.9585   -9.8630    3.3065 H   0  0  0  0  0  0  0  0  0  0  0  0
    2.0574   -7.5618    3.9539 H   0  0  0  0  0  0  0  0  0  0  0  0
    1.9096   -9.2541    4.4154 H   0  0  0  0  0  0  0  0  0  0  0  0
    3.2986   -7.6976    7.3972 H   0  0  0  0  0  0  0  0  0  0  0  0
    1.8858   -7.2746    6.4093 H   0  0  0  0  0  0  0  0  0  0  0  0
    2.6383  -10.1665    7.0781 H   0  0  0  0  0  0  0  0  0  0  0  0
    0.0541   -8.7699    6.0279 H   0  0  0  0  0  0  0  0  0  0  0  0
    0.2731  -10.5717    6.3509 H   0  0  0  0  0  0  0  0  0  0  0  0
    0.7971  -10.0845    8.7534 H   0  0  0  0  0  0  0  0  0  0  0  0
    0.5944   -8.2774    8.4522 H   0  0  0  0  0  0  0  0  0  0  0  0
  1  2  1  0
  1 26  1  0
  1 27  1  0
  1 28  1  0
  2  3  1  0
  3 21  1  0
  3  4  1  0
  3 29  1  1
  4 14  1  0
  4  5  1  0
  4 30  1  1
  5 17  1  0
  5  6  1  0
  5 31  1  1
  6  7  1  0
  6 32  1  0
  6 33  1  0
  7 13  2  0
  7  8  1  0
  8  9  2  0
  8 34  1  0
  9 10  1  0
  9 35  1  0
 10 11  1  0
 10 12  2  0
 11 36  1  0
 12 13  1  0
 12 37  1  0
 13 14  1  0
 14 15  1  0
 14 19  1  1
 15 16  2  0
 15 38  1  0
 16 17  1  0
 16 39  1  0
 17 18  1  0
 17 40  1  1
 18 41  1  0
 19 20  1  0
 19 42  1  0
 19 43  1  0
 20 21  1  0
 20 44  1  0
 20 45  1  0
 21 22  1  0
 22 23  1  0
 22 46  1  0
 22 47  1  0
 23 25  1  0
 23 24  1  0
 23 48  1  0
 24 25  1  0
 24 49  1  0
 24 50  1  0
 25 51  1  0
 25 52  1  0
M  END
>  <i_m_ct_stereo_status>  (341) 
1

>  <s_m_source_file>  (341) 
/var/tmp/pbs.5076255.sched01/tmp6w_bron9/120d4r_aq7a.sdf

>  <i_m_source_file_index>  (341) 
11

>  <i_lp_mmshare_version>  (341) 
48012

>  <i_f3d_flags>  (341) 
0

>  <s_epik_input>  (341) 
W0NIMl0xW0NIMl1bQ0hdMVtDSDJdTihbQ0gyXVtDSDJdMilbQ0BIXShPW0NIM10pW0NAQEhdKFtDQEBdMjM0KVtDQEBIXShbQ0BIXShbT0hdKVtDSF09W0NIXTQpW0NIMl1jNWMzW2NIXWMoW09IXSlbY0hdW2NIXTU=

>  <s_epik_cmdline>  (341) 
J2VwaWtfcHl0aG9uJywgJy1waHQnLCAnMi4wJywgJy1waCcsICc3LjAnLCAnLXRuJywgJzgnLCAnLW1hJywgJzIwMCcsICctaW1hZScsICc8aW5maWxlLm1hZT4nLCAnLW9tYWUnLCAnPG91dGZpbGUubWFlPic=

>  <r_lp_tautomer_probability>  (341) 
1

>  <r_epik_Ionization_Penalty>  (341) 
0.564417

>  <r_epik_Ionization_Penalty_Charging>  (341) 
0

>  <r_epik_Ionization_Penalty_Neutral>  (341) 
0.564417

>  <r_epik_State_Penalty>  (341) 
0.575523

>  <r_epik_Charging_Adjusted_Penalty>  (341) 
0.575523

>  <i_epik_Tot_Q>  (341) 
0

>  <i_epik_Tot_abs_Q>  (341) 
0

>  <s_epik_Chemistry_Notes>  (341) 
This compound contains an acetal/aminal-like group ( X-CH(R)-Y where X, Y are N, S, or O) that may be acid/base labile, releasing an aldehyde.

>  <s_lp_Force_Field>  (341) 
OPLS3e

>  <r_lp_Energy>  (341) 
54.5135

>  <b_lp_Chiralities_Consistent>  (341) 
1

>  <s_lp_Variant>  (341) 
87:0-2

>  <s_i_glide_gridfile>  (341) 
pfpi4k_grid

>  <i_i_glide_lignum>  (341) 
11

>  <i_i_glide_rotatable_bonds>  (341) 
5

>  <r_i_docking_score>  (341) 
-3.40936

>  <r_i_glide_ligand_efficiency>  (341) 
-0.136375

>  <r_i_glide_ligand_efficiency_sa>  (341) 
-0.398762

>  <r_i_glide_ligand_efficiency_ln>  (341) 
-0.808121

>  <r_i_glide_gscore>  (341) 
-3.40936

>  <r_i_glide_lipo>  (341) 
-0.298499

>  <r_i_glide_hbond>  (341) 
-0.465823

>  <r_i_glide_metal>  (341) 
-0

>  <r_i_glide_rewards>  (341) 
-1.08106

>  <r_i_glide_evdw>  (341) 
-15.2651

>  <r_i_glide_ecoul>  (341) 
-7.50539

>  <r_i_glide_erotb>  (341) 
0.325088

>  <r_i_glide_esite>  (341) 
0

>  <r_i_glide_emodel>  (341) 
-26.0811

>  <r_i_glide_energy>  (341) 
-22.7705

>  <r_i_glide_einternal>  (341) 
3.35582

>  <r_i_glide_intrahb_reward>  (341) 
-0

>  <i_i_glide_confnum>  (341) 
1

>  <i_i_glide_posenum>  (341) 
19

>  <r_i_glide_eff_state_penalty>  (341) 
0

>  <ligand_id>  (341) 
87

>  <original_smiles>  (341) 
COC1C2C3Cc4ccc(O)cc4C2(C=CC3O)CCN1CC1CC1

>  <smiles>  (341) 
[H]Oc1c([H])c([H])c2c(c1[H])C13C([H])=C([H])C([H])(O[H])C([H])(C2([H])[H])C1([H])C([H])(OC([H])([H])[H])N(C([H])([H])C1([H])C([H])([H])C1([H])[H])C([H])([H])C3([H])[H]

$$$$
87:1:1
     RDKit          3D

 52 56  0  0  1  0  0  0  0  0999 V2000
    1.6459   -4.6486    4.1950 C   0  0  0  0  0  0  0  0  0  0  0  0
    2.6202   -5.4694    3.5567 O   0  0  0  0  0  0  0  0  0  0  0  0
    2.7257   -6.8027    3.9745 C   0  0  2  0  0  0  0  0  0  0  0  0
    4.1918   -7.3018    3.7348 C   0  0  2  0  0  0  0  0  0  0  0  0
    5.3032   -6.5380    4.4931 C   0  0  2  0  0  0  0  0  0  0  0  0
    5.5074   -5.1106    3.9251 C   0  0  0  0  0  0  0  0  0  0  0  0
    5.2849   -4.9410    2.4309 C   0  0  0  0  0  0  0  0  0  0  0  0
    5.5735   -3.6835    1.8597 C   0  0  0  0  0  0  0  0  0  0  0  0
    5.3537   -3.4555    0.4910 C   0  0  0  0  0  0  0  0  0  0  0  0
    4.8360   -4.4820   -0.3162 C   0  0  0  0  0  0  0  0  0  0  0  0
    4.6143   -4.2481   -1.6433 O   0  0  0  0  0  0  0  0  0  0  0  0
    4.5508   -5.7426    0.2460 C   0  0  0  0  0  0  0  0  0  0  0  0
    4.7662   -5.9882    1.6228 C   0  0  0  0  0  0  0  0  0  0  0  0
    4.5436   -7.3837    2.2244 C   0  0  1  0  0  0  0  0  0  0  0  0
    5.8802   -8.0987    2.0956 C   0  0  0  0  0  0  0  0  0  0  0  0
    6.8022   -8.0991    3.0750 C   0  0  0  0  0  0  0  0  0  0  0  0
    6.6012   -7.4118    4.4225 C   0  0  1  0  0  0  0  0  0  0  0  0
    7.7690   -6.7075    4.8016 O   0  0  0  0  0  0  0  0  0  0  0  0
    3.4367   -8.2392    1.5593 C   0  0  0  0  0  0  0  0  0  0  0  0
    2.0147   -7.7286    1.8449 C   0  0  0  0  0  0  0  0  0  0  0  0
    1.7746   -7.6629    3.2888 N   0  0  0  0  0  0  0  0  0  0  0  0
    0.3594   -7.4615    3.5914 C   0  0  0  0  0  0  0  0  0  0  0  0
   -0.4506   -8.7228    3.3907 C   0  0  0  0  0  0  0  0  0  0  0  0
   -1.1462   -8.9904    2.0787 C   0  0  0  0  0  0  0  0  0  0  0  0
   -1.9653   -8.6289    3.2784 C   0  0  0  0  0  0  0  0  0  0  0  0
    1.7486   -3.6325    3.8230 H   0  0  0  0  0  0  0  0  0  0  0  0
    1.7715   -4.6279    5.2769 H   0  0  0  0  0  0  0  0  0  0  0  0
    0.6245   -4.9368    3.9718 H   0  0  0  0  0  0  0  0  0  0  0  0
    2.5320   -6.8401    5.0502 H   0  0  0  0  0  0  0  0  0  0  0  0
    4.1881   -8.3220    4.1280 H   0  0  0  0  0  0  0  0  0  0  0  0
    5.0463   -6.4486    5.5500 H   0  0  0  0  0  0  0  0  0  0  0  0
    4.7787   -4.4621    4.4075 H   0  0  0  0  0  0  0  0  0  0  0  0
    6.4675   -4.6987    4.2193 H   0  0  0  0  0  0  0  0  0  0  0  0
    5.9638   -2.8869    2.4797 H   0  0  0  0  0  0  0  0  0  0  0  0
    5.5754   -2.4911    0.0605 H   0  0  0  0  0  0  0  0  0  0  0  0
    4.0706   -4.9245   -2.0487 H   0  0  0  0  0  0  0  0  0  0  0  0
    4.1880   -6.5151   -0.4070 H   0  0  0  0  0  0  0  0  0  0  0  0
    6.0564   -8.6240    1.1668 H   0  0  0  0  0  0  0  0  0  0  0  0
    7.7321   -8.6318    2.9499 H   0  0  0  0  0  0  0  0  0  0  0  0
    6.4944   -8.2242    5.1402 H   0  0  0  0  0  0  0  0  0  0  0  0
    7.9790   -6.0919    4.1151 H   0  0  0  0  0  0  0  0  0  0  0  0
    3.5995   -8.3420    0.4916 H   0  0  0  0  0  0  0  0  0  0  0  0
    3.5006   -9.2588    1.9463 H   0  0  0  0  0  0  0  0  0  0  0  0
    1.8578   -6.7398    1.4157 H   0  0  0  0  0  0  0  0  0  0  0  0
    1.3126   -8.4124    1.3718 H   0  0  0  0  0  0  0  0  0  0  0  0
    0.2369   -7.1775    4.6339 H   0  0  0  0  0  0  0  0  0  0  0  0
   -0.0425   -6.6698    2.9620 H   0  0  0  0  0  0  0  0  0  0  0  0
   -0.0874   -9.5822    3.9543 H   0  0  0  0  0  0  0  0  0  0  0  0
   -1.0189   -8.2398    1.2942 H   0  0  0  0  0  0  0  0  0  0  0  0
   -1.1608  -10.0256    1.7380 H   0  0  0  0  0  0  0  0  0  0  0  0
   -2.5704   -9.4353    3.6794 H   0  0  0  0  0  0  0  0  0  0  0  0
   -2.4173   -7.6415    3.3058 H   0  0  0  0  0  0  0  0  0  0  0  0
  1  2  1  0
  1 26  1  0
  1 27  1  0
  1 28  1  0
  2  3  1  0
  3 21  1  0
  3  4  1  0
  3 29  1  1
  4 14  1  0
  4  5  1  0
  4 30  1  1
  5 17  1  0
  5  6  1  0
  5 31  1  1
  6  7  1  0
  6 32  1  0
  6 33  1  0
  7 13  2  0
  7  8  1  0
  8  9  2  0
  8 34  1  0
  9 10  1  0
  9 35  1  0
 10 11  1  0
 10 12  2  0
 11 36  1  0
 12 13  1  0
 12 37  1  0
 13 14  1  0
 14 15  1  0
 14 19  1  6
 15 16  2  0
 15 38  1  0
 16 17  1  0
 16 39  1  0
 17 18  1  0
 17 40  1  1
 18 41  1  0
 19 20  1  0
 19 42  1  0
 19 43  1  0
 20 21  1  0
 20 44  1  0
 20 45  1  0
 21 22  1  0
 22 23  1  0
 22 46  1  0
 22 47  1  0
 23 25  1  0
 23 24  1  0
 23 48  1  0
 24 25  1  0
 24 49  1  0
 24 50  1  0
 25 51  1  0
 25 52  1  0
M  END
>  <i_m_ct_stereo_status>  (342) 
1

>  <s_m_source_file>  (342) 
/var/tmp/pbs.5076255.sched01/tmp6w_bron9/120d4r_aq7a.sdf

>  <i_m_source_file_index>  (342) 
11

>  <i_lp_mmshare_version>  (342) 
48012

>  <i_f3d_flags>  (342) 
0

>  <s_epik_input>  (342) 
W0NIMl0xW0NIMl1bQ0hdMVtDSDJdTihbQ0gyXVtDSDJdMilbQ0BIXShPW0NIM10pW0NAQEhdKFtDQEBdMjM0KVtDQEBIXShbQ0BIXShbT0hdKVtDSF09W0NIXTQpW0NIMl1jNWMzW2NIXWMoW09IXSlbY0hdW2NIXTU=

>  <s_epik_cmdline>  (342) 
J2VwaWtfcHl0aG9uJywgJy1waHQnLCAnMi4wJywgJy1waCcsICc3LjAnLCAnLXRuJywgJzgnLCAnLW1hJywgJzIwMCcsICctaW1hZScsICc8aW5maWxlLm1hZT4nLCAnLW9tYWUnLCAnPG91dGZpbGUubWFlPic=

>  <r_lp_tautomer_probability>  (342) 
1

>  <r_epik_Ionization_Penalty>  (342) 
0.564417

>  <r_epik_Ionization_Penalty_Charging>  (342) 
0

>  <r_epik_Ionization_Penalty_Neutral>  (342) 
0.564417

>  <r_epik_State_Penalty>  (342) 
0.575523

>  <r_epik_Charging_Adjusted_Penalty>  (342) 
0.575523

>  <i_epik_Tot_Q>  (342) 
0

>  <i_epik_Tot_abs_Q>  (342) 
0

>  <s_epik_Chemistry_Notes>  (342) 
This compound contains an acetal/aminal-like group ( X-CH(R)-Y where X, Y are N, S, or O) that may be acid/base labile, releasing an aldehyde.

>  <s_lp_Force_Field>  (342) 
OPLS3e

>  <r_lp_Energy>  (342) 
54.5135

>  <b_lp_Chiralities_Consistent>  (342) 
1

>  <s_lp_Variant>  (342) 
87:0-2

>  <s_i_glide_gridfile>  (342) 
pfpi4k_grid

>  <i_i_glide_lignum>  (342) 
11

>  <i_i_glide_rotatable_bonds>  (342) 
5

>  <r_i_docking_score>  (342) 
-3.15624

>  <r_i_glide_ligand_efficiency>  (342) 
-0.126249

>  <r_i_glide_ligand_efficiency_sa>  (342) 
-0.369156

>  <r_i_glide_ligand_efficiency_ln>  (342) 
-0.748123

>  <r_i_glide_gscore>  (342) 
-3.15624

>  <r_i_glide_lipo>  (342) 
-0.415395

>  <r_i_glide_hbond>  (342) 
-0.32

>  <r_i_glide_metal>  (342) 
-0

>  <r_i_glide_rewards>  (342) 
-1.08106

>  <r_i_glide_evdw>  (342) 
-18.9614

>  <r_i_glide_ecoul>  (342) 
-4.77617

>  <r_i_glide_erotb>  (342) 
0.325088

>  <r_i_glide_esite>  (342) 
-0.000370672

>  <r_i_glide_emodel>  (342) 
-28.5106

>  <r_i_glide_energy>  (342) 
-23.7376

>  <r_i_glide_einternal>  (342) 
1.40119

>  <r_i_glide_intrahb_reward>  (342) 
-0

>  <i_i_glide_confnum>  (342) 
1

>  <i_i_glide_posenum>  (342) 
11

>  <r_i_glide_eff_state_penalty>  (342) 
0

>  <ligand_id>  (342) 
87

>  <original_smiles>  (342) 
COC1C2C3Cc4ccc(O)cc4C2(C=CC3O)CCN1CC1CC1

>  <smiles>  (342) 
[H]Oc1c([H])c([H])c2c(c1[H])C13C([H])=C([H])C([H])(O[H])C([H])(C2([H])[H])C1([H])C([H])(OC([H])([H])[H])N(C([H])([H])C1([H])C([H])([H])C1([H])[H])C([H])([H])C3([H])[H]

$$$$
87:1:2
     RDKit          3D

 52 56  0  0  1  0  0  0  0  0999 V2000
    2.9407   -6.1928    5.2967 C   0  0  0  0  0  0  0  0  0  0  0  0
    3.4938   -7.0126    4.2707 O   0  0  0  0  0  0  0  0  0  0  0  0
    3.2687   -8.3952    4.3283 C   0  0  2  0  0  0  0  0  0  0  0  0
    4.4782   -9.1429    3.6710 C   0  0  2  0  0  0  0  0  0  0  0  0
    5.8599   -8.9253    4.3311 C   0  0  2  0  0  0  0  0  0  0  0  0
    6.3985   -7.4923    4.0779 C   0  0  0  0  0  0  0  0  0  0  0  0
    6.0172   -6.8523    2.7482 C   0  0  0  0  0  0  0  0  0  0  0  0
    6.5788   -5.6012    2.4418 C   0  0  0  0  0  0  0  0  0  0  0  0
    6.2336   -4.9373    1.2513 C   0  0  0  0  0  0  0  0  0  0  0  0
    5.3204   -5.5220    0.3613 C   0  0  0  0  0  0  0  0  0  0  0  0
    5.0006   -4.8789   -0.7977 O   0  0  0  0  0  0  0  0  0  0  0  0
    4.7669   -6.7816    0.6598 C   0  0  0  0  0  0  0  0  0  0  0  0
    5.1045   -7.4614    1.8530 C   0  0  0  0  0  0  0  0  0  0  0  0
    4.5797   -8.8714    2.1467 C   0  0  1  0  0  0  0  0  0  0  0  0
    5.6108   -9.8225    1.5706 C   0  0  0  0  0  0  0  0  0  0  0  0
    6.6131  -10.3440    2.3069 C   0  0  0  0  0  0  0  0  0  0  0  0
    6.8177  -10.0377    3.7838 C   0  0  1  0  0  0  0  0  0  0  0  0
    8.1823   -9.7830    4.0582 O   0  0  0  0  0  0  0  0  0  0  0  0
    3.1988   -9.2110    1.5558 C   0  0  0  0  0  0  0  0  0  0  0  0
    2.0508   -8.4652    2.2236 C   0  0  0  0  0  0  0  0  0  0  0  0
    2.0252   -8.7608    3.6583 N   0  0  0  0  0  0  0  0  0  0  0  0
    0.7893   -8.3046    4.2861 C   0  0  0  0  0  0  0  0  0  0  0  0
   -0.4370   -9.0053    3.7508 C   0  0  0  0  0  0  0  0  0  0  0  0
   -1.1784   -8.4324    2.5635 C   0  0  0  0  0  0  0  0  0  0  0  0
   -1.7933   -8.3651    3.9328 C   0  0  0  0  0  0  0  0  0  0  0  0
    3.2987   -5.1759    5.1510 H   0  0  0  0  0  0  0  0  0  0  0  0
    3.2431   -6.5171    6.2912 H   0  0  0  0  0  0  0  0  0  0  0  0
    1.8585   -6.1244    5.2765 H   0  0  0  0  0  0  0  0  0  0  0  0
    3.2158   -8.6956    5.3794 H   0  0  0  0  0  0  0  0  0  0  0  0
    4.2299  -10.2031    3.7966 H   0  0  0  0  0  0  0  0  0  0  0  0
    5.7870   -9.0780    5.4085 H   0  0  0  0  0  0  0  0  0  0  0  0
    5.9708   -6.8477    4.8443 H   0  0  0  0  0  0  0  0  0  0  0  0
    7.4733   -7.4228    4.2294 H   0  0  0  0  0  0  0  0  0  0  0  0
    7.2795   -5.1503    3.1250 H   0  0  0  0  0  0  0  0  0  0  0  0
    6.6770   -3.9830    1.0181 H   0  0  0  0  0  0  0  0  0  0  0  0
    4.3887   -5.3537   -1.3490 H   0  0  0  0  0  0  0  0  0  0  0  0
    4.1137   -7.2298   -0.0633 H   0  0  0  0  0  0  0  0  0  0  0  0
    5.4778  -10.1024    0.5328 H   0  0  0  0  0  0  0  0  0  0  0  0
    7.2973  -11.0460    1.8684 H   0  0  0  0  0  0  0  0  0  0  0  0
    6.5679  -10.9684    4.2934 H   0  0  0  0  0  0  0  0  0  0  0  0
    8.4408   -9.0197    3.5528 H   0  0  0  0  0  0  0  0  0  0  0  0
    3.1733   -9.0598    0.4808 H   0  0  0  0  0  0  0  0  0  0  0  0
    3.0170  -10.2805    1.6765 H   0  0  0  0  0  0  0  0  0  0  0  0
    2.1271   -7.3840    2.0904 H   0  0  0  0  0  0  0  0  0  0  0  0
    1.1489   -8.8184    1.7225 H   0  0  0  0  0  0  0  0  0  0  0  0
    0.8262   -8.4961    5.3578 H   0  0  0  0  0  0  0  0  0  0  0  0
    0.6498   -7.2379    4.1188 H   0  0  0  0  0  0  0  0  0  0  0  0
   -0.4174  -10.0901    3.8574 H   0  0  0  0  0  0  0  0  0  0  0  0
   -0.7848   -7.5116    2.1329 H   0  0  0  0  0  0  0  0  0  0  0  0
   -1.5742   -9.1596    1.8575 H   0  0  0  0  0  0  0  0  0  0  0  0
   -2.6158   -9.0433    4.1287 H   0  0  0  0  0  0  0  0  0  0  0  0
   -1.8550   -7.3914    4.4215 H   0  0  0  0  0  0  0  0  0  0  0  0
  1  2  1  0
  1 26  1  0
  1 27  1  0
  1 28  1  0
  2  3  1  0
  3 21  1  0
  3  4  1  0
  3 29  1  1
  4 14  1  0
  4  5  1  0
  4 30  1  6
  5 17  1  0
  5  6  1  0
  5 31  1  1
  6  7  1  0
  6 32  1  0
  6 33  1  0
  7 13  2  0
  7  8  1  0
  8  9  2  0
  8 34  1  0
  9 10  1  0
  9 35  1  0
 10 11  1  0
 10 12  2  0
 11 36  1  0
 12 13  1  0
 12 37  1  0
 13 14  1  0
 14 15  1  0
 14 19  1  6
 15 16  2  0
 15 38  1  0
 16 17  1  0
 16 39  1  0
 17 18  1  0
 17 40  1  1
 18 41  1  0
 19 20  1  0
 19 42  1  0
 19 43  1  0
 20 21  1  0
 20 44  1  0
 20 45  1  0
 21 22  1  0
 22 23  1  0
 22 46  1  0
 22 47  1  0
 23 25  1  0
 23 24  1  0
 23 48  1  0
 24 25  1  0
 24 49  1  0
 24 50  1  0
 25 51  1  0
 25 52  1  0
M  END
>  <i_m_ct_stereo_status>  (343) 
1

>  <s_m_source_file>  (343) 
/var/tmp/pbs.5076255.sched01/tmp6w_bron9/120d4r_aq7a.sdf

>  <i_m_source_file_index>  (343) 
11

>  <i_lp_mmshare_version>  (343) 
48012

>  <i_f3d_flags>  (343) 
0

>  <s_epik_input>  (343) 
W0NIMl0xW0NIMl1bQ0hdMVtDSDJdTihbQ0gyXVtDSDJdMilbQ0BIXShPW0NIM10pW0NAQEhdKFtDQEBdMjM0KVtDQEBIXShbQ0BIXShbT0hdKVtDSF09W0NIXTQpW0NIMl1jNWMzW2NIXWMoW09IXSlbY0hdW2NIXTU=

>  <s_epik_cmdline>  (343) 
J2VwaWtfcHl0aG9uJywgJy1waHQnLCAnMi4wJywgJy1waCcsICc3LjAnLCAnLXRuJywgJzgnLCAnLW1hJywgJzIwMCcsICctaW1hZScsICc8aW5maWxlLm1hZT4nLCAnLW9tYWUnLCAnPG91dGZpbGUubWFlPic=

>  <r_lp_tautomer_probability>  (343) 
1

>  <r_epik_Ionization_Penalty>  (343) 
0.564417

>  <r_epik_Ionization_Penalty_Charging>  (343) 
0

>  <r_epik_Ionization_Penalty_Neutral>  (343) 
0.564417

>  <r_epik_State_Penalty>  (343) 
0.575523

>  <r_epik_Charging_Adjusted_Penalty>  (343) 
0.575523

>  <i_epik_Tot_Q>  (343) 
0

>  <i_epik_Tot_abs_Q>  (343) 
0

>  <s_epik_Chemistry_Notes>  (343) 
This compound contains an acetal/aminal-like group ( X-CH(R)-Y where X, Y are N, S, or O) that may be acid/base labile, releasing an aldehyde.

>  <s_lp_Force_Field>  (343) 
OPLS3e

>  <r_lp_Energy>  (343) 
54.5135

>  <b_lp_Chiralities_Consistent>  (343) 
1

>  <s_lp_Variant>  (343) 
87:0-2

>  <s_i_glide_gridfile>  (343) 
pfpi4k_grid

>  <i_i_glide_lignum>  (343) 
11

>  <i_i_glide_rotatable_bonds>  (343) 
5

>  <r_i_docking_score>  (343) 
-2.94027

>  <r_i_glide_ligand_efficiency>  (343) 
-0.117611

>  <r_i_glide_ligand_efficiency_sa>  (343) 
-0.343896

>  <r_i_glide_ligand_efficiency_ln>  (343) 
-0.696932

>  <r_i_glide_gscore>  (343) 
-2.94027

>  <r_i_glide_lipo>  (343) 
-0.407323

>  <r_i_glide_hbond>  (343) 
-0.317738

>  <r_i_glide_metal>  (343) 
-0

>  <r_i_glide_rewards>  (343) 
-1.08106

>  <r_i_glide_evdw>  (343) 
-19.9765

>  <r_i_glide_ecoul>  (343) 
-3.06797

>  <r_i_glide_erotb>  (343) 
0.325088

>  <r_i_glide_esite>  (343) 
-0.000214194

>  <r_i_glide_emodel>  (343) 
-26.9853

>  <r_i_glide_energy>  (343) 
-23.0444

>  <r_i_glide_einternal>  (343) 
1.63977

>  <r_i_glide_intrahb_reward>  (343) 
-0

>  <i_i_glide_confnum>  (343) 
1

>  <i_i_glide_posenum>  (343) 
24

>  <r_i_glide_eff_state_penalty>  (343) 
0

>  <ligand_id>  (343) 
87

>  <original_smiles>  (343) 
COC1C2C3Cc4ccc(O)cc4C2(C=CC3O)CCN1CC1CC1

>  <smiles>  (343) 
[H]Oc1c([H])c([H])c2c(c1[H])C13C([H])=C([H])C([H])(O[H])C([H])(C2([H])[H])C1([H])C([H])(OC([H])([H])[H])N(C([H])([H])C1([H])C([H])([H])C1([H])[H])C([H])([H])C3([H])[H]

$$$$
88:0:0
     RDKit          3D

 59 64  0  0  1  0  0  0  0  0999 V2000
    1.8094   -5.5304    5.1082 C   0  0  0  0  0  0  0  0  0  0  0  0
    2.5207   -5.9723    3.7940 C   0  0  1  0  0  0  0  0  0  0  0  0
    2.4026   -7.5302    3.6562 C   0  0  2  0  0  0  0  0  0  0  0  0
    2.9144   -8.1067    2.2614 C   0  0  0  0  0  0  0  0  0  0  0  0
    2.0948   -9.3527    1.6474 C   0  0  0  0  0  0  0  0  0  0  0  0
    0.7821   -9.8445    2.4610 C   0  0  1  0  0  0  0  0  0  0  0  0
    1.3955   -9.6917    3.7452 C   0  0  0  0  0  0  0  0  0  0  0  0
    1.0295   -8.1604    3.7128 C   0  0  2  0  0  0  0  0  0  0  0  0
    0.0537   -7.5017    2.5737 C   0  0  1  0  0  0  0  0  0  0  0  0
    0.3345   -7.2533    1.2171 O   0  0  0  0  0  0  0  0  0  0  0  0
   -0.4352   -8.8561    2.8870 C   0  0  1  0  0  0  0  0  0  0  0  0
   -1.7883   -9.2862    2.3523 C   0  0  0  0  0  0  0  0  0  0  0  0
   -0.3408   -8.1770    4.3824 C   0  0  1  0  0  0  0  0  0  0  0  0
   -0.5699   -8.9795    5.5321 O   0  0  0  0  0  0  0  0  0  0  0  0
    1.9474   -5.3120    2.6684 O   0  0  0  0  0  0  0  0  0  0  0  0
    2.9010   -4.6504    1.8774 C   0  0  2  0  0  0  0  0  0  0  0  0
    3.3711   -5.3795    0.7805 O   0  0  0  0  0  0  0  0  0  0  0  0
    4.5894   -5.0334    0.2087 C   0  0  1  0  0  0  0  0  0  0  0  0
    4.4735   -3.7431   -0.6262 C   0  0  0  0  0  0  0  0  0  0  0  0
    4.7274   -3.7132   -2.0330 C   0  0  0  0  0  0  0  0  0  0  0  0
    4.6050   -2.5227   -2.7856 C   0  0  0  0  0  0  0  0  0  0  0  0
    4.2146   -1.3258   -2.1391 C   0  0  0  0  0  0  0  0  0  0  0  0
    3.9613   -1.3397   -0.7488 C   0  0  0  0  0  0  0  0  0  0  0  0
    4.0772   -2.5232   -0.0257 C   0  0  0  0  0  0  0  0  0  0  0  0
    5.6462   -4.9807    1.1001 O   0  0  0  0  0  0  0  0  0  0  0  0
    5.4522   -4.1022    2.1952 C   0  0  0  0  0  0  0  0  0  0  0  0
    4.0587   -4.3265    2.8623 C   0  0  2  0  0  0  0  0  0  0  0  0
    4.0345   -5.5411    3.7642 C   0  0  1  0  0  0  0  0  0  0  0  0
    4.5662   -5.2068    5.0447 O   0  0  0  0  0  0  0  0  0  0  0  0
    2.1063   -6.1952    5.9140 H   0  0  0  0  0  0  0  0  0  0  0  0
    0.7225   -5.5811    5.0531 H   0  0  0  0  0  0  0  0  0  0  0  0
    2.0708   -4.5202    5.4205 H   0  0  0  0  0  0  0  0  0  0  0  0
    3.0051   -7.9392    4.4611 H   0  0  0  0  0  0  0  0  0  0  0  0
    2.8288   -7.3809    1.4908 H   0  0  0  0  0  0  0  0  0  0  0  0
    3.9839   -8.3448    2.3360 H   0  0  0  0  0  0  0  0  0  0  0  0
    1.8540   -9.1328    0.6094 H   0  0  0  0  0  0  0  0  0  0  0  0
    2.7968  -10.1919    1.5802 H   0  0  0  0  0  0  0  0  0  0  0  0
    0.4845  -10.8644    2.2232 H   0  0  0  0  0  0  0  0  0  0  0  0
    0.8980  -10.3603    4.4578 H   0  0  0  0  0  0  0  0  0  0  0  0
    2.4493   -9.9647    3.8428 H   0  0  0  0  0  0  0  0  0  0  0  0
   -0.5600   -6.6290    2.8219 H   0  0  0  0  0  0  0  0  0  0  0  0
    0.4429   -8.1050    0.8134 H   0  0  0  0  0  0  0  0  0  0  0  0
   -2.5655   -8.5662    2.6295 H   0  0  0  0  0  0  0  0  0  0  0  0
   -2.0605  -10.2548    2.7643 H   0  0  0  0  0  0  0  0  0  0  0  0
   -1.7751   -9.3713    1.2732 H   0  0  0  0  0  0  0  0  0  0  0  0
   -0.8639   -7.2446    4.6058 H   0  0  0  0  0  0  0  0  0  0  0  0
   -1.1403   -9.6858    5.2850 H   0  0  0  0  0  0  0  0  0  0  0  0
    2.4623   -3.7368    1.4846 H   0  0  0  0  0  0  0  0  0  0  0  0
    4.8286   -5.8806   -0.4543 H   0  0  0  0  0  0  0  0  0  0  0  0
    5.0086   -4.6200   -2.5437 H   0  0  0  0  0  0  0  0  0  0  0  0
    4.7837   -2.5251   -3.8621 H   0  0  0  0  0  0  0  0  0  0  0  0
    4.0907   -0.4025   -2.6898 H   0  0  0  0  0  0  0  0  0  0  0  0
    3.6432   -0.4482   -0.2264 H   0  0  0  0  0  0  0  0  0  0  0  0
    3.8690   -2.4658    1.0316 H   0  0  0  0  0  0  0  0  0  0  0  0
    6.2525   -4.3154    2.9295 H   0  0  0  0  0  0  0  0  0  0  0  0
    5.5733   -3.0752    1.8426 H   0  0  0  0  0  0  0  0  0  0  0  0
    3.7795   -3.4363    3.4129 H   0  0  0  0  0  0  0  0  0  0  0  0
    4.6474   -6.3516    3.3345 H   0  0  0  0  0  0  0  0  0  0  0  0
    4.4487   -5.9500    5.6172 H   0  0  0  0  0  0  0  0  0  0  0  0
  2  1  1  1
  1 30  1  0
  1 31  1  0
  1 32  1  0
  2 28  1  0
  2  3  1  0
  2 15  1  0
  3  8  1  0
  3  4  1  0
  3 33  1  1
  4  5  1  0
  4 34  1  0
  4 35  1  0
  5  6  1  0
  5 36  1  0
  5 37  1  0
  6 11  1  0
  6  7  1  0
  6 38  1  6
  8  7  1  6
  7 39  1  0
  7 40  1  0
  8 13  1  0
  8  9  1  0
  9 10  1  0
  9 11  1  0
  9 41  1  1
 10 42  1  0
 11 12  1  6
 11 13  1  0
 12 43  1  0
 12 44  1  0
 12 45  1  0
 13 14  1  0
 13 46  1  6
 14 47  1  0
 15 16  1  0
 16 27  1  0
 16 17  1  0
 16 48  1  6
 17 18  1  0
 18 19  1  0
 18 25  1  0
 18 49  1  6
 19 24  1  0
 19 20  2  0
 20 21  1  0
 20 50  1  0
 21 22  2  0
 21 51  1  0
 22 23  1  0
 22 52  1  0
 23 24  2  0
 23 53  1  0
 24 54  1  0
 25 26  1  0
 26 27  1  0
 26 55  1  0
 26 56  1  0
 27 28  1  0
 27 57  1  1
 28 29  1  0
 28 58  1  6
 29 59  1  0
M  END
>  <i_m_ct_stereo_status>  (344) 
1

>  <s_m_source_file>  (344) 
/var/tmp/pbs.5076255.sched01/tmp6w_bron9/120d4r_aq7a.sdf

>  <i_m_source_file_index>  (344) 
12

>  <i_lp_mmshare_version>  (344) 
48012

>  <i_f3d_flags>  (344) 
0

>  <s_epik_input>  (344) 
W09IXVtDQEhdMVtDQF0oW0NIM10pKFtDQEhdMltPSF0pW0NASF0oW0NIMl0zKVtDSDJdW0NIMl1bQ0BIXShDMTIzKVtDQEBdKE80KShbQ0gzXSlbQ0BIXShbT0hdKVtDQEhdKFtDQEhdNDUpW0NIMl1PW0NAQEhdKE81KWM2W2NIXVtjSF1bY0hdW2NIXVtjSF02

>  <s_epik_cmdline>  (344) 
J2VwaWtfcHl0aG9uJywgJy1waHQnLCAnMi4wJywgJy1waCcsICc3LjAnLCAnLXRuJywgJzgnLCAnLW1hJywgJzIwMCcsICctaW1hZScsICc8aW5maWxlLm1hZT4nLCAnLW9tYWUnLCAnPG91dGZpbGUubWFlPic=

>  <r_lp_tautomer_probability>  (344) 
1

>  <r_epik_Ionization_Penalty>  (344) 
7.40506e-07

>  <r_epik_Ionization_Penalty_Charging>  (344) 
0

>  <r_epik_Ionization_Penalty_Neutral>  (344) 
7.40506e-07

>  <r_epik_State_Penalty>  (344) 
-0

>  <r_epik_Charging_Adjusted_Penalty>  (344) 
0

>  <i_epik_Tot_Q>  (344) 
0

>  <i_epik_Tot_abs_Q>  (344) 
0

>  <s_epik_Chemistry_Notes>  (344) 
This compound contains an acetal/aminal-like group ( X-CH(R)-Y where X, Y are N, S, or O) that may be acid/base labile, releasing an aldehyde.

>  <s_lp_Force_Field>  (344) 
OPLS3e

>  <r_lp_Energy>  (344) 
170.828

>  <b_lp_Chiralities_Consistent>  (344) 
1

>  <s_lp_Variant>  (344) 
88:0-1

>  <s_i_glide_gridfile>  (344) 
pfpi4k_grid

>  <i_i_glide_lignum>  (344) 
12

>  <i_i_glide_rotatable_bonds>  (344) 
5

>  <r_i_docking_score>  (344) 
-3.74638

>  <r_i_glide_ligand_efficiency>  (344) 
-0.129186

>  <r_i_glide_ligand_efficiency_sa>  (344) 
-0.396899

>  <r_i_glide_ligand_efficiency_ln>  (344) 
-0.857827

>  <r_i_glide_gscore>  (344) 
-3.74638

>  <r_i_glide_lipo>  (344) 
-0.732986

>  <r_i_glide_hbond>  (344) 
-0.152851

>  <r_i_glide_metal>  (344) 
-0

>  <r_i_glide_rewards>  (344) 
-0.706831

>  <r_i_glide_evdw>  (344) 
-24.9922

>  <r_i_glide_ecoul>  (344) 
-7.60825

>  <r_i_glide_erotb>  (344) 
0.242288

>  <r_i_glide_esite>  (344) 
-0.00515492

>  <r_i_glide_emodel>  (344) 
-33.2026

>  <r_i_glide_energy>  (344) 
-32.6005

>  <r_i_glide_einternal>  (344) 
11.0009

>  <r_i_glide_intrahb_reward>  (344) 
-0

>  <i_i_glide_confnum>  (344) 
3

>  <i_i_glide_posenum>  (344) 
8

>  <r_i_glide_eff_state_penalty>  (344) 
0

>  <ligand_id>  (344) 
88

>  <original_smiles>  (344) 
CC1(C2CCC3CC24C(O)C3(C)C4O)OC2OC(c3ccccc3)OCC2C1O

>  <smiles>  (344) 
[H]OC1([H])C2([H])C([H])([H])OC([H])(c3c([H])c([H])c([H])c([H])c3[H])OC2([H])OC1(C([H])([H])[H])C1([H])C([H])([H])C([H])([H])C2([H])C([H])([H])C13C([H])(O[H])C2(C([H])([H])[H])C3([H])O[H]

$$$$
88:0:1
     RDKit          3D

 59 64  0  0  1  0  0  0  0  0999 V2000
    1.7748   -5.4487    5.0386 C   0  0  0  0  0  0  0  0  0  0  0  0
    2.5043   -5.9096    3.7439 C   0  0  1  0  0  0  0  0  0  0  0  0
    2.4002   -7.4744    3.6332 C   0  0  2  0  0  0  0  0  0  0  0  0
    2.9142   -8.0691    2.2445 C   0  0  0  0  0  0  0  0  0  0  0  0
    2.1059   -9.3325    1.6481 C   0  0  0  0  0  0  0  0  0  0  0  0
    0.7933   -9.8197    2.4663 C   0  0  1  0  0  0  0  0  0  0  0  0
    1.4133   -9.6437    3.7453 C   0  0  0  0  0  0  0  0  0  0  0  0
    1.0263   -8.1184    3.6959 C   0  0  2  0  0  0  0  0  0  0  0  0
    0.0473   -7.4797    2.5536 C   0  0  1  0  0  0  0  0  0  0  0  0
    0.3346   -7.2515    1.1866 O   0  0  0  0  0  0  0  0  0  0  0  0
   -0.4279   -8.8351    2.8762 C   0  0  1  0  0  0  0  0  0  0  0  0
   -1.7831   -9.2802    2.3544 C   0  0  0  0  0  0  0  0  0  0  0  0
   -0.3420   -8.1687    4.3736 C   0  0  1  0  0  0  0  0  0  0  0  0
   -0.5607   -9.0016    5.5084 O   0  0  0  0  0  0  0  0  0  0  0  0
    1.9330   -5.2733    2.5998 O   0  0  0  0  0  0  0  0  0  0  0  0
    2.8884   -4.6244    1.8025 C   0  0  2  0  0  0  0  0  0  0  0  0
    3.3814   -5.3635    0.7252 O   0  0  0  0  0  0  0  0  0  0  0  0
    4.5970   -5.0265    0.1579 C   0  0  1  0  0  0  0  0  0  0  0  0
    4.4831   -3.7464   -0.6996 C   0  0  0  0  0  0  0  0  0  0  0  0
    4.7462   -3.7380   -2.1003 C   0  0  0  0  0  0  0  0  0  0  0  0
    4.6239   -2.5663   -2.8844 C   0  0  0  0  0  0  0  0  0  0  0  0
    4.2192   -1.3550   -2.2627 C   0  0  0  0  0  0  0  0  0  0  0  0
    3.9578   -1.3496   -0.8709 C   0  0  0  0  0  0  0  0  0  0  0  0
    4.0728   -2.5205   -0.1249 C   0  0  0  0  0  0  0  0  0  0  0  0
    5.6492   -4.9463    1.0605 O   0  0  0  0  0  0  0  0  0  0  0  0
    5.4375   -4.0522    2.1335 C   0  0  0  0  0  0  0  0  0  0  0  0
    4.0404   -4.2688    2.7919 C   0  0  2  0  0  0  0  0  0  0  0  0
    4.0176   -5.4662    3.7253 C   0  0  1  0  0  0  0  0  0  0  0  0
    4.5276   -5.0763    5.0065 O   0  0  0  0  0  0  0  0  0  0  0  0
    2.0718   -6.0941    5.8599 H   0  0  0  0  0  0  0  0  0  0  0  0
    0.6883   -5.5148    4.9689 H   0  0  0  0  0  0  0  0  0  0  0  0
    2.0128   -4.4265    5.3311 H   0  0  0  0  0  0  0  0  0  0  0  0
    3.0025   -7.8667    4.4444 H   0  0  0  0  0  0  0  0  0  0  0  0
    2.8243   -7.3589    1.4604 H   0  0  0  0  0  0  0  0  0  0  0  0
    3.9866   -8.3012    2.3246 H   0  0  0  0  0  0  0  0  0  0  0  0
    1.8631   -9.1356    0.6060 H   0  0  0  0  0  0  0  0  0  0  0  0
    2.8101  -10.1707    1.6012 H   0  0  0  0  0  0  0  0  0  0  0  0
    0.5015  -10.8447    2.2514 H   0  0  0  0  0  0  0  0  0  0  0  0
    0.9296  -10.3180    4.4635 H   0  0  0  0  0  0  0  0  0  0  0  0
    2.4637   -9.9019    3.8526 H   0  0  0  0  0  0  0  0  0  0  0  0
   -0.5766   -6.6138    2.7904 H   0  0  0  0  0  0  0  0  0  0  0  0
    0.4935   -8.0976    0.8069 H   0  0  0  0  0  0  0  0  0  0  0  0
   -2.5633   -8.5564    2.6166 H   0  0  0  0  0  0  0  0  0  0  0  0
   -2.0465  -10.2450    2.7863 H   0  0  0  0  0  0  0  0  0  0  0  0
   -1.7759   -9.3865    1.2815 H   0  0  0  0  0  0  0  0  0  0  0  0
   -0.8725   -7.2405    4.5978 H   0  0  0  0  0  0  0  0  0  0  0  0
   -1.1659   -9.6905    5.2537 H   0  0  0  0  0  0  0  0  0  0  0  0
    2.4645   -3.7110    1.3872 H   0  0  0  0  0  0  0  0  0  0  0  0
    4.8465   -5.8818   -0.4893 H   0  0  0  0  0  0  0  0  0  0  0  0
    5.0375   -4.6510   -2.5944 H   0  0  0  0  0  0  0  0  0  0  0  0
    4.8151   -2.5899   -3.9574 H   0  0  0  0  0  0  0  0  0  0  0  0
    4.0995   -0.4491   -2.8356 H   0  0  0  0  0  0  0  0  0  0  0  0
    3.6296   -0.4458   -0.3751 H   0  0  0  0  0  0  0  0  0  0  0  0
    3.8572   -2.4492    0.9316 H   0  0  0  0  0  0  0  0  0  0  0  0
    6.2221   -4.2520    2.8872 H   0  0  0  0  0  0  0  0  0  0  0  0
    5.5488   -3.0306    1.7599 H   0  0  0  0  0  0  0  0  0  0  0  0
    3.7490   -3.3682    3.3132 H   0  0  0  0  0  0  0  0  0  0  0  0
    4.6443   -6.2757    3.3240 H   0  0  0  0  0  0  0  0  0  0  0  0
    3.9459   -4.4208    5.3468 H   0  0  0  0  0  0  0  0  0  0  0  0
  2  1  1  1
  1 30  1  0
  1 31  1  0
  1 32  1  0
  2 28  1  0
  2  3  1  0
  2 15  1  0
  3  8  1  0
  3  4  1  0
  3 33  1  1
  4  5  1  0
  4 34  1  0
  4 35  1  0
  5  6  1  0
  5 36  1  0
  5 37  1  0
  6 11  1  0
  6  7  1  0
  6 38  1  6
  8  7  1  6
  7 39  1  0
  7 40  1  0
  8 13  1  0
  8  9  1  0
  9 10  1  0
  9 11  1  0
  9 41  1  1
 10 42  1  0
 11 12  1  6
 11 13  1  0
 12 43  1  0
 12 44  1  0
 12 45  1  0
 13 14  1  0
 13 46  1  6
 14 47  1  0
 15 16  1  0
 16 27  1  0
 16 17  1  0
 16 48  1  6
 17 18  1  0
 18 19  1  0
 18 25  1  0
 18 49  1  6
 19 24  1  0
 19 20  2  0
 20 21  1  0
 20 50  1  0
 21 22  2  0
 21 51  1  0
 22 23  1  0
 22 52  1  0
 23 24  2  0
 23 53  1  0
 24 54  1  0
 25 26  1  0
 26 27  1  0
 26 55  1  0
 26 56  1  0
 27 28  1  0
 27 57  1  1
 28 29  1  0
 28 58  1  6
 29 59  1  0
M  END
>  <i_m_ct_stereo_status>  (345) 
1

>  <s_m_source_file>  (345) 
/var/tmp/pbs.5076255.sched01/tmp6w_bron9/120d4r_aq7a.sdf

>  <i_m_source_file_index>  (345) 
12

>  <i_lp_mmshare_version>  (345) 
48012

>  <i_f3d_flags>  (345) 
0

>  <s_epik_input>  (345) 
W09IXVtDQEhdMVtDQF0oW0NIM10pKFtDQEhdMltPSF0pW0NASF0oW0NIMl0zKVtDSDJdW0NIMl1bQ0BIXShDMTIzKVtDQEBdKE80KShbQ0gzXSlbQ0BIXShbT0hdKVtDQEhdKFtDQEhdNDUpW0NIMl1PW0NAQEhdKE81KWM2W2NIXVtjSF1bY0hdW2NIXVtjSF02

>  <s_epik_cmdline>  (345) 
J2VwaWtfcHl0aG9uJywgJy1waHQnLCAnMi4wJywgJy1waCcsICc3LjAnLCAnLXRuJywgJzgnLCAnLW1hJywgJzIwMCcsICctaW1hZScsICc8aW5maWxlLm1hZT4nLCAnLW9tYWUnLCAnPG91dGZpbGUubWFlPic=

>  <r_lp_tautomer_probability>  (345) 
1

>  <r_epik_Ionization_Penalty>  (345) 
7.40506e-07

>  <r_epik_Ionization_Penalty_Charging>  (345) 
0

>  <r_epik_Ionization_Penalty_Neutral>  (345) 
7.40506e-07

>  <r_epik_State_Penalty>  (345) 
-0

>  <r_epik_Charging_Adjusted_Penalty>  (345) 
0

>  <i_epik_Tot_Q>  (345) 
0

>  <i_epik_Tot_abs_Q>  (345) 
0

>  <s_epik_Chemistry_Notes>  (345) 
This compound contains an acetal/aminal-like group ( X-CH(R)-Y where X, Y are N, S, or O) that may be acid/base labile, releasing an aldehyde.

>  <s_lp_Force_Field>  (345) 
OPLS3e

>  <r_lp_Energy>  (345) 
170.828

>  <b_lp_Chiralities_Consistent>  (345) 
1

>  <s_lp_Variant>  (345) 
88:0-1

>  <s_i_glide_gridfile>  (345) 
pfpi4k_grid

>  <i_i_glide_lignum>  (345) 
12

>  <i_i_glide_rotatable_bonds>  (345) 
5

>  <r_i_docking_score>  (345) 
-3.71822

>  <r_i_glide_ligand_efficiency>  (345) 
-0.128214

>  <r_i_glide_ligand_efficiency_sa>  (345) 
-0.393915

>  <r_i_glide_ligand_efficiency_ln>  (345) 
-0.851378

>  <r_i_glide_gscore>  (345) 
-3.71822

>  <r_i_glide_lipo>  (345) 
-0.716559

>  <r_i_glide_hbond>  (345) 
-0.153129

>  <r_i_glide_metal>  (345) 
-0

>  <r_i_glide_rewards>  (345) 
-0.69537

>  <r_i_glide_evdw>  (345) 
-25.1663

>  <r_i_glide_ecoul>  (345) 
-7.54206

>  <r_i_glide_erotb>  (345) 
0.242288

>  <r_i_glide_esite>  (345) 
-0.00582478

>  <r_i_glide_emodel>  (345) 
-32.8707

>  <r_i_glide_energy>  (345) 
-32.7084

>  <r_i_glide_einternal>  (345) 
10.6043

>  <r_i_glide_intrahb_reward>  (345) 
-0

>  <i_i_glide_confnum>  (345) 
3

>  <i_i_glide_posenum>  (345) 
1

>  <r_i_glide_eff_state_penalty>  (345) 
0

>  <ligand_id>  (345) 
88

>  <original_smiles>  (345) 
CC1(C2CCC3CC24C(O)C3(C)C4O)OC2OC(c3ccccc3)OCC2C1O

>  <smiles>  (345) 
[H]OC1([H])C2([H])C([H])([H])OC([H])(c3c([H])c([H])c([H])c([H])c3[H])OC2([H])OC1(C([H])([H])[H])C1([H])C([H])([H])C([H])([H])C2([H])C([H])([H])C13C([H])(O[H])C2(C([H])([H])[H])C3([H])O[H]

$$$$
88:0:2
     RDKit          3D

 59 64  0  0  1  0  0  0  0  0999 V2000
    6.2284   -5.7178    0.7403 C   0  0  0  0  0  0  0  0  0  0  0  0
    5.0301   -5.0824    1.4901 C   0  0  1  0  0  0  0  0  0  0  0  0
    5.1569   -3.5225    1.3872 C   0  0  2  0  0  0  0  0  0  0  0  0
    3.9259   -2.7035    1.9757 C   0  0  0  0  0  0  0  0  0  0  0  0
    3.5013   -1.3466    1.2064 C   0  0  0  0  0  0  0  0  0  0  0  0
    4.3291   -0.9666   -0.1300 C   0  0  1  0  0  0  0  0  0  0  0  0
    5.5885   -1.3717    0.4265 C   0  0  0  0  0  0  0  0  0  0  0  0
    5.2692   -2.8577    0.0273 C   0  0  2  0  0  0  0  0  0  0  0  0
    3.9903   -3.2702   -0.9135 C   0  0  1  0  0  0  0  0  0  0  0  0
    2.6260   -3.2772   -0.5543 O   0  0  0  0  0  0  0  0  0  0  0  0
    4.5238   -1.9711   -1.3891 C   0  0  1  0  0  0  0  0  0  0  0  0
    4.0227   -1.4085   -2.7146 C   0  0  0  0  0  0  0  0  0  0  0  0
    5.8880   -2.9037   -1.3728 C   0  0  1  0  0  0  0  0  0  0  0  0
    7.1474   -2.3040   -1.6183 O   0  0  0  0  0  0  0  0  0  0  0  0
    3.8019   -5.5607    0.9268 O   0  0  0  0  0  0  0  0  0  0  0  0
    2.9300   -6.0945    1.8902 C   0  0  2  0  0  0  0  0  0  0  0  0
    2.0117   -5.1511    2.3702 O   0  0  0  0  0  0  0  0  0  0  0  0
    1.4020   -5.4099    3.5908 C   0  0  1  0  0  0  0  0  0  0  0  0
    0.3476   -6.5167    3.4780 C   0  0  0  0  0  0  0  0  0  0  0  0
   -0.1387   -7.1630    4.6270 C   0  0  0  0  0  0  0  0  0  0  0  0
   -1.0242   -8.2576    4.5049 C   0  0  0  0  0  0  0  0  0  0  0  0
   -1.4480   -8.6689    3.2259 C   0  0  0  0  0  0  0  0  0  0  0  0
   -1.0221   -7.9853    2.0898 C   0  0  0  0  0  0  0  0  0  0  0  0
   -0.1532   -6.8870    2.2047 C   0  0  0  0  0  0  0  0  0  0  0  0
    2.2946   -5.6512    4.6239 O   0  0  0  0  0  0  0  0  0  0  0  0
    3.1323   -6.7526    4.3501 C   0  0  0  0  0  0  0  0  0  0  0  0
    3.8616   -6.5805    3.0013 C   0  0  2  0  0  0  0  0  0  0  0  0
    4.9672   -5.5341    2.9871 C   0  0  1  0  0  0  0  0  0  0  0  0
    6.1665   -6.1249    3.4712 O   0  0  0  0  0  0  0  0  0  0  0  0
    7.1362   -5.2048    1.0285 H   0  0  0  0  0  0  0  0  0  0  0  0
    6.1585   -5.6086   -0.3386 H   0  0  0  0  0  0  0  0  0  0  0  0
    6.3896   -6.7724    0.9420 H   0  0  0  0  0  0  0  0  0  0  0  0
    6.0485   -3.2762    1.9573 H   0  0  0  0  0  0  0  0  0  0  0  0
    3.0370   -3.2834    1.9201 H   0  0  0  0  0  0  0  0  0  0  0  0
    4.0945   -2.5099    3.0380 H   0  0  0  0  0  0  0  0  0  0  0  0
    2.4299   -1.3663    1.0074 H   0  0  0  0  0  0  0  0  0  0  0  0
    3.6153   -0.5341    1.9294 H   0  0  0  0  0  0  0  0  0  0  0  0
    4.2683    0.0937   -0.3774 H   0  0  0  0  0  0  0  0  0  0  0  0
    6.3784   -0.8208   -0.0871 H   0  0  0  0  0  0  0  0  0  0  0  0
    5.7842   -1.1527    1.4800 H   0  0  0  0  0  0  0  0  0  0  0  0
    4.0585   -4.1565   -1.5542 H   0  0  0  0  0  0  0  0  0  0  0  0
    2.2916   -2.4030   -0.7169 H   0  0  0  0  0  0  0  0  0  0  0  0
    4.1311   -2.1503   -3.5064 H   0  0  0  0  0  0  0  0  0  0  0  0
    4.5905   -0.5245   -3.0100 H   0  0  0  0  0  0  0  0  0  0  0  0
    2.9667   -1.1323   -2.6621 H   0  0  0  0  0  0  0  0  0  0  0  0
    5.9256   -3.8550   -1.9085 H   0  0  0  0  0  0  0  0  0  0  0  0
    7.4811   -2.6841   -2.4365 H   0  0  0  0  0  0  0  0  0  0  0  0
    2.3866   -6.9528    1.4867 H   0  0  0  0  0  0  0  0  0  0  0  0
    0.9150   -4.4748    3.8663 H   0  0  0  0  0  0  0  0  0  0  0  0
    0.1946   -6.8594    5.6087 H   0  0  0  0  0  0  0  0  0  0  0  0
   -1.3421   -8.8095    5.3702 H   0  0  0  0  0  0  0  0  0  0  0  0
   -2.0843   -9.5356    3.1249 H   0  0  0  0  0  0  0  0  0  0  0  0
   -1.3223   -8.2982    1.0968 H   0  0  0  0  0  0  0  0  0  0  0  0
    0.1541   -6.3661    1.3169 H   0  0  0  0  0  0  0  0  0  0  0  0
    3.8551   -6.8063    5.1699 H   0  0  0  0  0  0  0  0  0  0  0  0
    2.5425   -7.6751    4.3331 H   0  0  0  0  0  0  0  0  0  0  0  0
    4.2367   -7.5497    2.6739 H   0  0  0  0  0  0  0  0  0  0  0  0
    4.6978   -4.6825    3.6229 H   0  0  0  0  0  0  0  0  0  0  0  0
    6.3759   -6.8502    2.8985 H   0  0  0  0  0  0  0  0  0  0  0  0
  2  1  1  6
  1 30  1  0
  1 31  1  0
  1 32  1  0
  2 28  1  0
  2  3  1  0
  2 15  1  0
  3  8  1  0
  3  4  1  0
  3 33  1  1
  4  5  1  0
  4 34  1  0
  4 35  1  0
  5  6  1  0
  5 36  1  0
  5 37  1  0
  6 11  1  0
  6  7  1  0
  6 38  1  6
  8  7  1  1
  7 39  1  0
  7 40  1  0
  8 13  1  0
  8  9  1  0
  9 10  1  0
  9 11  1  0
  9 41  1  6
 10 42  1  0
 11 12  1  6
 11 13  1  0
 12 43  1  0
 12 44  1  0
 12 45  1  0
 13 14  1  0
 13 46  1  6
 14 47  1  0
 15 16  1  0
 16 27  1  0
 16 17  1  0
 16 48  1  6
 17 18  1  0
 18 19  1  0
 18 25  1  0
 18 49  1  1
 19 24  1  0
 19 20  2  0
 20 21  1  0
 20 50  1  0
 21 22  2  0
 21 51  1  0
 22 23  1  0
 22 52  1  0
 23 24  2  0
 23 53  1  0
 24 54  1  0
 25 26  1  0
 26 27  1  0
 26 55  1  0
 26 56  1  0
 27 28  1  0
 27 57  1  6
 28 29  1  0
 28 58  1  1
 29 59  1  0
M  END
>  <i_m_ct_stereo_status>  (346) 
1

>  <s_m_source_file>  (346) 
/var/tmp/pbs.5076255.sched01/tmp6w_bron9/120d4r_aq7a.sdf

>  <i_m_source_file_index>  (346) 
12

>  <i_lp_mmshare_version>  (346) 
48012

>  <i_f3d_flags>  (346) 
0

>  <s_epik_input>  (346) 
W09IXVtDQEhdMVtDQF0oW0NIM10pKFtDQEhdMltPSF0pW0NASF0oW0NIMl0zKVtDSDJdW0NIMl1bQ0BIXShDMTIzKVtDQEBdKE80KShbQ0gzXSlbQ0BIXShbT0hdKVtDQEhdKFtDQEhdNDUpW0NIMl1PW0NAQEhdKE81KWM2W2NIXVtjSF1bY0hdW2NIXVtjSF02

>  <s_epik_cmdline>  (346) 
J2VwaWtfcHl0aG9uJywgJy1waHQnLCAnMi4wJywgJy1waCcsICc3LjAnLCAnLXRuJywgJzgnLCAnLW1hJywgJzIwMCcsICctaW1hZScsICc8aW5maWxlLm1hZT4nLCAnLW9tYWUnLCAnPG91dGZpbGUubWFlPic=

>  <r_lp_tautomer_probability>  (346) 
1

>  <r_epik_Ionization_Penalty>  (346) 
7.40506e-07

>  <r_epik_Ionization_Penalty_Charging>  (346) 
0

>  <r_epik_Ionization_Penalty_Neutral>  (346) 
7.40506e-07

>  <r_epik_State_Penalty>  (346) 
-0

>  <r_epik_Charging_Adjusted_Penalty>  (346) 
0

>  <i_epik_Tot_Q>  (346) 
0

>  <i_epik_Tot_abs_Q>  (346) 
0

>  <s_epik_Chemistry_Notes>  (346) 
This compound contains an acetal/aminal-like group ( X-CH(R)-Y where X, Y are N, S, or O) that may be acid/base labile, releasing an aldehyde.

>  <s_lp_Force_Field>  (346) 
OPLS3e

>  <r_lp_Energy>  (346) 
170.828

>  <b_lp_Chiralities_Consistent>  (346) 
1

>  <s_lp_Variant>  (346) 
88:0-1

>  <s_i_glide_gridfile>  (346) 
pfpi4k_grid

>  <i_i_glide_lignum>  (346) 
12

>  <i_i_glide_rotatable_bonds>  (346) 
5

>  <r_i_docking_score>  (346) 
-3.24693

>  <r_i_glide_ligand_efficiency>  (346) 
-0.111963

>  <r_i_glide_ligand_efficiency_sa>  (346) 
-0.343986

>  <r_i_glide_ligand_efficiency_ln>  (346) 
-0.743465

>  <r_i_glide_gscore>  (346) 
-3.24693

>  <r_i_glide_lipo>  (346) 
-0.311878

>  <r_i_glide_hbond>  (346) 
-0.267748

>  <r_i_glide_metal>  (346) 
-0

>  <r_i_glide_rewards>  (346) 
-0.669611

>  <r_i_glide_evdw>  (346) 
-25.3917

>  <r_i_glide_ecoul>  (346) 
-6.37096

>  <r_i_glide_erotb>  (346) 
0.242288

>  <r_i_glide_esite>  (346) 
-0.0147534

>  <r_i_glide_emodel>  (346) 
-36.6016

>  <r_i_glide_energy>  (346) 
-31.7627

>  <r_i_glide_einternal>  (346) 
2.51379

>  <r_i_glide_intrahb_reward>  (346) 
-0

>  <i_i_glide_confnum>  (346) 
3

>  <i_i_glide_posenum>  (346) 
24

>  <r_i_glide_eff_state_penalty>  (346) 
0

>  <ligand_id>  (346) 
88

>  <original_smiles>  (346) 
CC1(C2CCC3CC24C(O)C3(C)C4O)OC2OC(c3ccccc3)OCC2C1O

>  <smiles>  (346) 
[H]OC1([H])C2([H])C([H])([H])OC([H])(c3c([H])c([H])c([H])c([H])c3[H])OC2([H])OC1(C([H])([H])[H])C1([H])C([H])([H])C([H])([H])C2([H])C([H])([H])C13C([H])(O[H])C2(C([H])([H])[H])C3([H])O[H]

$$$$
89:0:0
     RDKit          3D

 56 62  0  0  1  0  0  0  0  0999 V2000
   -2.3913    2.5937    4.1434 C   0  0  0  0  0  0  0  0  0  0  0  0
   -1.1242    2.2838    4.4647 C   0  0  0  0  0  0  0  0  0  0  0  0
   -0.0156    1.9958    3.4614 C   0  0  0  0  0  0  0  0  0  0  0  0
    0.6717    0.6130    3.6911 C   0  0  2  0  0  0  0  0  0  0  0  0
    1.6205    0.4926    4.9075 C   0  0  1  0  0  0  0  0  0  0  0  0
    1.3514   -0.8319    5.5855 C   0  0  0  0  0  0  0  0  0  0  0  0
    2.5172   -1.7357    5.2043 C   0  0  1  0  0  0  0  0  0  0  0  0
    2.3430   -3.0174    4.4675 C   0  0  1  0  0  0  0  0  0  0  0  0
    2.2092   -2.7218    2.9299 C   0  0  1  0  0  0  0  0  0  0  0  0
    1.1842   -1.5950    2.4824 C   0  0  0  0  0  0  0  0  0  0  0  0
    1.4815   -0.0361    2.5600 C   0  0  1  0  0  0  0  0  0  0  0  0
    2.6045    0.2268    1.7283 O   0  0  0  0  0  0  0  0  0  0  0  0
    2.8230    0.8492    2.9278 C   0  0  1  0  0  0  0  0  0  0  0  0
    2.8053    2.2502    2.8031 O   0  0  0  0  0  0  0  0  0  0  0  0
    3.0876    0.4329    4.3762 C   0  0  2  0  0  0  0  0  0  0  0  0
    3.7138   -0.9944    4.5191 C   0  0  1  0  0  0  0  0  0  0  0  0
    4.7762   -1.5499    5.5046 C   0  0  0  0  0  0  0  0  0  0  0  0
    4.8329   -3.1329    5.2819 C   0  0  0  0  0  0  0  0  0  0  0  0
    3.5251   -3.8521    4.9343 N   0  0  2  0  0  0  0  0  0  0  0  0
    3.7329   -5.1214    4.1996 C   0  0  0  0  0  0  0  0  0  0  0  0
    4.2818   -1.4573    3.1347 C   0  0  0  0  0  0  0  0  0  0  0  0
    3.5504   -2.3766    2.3797 C   0  0  0  0  0  0  0  0  0  0  0  0
    4.0221   -2.9077    1.1610 C   0  0  0  0  0  0  0  0  0  0  0  0
    5.2641   -2.4688    0.6686 C   0  0  0  0  0  0  0  0  0  0  0  0
    5.9867   -1.4839    1.3656 C   0  0  0  0  0  0  0  0  0  0  0  0
    7.1597   -1.0545    0.8162 O   0  0  0  0  0  0  0  0  0  0  0  0
    5.5028   -0.9730    2.5991 C   0  0  0  0  0  0  0  0  0  0  0  0
    6.1996   -0.0126    3.2736 O   0  0  0  0  0  0  0  0  0  0  0  0
   -2.7179    2.6449    3.1142 H   0  0  0  0  0  0  0  0  0  0  0  0
   -3.1231    2.8024    4.9106 H   0  0  0  0  0  0  0  0  0  0  0  0
   -0.8499    2.2457    5.5089 H   0  0  0  0  0  0  0  0  0  0  0  0
   -0.4338    2.0491    2.4547 H   0  0  0  0  0  0  0  0  0  0  0  0
    0.6549    2.8443    3.5571 H   0  0  0  0  0  0  0  0  0  0  0  0
   -0.2129   -0.0064    3.8369 H   0  0  0  0  0  0  0  0  0  0  0  0
    1.4699    1.3224    5.5978 H   0  0  0  0  0  0  0  0  0  0  0  0
    1.3617   -0.6506    6.6632 H   0  0  0  0  0  0  0  0  0  0  0  0
    0.3801   -1.2889    5.3805 H   0  0  0  0  0  0  0  0  0  0  0  0
    2.7059   -2.0730    6.2306 H   0  0  0  0  0  0  0  0  0  0  0  0
    1.4328   -3.5099    4.8031 H   0  0  0  0  0  0  0  0  0  0  0  0
    1.8906   -3.6486    2.4549 H   0  0  0  0  0  0  0  0  0  0  0  0
    1.0370   -1.7658    1.4145 H   0  0  0  0  0  0  0  0  0  0  0  0
    0.2122   -1.8226    2.9145 H   0  0  0  0  0  0  0  0  0  0  0  0
    3.6728    2.5389    2.5407 H   0  0  0  0  0  0  0  0  0  0  0  0
    3.7273    1.1756    4.8571 H   0  0  0  0  0  0  0  0  0  0  0  0
    5.7699   -1.1315    5.3495 H   0  0  0  0  0  0  0  0  0  0  0  0
    4.5667   -1.2906    6.5477 H   0  0  0  0  0  0  0  0  0  0  0  0
    5.5583   -3.3408    4.4937 H   0  0  0  0  0  0  0  0  0  0  0  0
    5.2532   -3.6004    6.1730 H   0  0  0  0  0  0  0  0  0  0  0  0
    4.1620   -4.9522    3.2130 H   0  0  0  0  0  0  0  0  0  0  0  0
    2.7953   -5.6624    4.0802 H   0  0  0  0  0  0  0  0  0  0  0  0
    4.4190   -5.7670    4.7484 H   0  0  0  0  0  0  0  0  0  0  0  0
    3.4404   -3.6262    0.6008 H   0  0  0  0  0  0  0  0  0  0  0  0
    5.6374   -2.8634   -0.2647 H   0  0  0  0  0  0  0  0  0  0  0  0
    7.5526   -0.3008    1.2446 H   0  0  0  0  0  0  0  0  0  0  0  0
    6.9486    0.3288    2.7918 H   0  0  0  0  0  0  0  0  0  0  0  0
    3.2121   -4.1581    5.8429 H   0  0  0  0  0  0  0  0  0  0  0  0
  1  2  2  0
  1 29  1  0
  1 30  1  0
  2  3  1  0
  2 31  1  0
  3  4  1  0
  3 32  1  0
  3 33  1  0
  4 11  1  0
  4  5  1  0
  4 34  1  1
  5 15  1  0
  5  6  1  0
  5 35  1  1
  6  7  1  0
  6 36  1  0
  6 37  1  0
  7 16  1  0
  7  8  1  0
  7 38  1  1
  8 19  1  0
  8  9  1  0
  8 39  1  1
  9 22  1  0
  9 10  1  0
  9 40  1  6
 10 11  1  0
 10 41  1  0
 10 42  1  0
 11 13  1  0
 11 12  1  6
 12 13  1  0
 13 14  1  6
 13 15  1  0
 14 43  1  0
 15 16  1  0
 15 44  1  1
 16 17  1  1
 16 21  1  0
 17 18  1  0
 17 45  1  0
 17 46  1  0
 18 19  1  0
 18 47  1  0
 18 48  1  0
 19 20  1  0
 19 56  1  1
 20 49  1  0
 20 50  1  0
 20 51  1  0
 21 27  1  0
 21 22  2  0
 22 23  1  0
 23 24  2  0
 23 52  1  0
 24 25  1  0
 24 53  1  0
 25 26  1  0
 25 27  2  0
 26 54  1  0
 27 28  1  0
 28 55  1  0
M  CHG  1  19   1
M  END
>  <i_m_ct_stereo_status>  (347) 
1

>  <s_m_source_file>  (347) 
/var/tmp/pbs.5076255.sched01/tmp6w_bron9/120d4r_aq7a.sdf

>  <i_m_source_file_index>  (347) 
13

>  <i_lp_mmshare_version>  (347) 
48012

>  <i_f3d_flags>  (347) 
0

>  <s_epik_input>  (347) 
W0NIMl09W0NIXVtDSDJdW0NAQEhdMVtDQEhdMltDSDJdW0NASF0oW0NAQF0zNFtDQEhdMltDQF0oW0NAXTE1NikoTzYpW09IXSlbQ0BIXShOKFtDSDNdKVtDSDJdW0NIMl0zKVtDQEBIXShbQ0gyXTUpYzdjNGMoW09IXSljKFtPSF0pW2NIXVtjSF03

>  <s_epik_cmdline>  (347) 
J2VwaWtfcHl0aG9uJywgJy1waHQnLCAnMi4wJywgJy1waCcsICc3LjAnLCAnLXRuJywgJzgnLCAnLW1hJywgJzIwMCcsICctaW1hZScsICc8aW5maWxlLm1hZT4nLCAnLW9tYWUnLCAnPG91dGZpbGUubWFlPic=

>  <r_lp_tautomer_probability>  (347) 
1

>  <r_epik_Ionization_Penalty>  (347) 
0.0149058

>  <r_epik_Ionization_Penalty_Charging>  (347) 
0.0125126

>  <r_epik_Ionization_Penalty_Neutral>  (347) 
0.00239324

>  <r_epik_State_Penalty>  (347) 
0.00968972

>  <r_epik_Charging_Adjusted_Penalty>  (347) 
0.0222023

>  <i_epik_Tot_Q>  (347) 
1

>  <i_epik_Tot_abs_Q>  (347) 
1

>  <s_lp_Force_Field>  (347) 
OPLS3e

>  <r_lp_Energy>  (347) 
181.56

>  <b_lp_Chiralities_Consistent>  (347) 
1

>  <s_lp_Variant>  (347) 
89:0-1

>  <s_i_glide_gridfile>  (347) 
pfpi4k_grid

>  <i_i_glide_lignum>  (347) 
13

>  <i_i_glide_rotatable_bonds>  (347) 
5

>  <r_i_docking_score>  (347) 
-3.63325

>  <r_i_glide_ligand_efficiency>  (347) 
-0.129759

>  <r_i_glide_ligand_efficiency_sa>  (347) 
-0.394024

>  <r_i_glide_ligand_efficiency_ln>  (347) 
-0.83866

>  <r_i_glide_gscore>  (347) 
-3.63325

>  <r_i_glide_lipo>  (347) 
-0.379055

>  <r_i_glide_hbond>  (347) 
0

>  <r_i_glide_metal>  (347) 
-0

>  <r_i_glide_rewards>  (347) 
-0.811055

>  <r_i_glide_evdw>  (347) 
-14.6996

>  <r_i_glide_ecoul>  (347) 
-13.1579

>  <r_i_glide_erotb>  (347) 
0.265536

>  <r_i_glide_esite>  (347) 
0

>  <r_i_glide_emodel>  (347) 
-36.9977

>  <r_i_glide_energy>  (347) 
-27.8576

>  <r_i_glide_einternal>  (347) 
0.273424

>  <r_i_glide_intrahb_reward>  (347) 
-0

>  <i_i_glide_confnum>  (347) 
1

>  <i_i_glide_posenum>  (347) 
13

>  <r_i_glide_eff_state_penalty>  (347) 
0

>  <ligand_id>  (347) 
89

>  <original_smiles>  (347) 
C=CCC1C2CC3C4C5CC16OC6(O)C2C3(CCN4C)c1c5ccc(O)c1O

>  <smiles>  (347) 
[H]Oc1c([H])c([H])c2c(c1O[H])C13C([H])([H])C([H])([H])[N+]([H])(C([H])([H])[H])C4([H])C2([H])C([H])([H])C25OC2(O[H])C1([H])C([H])(C([H])([H])C34[H])C5([H])C([H])([H])C([H])=C([H])[H]

$$$$
89:0:1
     RDKit          3D

 56 62  0  0  1  0  0  0  0  0999 V2000
    4.3678   -0.8443    0.1097 C   0  0  0  0  0  0  0  0  0  0  0  0
    4.4073   -2.1852    0.1649 C   0  0  0  0  0  0  0  0  0  0  0  0
    3.2314   -3.0756    0.5407 C   0  0  0  0  0  0  0  0  0  0  0  0
    3.5681   -4.0514    1.7102 C   0  0  2  0  0  0  0  0  0  0  0  0
    4.4492   -5.2775    1.3783 C   0  0  1  0  0  0  0  0  0  0  0  0
    5.4572   -5.4456    2.4939 C   0  0  0  0  0  0  0  0  0  0  0  0
    4.9733   -6.6340    3.3132 C   0  0  1  0  0  0  0  0  0  0  0  0
    4.6291   -6.5330    4.7577 C   0  0  1  0  0  0  0  0  0  0  0  0
    3.1695   -5.9671    4.9129 C   0  0  1  0  0  0  0  0  0  0  0  0
    2.7921   -4.6634    4.0883 C   0  0  0  0  0  0  0  0  0  0  0  0
    2.4350   -4.6633    2.5369 C   0  0  1  0  0  0  0  0  0  0  0  0
    1.2708   -5.4485    2.3726 O   0  0  0  0  0  0  0  0  0  0  0  0
    2.1698   -5.8612    1.4213 C   0  0  1  0  0  0  0  0  0  0  0  0
    1.7172   -5.5651    0.1054 O   0  0  0  0  0  0  0  0  0  0  0  0
    3.5392   -6.5470    1.3969 C   0  0  2  0  0  0  0  0  0  0  0  0
    3.8179   -7.4565    2.6453 C   0  0  1  0  0  0  0  0  0  0  0  0
    4.5558   -8.8177    2.7719 C   0  0  0  0  0  0  0  0  0  0  0  0
    4.6944   -9.1252    4.3354 C   0  0  0  0  0  0  0  0  0  0  0  0
    4.9132   -7.9351    5.2806 N   0  0  2  0  0  0  0  0  0  0  0  0
    4.4603   -8.1981    6.6691 C   0  0  0  0  0  0  0  0  0  0  0  0
    2.4713   -7.7389    3.3933 C   0  0  0  0  0  0  0  0  0  0  0  0
    2.1889   -7.0353    4.5667 C   0  0  0  0  0  0  0  0  0  0  0  0
    1.0439   -7.2913    5.3464 C   0  0  0  0  0  0  0  0  0  0  0  0
    0.1275   -8.2685    4.9158 C   0  0  0  0  0  0  0  0  0  0  0  0
    0.3468   -8.9433    3.7022 C   0  0  0  0  0  0  0  0  0  0  0  0
   -0.5764   -9.8560    3.2756 O   0  0  0  0  0  0  0  0  0  0  0  0
    1.5071   -8.6718    2.9333 C   0  0  0  0  0  0  0  0  0  0  0  0
    1.6760   -9.3035    1.7401 O   0  0  0  0  0  0  0  0  0  0  0  0
    3.4661   -0.2959    0.3436 H   0  0  0  0  0  0  0  0  0  0  0  0
    5.2383   -0.2691   -0.1736 H   0  0  0  0  0  0  0  0  0  0  0  0
    5.3303   -2.6886   -0.0842 H   0  0  0  0  0  0  0  0  0  0  0  0
    2.3864   -2.4373    0.8077 H   0  0  0  0  0  0  0  0  0  0  0  0
    2.9671   -3.5705   -0.3875 H   0  0  0  0  0  0  0  0  0  0  0  0
    4.0980   -3.3708    2.3767 H   0  0  0  0  0  0  0  0  0  0  0  0
    4.9485   -5.1446    0.4183 H   0  0  0  0  0  0  0  0  0  0  0  0
    6.4156   -5.6860    2.0278 H   0  0  0  0  0  0  0  0  0  0  0  0
    5.6512   -4.5620    3.1077 H   0  0  0  0  0  0  0  0  0  0  0  0
    5.9502   -7.1341    3.3337 H   0  0  0  0  0  0  0  0  0  0  0  0
    5.3199   -5.8508    5.2514 H   0  0  0  0  0  0  0  0  0  0  0  0
    3.0339   -5.7344    5.9684 H   0  0  0  0  0  0  0  0  0  0  0  0
    1.8861   -4.2877    4.5662 H   0  0  0  0  0  0  0  0  0  0  0  0
    3.5154   -3.8830    4.3160 H   0  0  0  0  0  0  0  0  0  0  0  0
    2.4304   -5.1781   -0.3851 H   0  0  0  0  0  0  0  0  0  0  0  0
    3.6458   -7.1394    0.4876 H   0  0  0  0  0  0  0  0  0  0  0  0
    4.0272   -9.6410    2.2944 H   0  0  0  0  0  0  0  0  0  0  0  0
    5.5287   -8.8267    2.2698 H   0  0  0  0  0  0  0  0  0  0  0  0
    3.8001   -9.6605    4.6624 H   0  0  0  0  0  0  0  0  0  0  0  0
    5.5105   -9.8338    4.4902 H   0  0  0  0  0  0  0  0  0  0  0  0
    3.3794   -8.3315    6.7229 H   0  0  0  0  0  0  0  0  0  0  0  0
    4.7431   -7.3800    7.3324 H   0  0  0  0  0  0  0  0  0  0  0  0
    4.9222   -9.1103    7.0508 H   0  0  0  0  0  0  0  0  0  0  0  0
    0.8613   -6.7461    6.2607 H   0  0  0  0  0  0  0  0  0  0  0  0
   -0.7545   -8.4796    5.4972 H   0  0  0  0  0  0  0  0  0  0  0  0
   -1.1572  -10.1871    3.9605 H   0  0  0  0  0  0  0  0  0  0  0  0
    0.8838   -9.7521    1.4671 H   0  0  0  0  0  0  0  0  0  0  0  0
    5.9215   -7.9223    5.3632 H   0  0  0  0  0  0  0  0  0  0  0  0
  1  2  2  0
  1 29  1  0
  1 30  1  0
  2  3  1  0
  2 31  1  0
  3  4  1  0
  3 32  1  0
  3 33  1  0
  4 11  1  0
  4  5  1  0
  4 34  1  1
  5 15  1  0
  5  6  1  0
  5 35  1  6
  6  7  1  0
  6 36  1  0
  6 37  1  0
  7 16  1  0
  7  8  1  0
  7 38  1  1
  8 19  1  0
  8  9  1  0
  8 39  1  1
  9 22  1  0
  9 10  1  0
  9 40  1  1
 10 11  1  0
 10 41  1  0
 10 42  1  0
 11 13  1  0
 11 12  1  1
 12 13  1  0
 13 14  1  6
 13 15  1  0
 14 43  1  0
 15 16  1  0
 15 44  1  6
 16 17  1  6
 16 21  1  0
 17 18  1  0
 17 45  1  0
 17 46  1  0
 18 19  1  0
 18 47  1  0
 18 48  1  0
 19 20  1  0
 19 56  1  1
 20 49  1  0
 20 50  1  0
 20 51  1  0
 21 27  1  0
 21 22  2  0
 22 23  1  0
 23 24  2  0
 23 52  1  0
 24 25  1  0
 24 53  1  0
 25 26  1  0
 25 27  2  0
 26 54  1  0
 27 28  1  0
 28 55  1  0
M  CHG  1  19   1
M  END
>  <i_m_ct_stereo_status>  (348) 
1

>  <s_m_source_file>  (348) 
/var/tmp/pbs.5076255.sched01/tmp6w_bron9/120d4r_aq7a.sdf

>  <i_m_source_file_index>  (348) 
13

>  <i_lp_mmshare_version>  (348) 
48012

>  <i_f3d_flags>  (348) 
0

>  <s_epik_input>  (348) 
W0NIMl09W0NIXVtDSDJdW0NAQEhdMVtDQEhdMltDSDJdW0NASF0oW0NAQF0zNFtDQEhdMltDQF0oW0NAXTE1NikoTzYpW09IXSlbQ0BIXShOKFtDSDNdKVtDSDJdW0NIMl0zKVtDQEBIXShbQ0gyXTUpYzdjNGMoW09IXSljKFtPSF0pW2NIXVtjSF03

>  <s_epik_cmdline>  (348) 
J2VwaWtfcHl0aG9uJywgJy1waHQnLCAnMi4wJywgJy1waCcsICc3LjAnLCAnLXRuJywgJzgnLCAnLW1hJywgJzIwMCcsICctaW1hZScsICc8aW5maWxlLm1hZT4nLCAnLW9tYWUnLCAnPG91dGZpbGUubWFlPic=

>  <r_lp_tautomer_probability>  (348) 
1

>  <r_epik_Ionization_Penalty>  (348) 
0.0149058

>  <r_epik_Ionization_Penalty_Charging>  (348) 
0.0125126

>  <r_epik_Ionization_Penalty_Neutral>  (348) 
0.00239324

>  <r_epik_State_Penalty>  (348) 
0.00968972

>  <r_epik_Charging_Adjusted_Penalty>  (348) 
0.0222023

>  <i_epik_Tot_Q>  (348) 
1

>  <i_epik_Tot_abs_Q>  (348) 
1

>  <s_lp_Force_Field>  (348) 
OPLS3e

>  <r_lp_Energy>  (348) 
181.56

>  <b_lp_Chiralities_Consistent>  (348) 
1

>  <s_lp_Variant>  (348) 
89:0-1

>  <s_i_glide_gridfile>  (348) 
pfpi4k_grid

>  <i_i_glide_lignum>  (348) 
13

>  <i_i_glide_rotatable_bonds>  (348) 
5

>  <r_i_docking_score>  (348) 
-3.09274

>  <r_i_glide_ligand_efficiency>  (348) 
-0.110455

>  <r_i_glide_ligand_efficiency_sa>  (348) 
-0.335407

>  <r_i_glide_ligand_efficiency_ln>  (348) 
-0.713896

>  <r_i_glide_gscore>  (348) 
-3.09274

>  <r_i_glide_lipo>  (348) 
-0.117028

>  <r_i_glide_hbond>  (348) 
-0.0293936

>  <r_i_glide_metal>  (348) 
-0

>  <r_i_glide_rewards>  (348) 
-0.801322

>  <r_i_glide_evdw>  (348) 
-16.0367

>  <r_i_glide_ecoul>  (348) 
-10.5247

>  <r_i_glide_erotb>  (348) 
0.265536

>  <r_i_glide_esite>  (348) 
-0.0299938

>  <r_i_glide_emodel>  (348) 
-33.1495

>  <r_i_glide_energy>  (348) 
-26.5614

>  <r_i_glide_einternal>  (348) 
1.90656

>  <r_i_glide_intrahb_reward>  (348) 
-0

>  <i_i_glide_confnum>  (348) 
4

>  <i_i_glide_posenum>  (348) 
15

>  <r_i_glide_eff_state_penalty>  (348) 
0

>  <ligand_id>  (348) 
89

>  <original_smiles>  (348) 
C=CCC1C2CC3C4C5CC16OC6(O)C2C3(CCN4C)c1c5ccc(O)c1O

>  <smiles>  (348) 
[H]Oc1c([H])c([H])c2c(c1O[H])C13C([H])([H])C([H])([H])[N+]([H])(C([H])([H])[H])C4([H])C2([H])C([H])([H])C25OC2(O[H])C1([H])C([H])(C([H])([H])C34[H])C5([H])C([H])([H])C([H])=C([H])[H]

$$$$
89:0:2
     RDKit          3D

 56 62  0  0  1  0  0  0  0  0999 V2000
    7.2564   -3.5679    7.2580 C   0  0  0  0  0  0  0  0  0  0  0  0
    6.8059   -4.5615    6.4737 C   0  0  0  0  0  0  0  0  0  0  0  0
    5.5824   -4.4774    5.5711 C   0  0  0  0  0  0  0  0  0  0  0  0
    4.5206   -5.5775    5.8850 C   0  0  2  0  0  0  0  0  0  0  0  0
    4.8814   -7.0341    5.5104 C   0  0  1  0  0  0  0  0  0  0  0  0
    4.4518   -7.9332    6.6490 C   0  0  0  0  0  0  0  0  0  0  0  0
    3.1956   -8.6430    6.1634 C   0  0  1  0  0  0  0  0  0  0  0  0
    1.8836   -8.5320    6.8579 C   0  0  1  0  0  0  0  0  0  0  0  0
    1.1806   -7.1937    6.4170 C   0  0  1  0  0  0  0  0  0  0  0  0
    2.0276   -5.8487    6.4670 C   0  0  0  0  0  0  0  0  0  0  0  0
    3.0856   -5.4321    5.3592 C   0  0  1  0  0  0  0  0  0  0  0  0
    2.3772   -5.3080    4.1337 O   0  0  0  0  0  0  0  0  0  0  0  0
    3.4992   -6.0545    3.8899 C   0  0  1  0  0  0  0  0  0  0  0  0
    4.4115   -5.3796    3.0469 O   0  0  0  0  0  0  0  0  0  0  0  0
    4.0262   -7.4397    4.2692 C   0  0  2  0  0  0  0  0  0  0  0  0
    2.9025   -8.4703    4.6333 C   0  0  1  0  0  0  0  0  0  0  0  0
    2.7784   -9.9948    4.3601 C   0  0  0  0  0  0  0  0  0  0  0  0
    1.4955  -10.5064    5.1675 C   0  0  0  0  0  0  0  0  0  0  0  0
    1.1933   -9.8505    6.5205 N   0  0  2  0  0  0  0  0  0  0  0  0
   -0.2356   -9.9213    6.9026 C   0  0  0  0  0  0  0  0  0  0  0  0
    1.5296   -7.9387    4.1181 C   0  0  0  0  0  0  0  0  0  0  0  0
    0.6466   -7.3573    5.0343 C   0  0  0  0  0  0  0  0  0  0  0  0
   -0.6443   -6.9274    4.6719 C   0  0  0  0  0  0  0  0  0  0  0  0
   -1.0552   -7.0585    3.3393 C   0  0  0  0  0  0  0  0  0  0  0  0
   -0.1555   -7.5493    2.3842 C   0  0  0  0  0  0  0  0  0  0  0  0
   -0.5520   -7.5760    1.0840 O   0  0  0  0  0  0  0  0  0  0  0  0
    1.1312   -7.9920    2.7527 C   0  0  0  0  0  0  0  0  0  0  0  0
    1.9786   -8.4397    1.7777 O   0  0  0  0  0  0  0  0  0  0  0  0
    6.7547   -2.6119    7.3067 H   0  0  0  0  0  0  0  0  0  0  0  0
    8.1403   -3.6999    7.8664 H   0  0  0  0  0  0  0  0  0  0  0  0
    7.3492   -5.4957    6.4627 H   0  0  0  0  0  0  0  0  0  0  0  0
    5.1383   -3.4869    5.6813 H   0  0  0  0  0  0  0  0  0  0  0  0
    5.9865   -4.5257    4.5669 H   0  0  0  0  0  0  0  0  0  0  0  0
    4.4655   -5.4706    6.9666 H   0  0  0  0  0  0  0  0  0  0  0  0
    5.9505   -7.1300    5.3227 H   0  0  0  0  0  0  0  0  0  0  0  0
    5.2508   -8.6630    6.8035 H   0  0  0  0  0  0  0  0  0  0  0  0
    4.3151   -7.4508    7.6201 H   0  0  0  0  0  0  0  0  0  0  0  0
    3.5342   -9.6414    6.4633 H   0  0  0  0  0  0  0  0  0  0  0  0
    2.0408   -8.4970    7.9367 H   0  0  0  0  0  0  0  0  0  0  0  0
    0.3240   -7.0508    7.0766 H   0  0  0  0  0  0  0  0  0  0  0  0
    1.2874   -5.0454    6.4253 H   0  0  0  0  0  0  0  0  0  0  0  0
    2.4486   -5.7298    7.4631 H   0  0  0  0  0  0  0  0  0  0  0  0
    4.3280   -5.7277    2.1735 H   0  0  0  0  0  0  0  0  0  0  0  0
    4.6501   -7.8379    3.4672 H   0  0  0  0  0  0  0  0  0  0  0  0
    2.6497  -10.2382    3.3083 H   0  0  0  0  0  0  0  0  0  0  0  0
    3.6803  -10.5486    4.6384 H   0  0  0  0  0  0  0  0  0  0  0  0
    0.6127  -10.3892    4.5340 H   0  0  0  0  0  0  0  0  0  0  0  0
    1.5842  -11.5840    5.3193 H   0  0  0  0  0  0  0  0  0  0  0  0
   -0.8670   -9.3501    6.2247 H   0  0  0  0  0  0  0  0  0  0  0  0
   -0.3755   -9.5456    7.9155 H   0  0  0  0  0  0  0  0  0  0  0  0
   -0.5783  -10.9566    6.8801 H   0  0  0  0  0  0  0  0  0  0  0  0
   -1.3162   -6.4904    5.3938 H   0  0  0  0  0  0  0  0  0  0  0  0
   -2.0430   -6.7490    3.0412 H   0  0  0  0  0  0  0  0  0  0  0  0
   -0.1760   -8.3278    0.6271 H   0  0  0  0  0  0  0  0  0  0  0  0
    2.7606   -8.8426    2.1173 H   0  0  0  0  0  0  0  0  0  0  0  0
    1.6139  -10.5259    7.1569 H   0  0  0  0  0  0  0  0  0  0  0  0
  1  2  2  0
  1 29  1  0
  1 30  1  0
  2  3  1  0
  2 31  1  0
  3  4  1  0
  3 32  1  0
  3 33  1  0
  4 11  1  0
  4  5  1  0
  4 34  1  1
  5 15  1  0
  5  6  1  0
  5 35  1  6
  6  7  1  0
  6 36  1  0
  6 37  1  0
  7 16  1  0
  7  8  1  0
  7 38  1  6
  8 19  1  0
  8  9  1  0
  8 39  1  1
  9 22  1  0
  9 10  1  0
  9 40  1  1
 10 11  1  0
 10 41  1  0
 10 42  1  0
 11 13  1  0
 11 12  1  6
 12 13  1  0
 13 14  1  6
 13 15  1  0
 14 43  1  0
 15 16  1  0
 15 44  1  6
 16 17  1  6
 16 21  1  0
 17 18  1  0
 17 45  1  0
 17 46  1  0
 18 19  1  0
 18 47  1  0
 18 48  1  0
 19 20  1  0
 19 56  1  1
 20 49  1  0
 20 50  1  0
 20 51  1  0
 21 27  1  0
 21 22  2  0
 22 23  1  0
 23 24  2  0
 23 52  1  0
 24 25  1  0
 24 53  1  0
 25 26  1  0
 25 27  2  0
 26 54  1  0
 27 28  1  0
 28 55  1  0
M  CHG  1  19   1
M  END
>  <i_m_ct_stereo_status>  (349) 
1

>  <s_m_source_file>  (349) 
/var/tmp/pbs.5076255.sched01/tmp6w_bron9/120d4r_aq7a.sdf

>  <i_m_source_file_index>  (349) 
13

>  <i_lp_mmshare_version>  (349) 
48012

>  <i_f3d_flags>  (349) 
0

>  <s_epik_input>  (349) 
W0NIMl09W0NIXVtDSDJdW0NAQEhdMVtDQEhdMltDSDJdW0NASF0oW0NAQF0zNFtDQEhdMltDQF0oW0NAXTE1NikoTzYpW09IXSlbQ0BIXShOKFtDSDNdKVtDSDJdW0NIMl0zKVtDQEBIXShbQ0gyXTUpYzdjNGMoW09IXSljKFtPSF0pW2NIXVtjSF03

>  <s_epik_cmdline>  (349) 
J2VwaWtfcHl0aG9uJywgJy1waHQnLCAnMi4wJywgJy1waCcsICc3LjAnLCAnLXRuJywgJzgnLCAnLW1hJywgJzIwMCcsICctaW1hZScsICc8aW5maWxlLm1hZT4nLCAnLW9tYWUnLCAnPG91dGZpbGUubWFlPic=

>  <r_lp_tautomer_probability>  (349) 
1

>  <r_epik_Ionization_Penalty>  (349) 
0.0149058

>  <r_epik_Ionization_Penalty_Charging>  (349) 
0.0125126

>  <r_epik_Ionization_Penalty_Neutral>  (349) 
0.00239324

>  <r_epik_State_Penalty>  (349) 
0.00968972

>  <r_epik_Charging_Adjusted_Penalty>  (349) 
0.0222023

>  <i_epik_Tot_Q>  (349) 
1

>  <i_epik_Tot_abs_Q>  (349) 
1

>  <s_lp_Force_Field>  (349) 
OPLS3e

>  <r_lp_Energy>  (349) 
181.56

>  <b_lp_Chiralities_Consistent>  (349) 
1

>  <s_lp_Variant>  (349) 
89:0-1

>  <s_i_glide_gridfile>  (349) 
pfpi4k_grid

>  <i_i_glide_lignum>  (349) 
13

>  <i_i_glide_rotatable_bonds>  (349) 
5

>  <r_i_docking_score>  (349) 
-2.87875

>  <r_i_glide_ligand_efficiency>  (349) 
-0.102812

>  <r_i_glide_ligand_efficiency_sa>  (349) 
-0.312199

>  <r_i_glide_ligand_efficiency_ln>  (349) 
-0.664499

>  <r_i_glide_gscore>  (349) 
-2.87875

>  <r_i_glide_lipo>  (349) 
-0.0496592

>  <r_i_glide_hbond>  (349) 
-0.146346

>  <r_i_glide_metal>  (349) 
-0

>  <r_i_glide_rewards>  (349) 
-0.801322

>  <r_i_glide_evdw>  (349) 
-15.157

>  <r_i_glide_ecoul>  (349) 
-8.59401

>  <r_i_glide_erotb>  (349) 
0.265536

>  <r_i_glide_esite>  (349) 
-0.1

>  <r_i_glide_emodel>  (349) 
-29.8241

>  <r_i_glide_energy>  (349) 
-23.751

>  <r_i_glide_einternal>  (349) 
1.24823

>  <r_i_glide_intrahb_reward>  (349) 
-0

>  <i_i_glide_confnum>  (349) 
4

>  <i_i_glide_posenum>  (349) 
1

>  <r_i_glide_eff_state_penalty>  (349) 
0

>  <ligand_id>  (349) 
89

>  <original_smiles>  (349) 
C=CCC1C2CC3C4C5CC16OC6(O)C2C3(CCN4C)c1c5ccc(O)c1O

>  <smiles>  (349) 
[H]Oc1c([H])c([H])c2c(c1O[H])C13C([H])([H])C([H])([H])[N+]([H])(C([H])([H])[H])C4([H])C2([H])C([H])([H])C25OC2(O[H])C1([H])C([H])(C([H])([H])C34[H])C5([H])C([H])([H])C([H])=C([H])[H]

$$$$
89:1:0
     RDKit          3D

 55 61  0  0  1  0  0  0  0  0999 V2000
   -2.4522    2.6507    3.9113 C   0  0  0  0  0  0  0  0  0  0  0  0
   -1.2069    2.3069    4.2813 C   0  0  0  0  0  0  0  0  0  0  0  0
   -0.0687    2.0016    3.3162 C   0  0  0  0  0  0  0  0  0  0  0  0
    0.6157    0.6249    3.5971 C   0  0  2  0  0  0  0  0  0  0  0  0
    1.5421    0.5351    4.8355 C   0  0  1  0  0  0  0  0  0  0  0  0
    1.2829   -0.7932    5.5163 C   0  0  0  0  0  0  0  0  0  0  0  0
    2.4891   -1.6678    5.2175 C   0  0  1  0  0  0  0  0  0  0  0  0
    2.3509   -2.9759    4.5159 C   0  0  1  0  0  0  0  0  0  0  0  0
    2.2273   -2.7031    2.9710 C   0  0  1  0  0  0  0  0  0  0  0  0
    1.1804   -1.6151    2.4802 C   0  0  0  0  0  0  0  0  0  0  0  0
    1.4599   -0.0523    2.5031 C   0  0  1  0  0  0  0  0  0  0  0  0
    2.5757    0.2192    1.6672 O   0  0  0  0  0  0  0  0  0  0  0  0
    2.8079    0.8485    2.8603 C   0  0  1  0  0  0  0  0  0  0  0  0
    2.7560    2.2342    2.6855 O   0  0  0  0  0  0  0  0  0  0  0  0
    3.0220    0.4875    4.3361 C   0  0  2  0  0  0  0  0  0  0  0  0
    3.6737   -0.9130    4.5319 C   0  0  1  0  0  0  0  0  0  0  0  0
    4.7277   -1.3810    5.5596 C   0  0  0  0  0  0  0  0  0  0  0  0
    4.7277   -2.9801    5.5991 C   0  0  0  0  0  0  0  0  0  0  0  0
    3.6044   -3.7083    4.8911 N   0  0  0  0  0  0  0  0  0  0  0  0
    3.3728   -5.0244    5.4745 C   0  0  0  0  0  0  0  0  0  0  0  0
    4.2901   -1.4112    3.1752 C   0  0  0  0  0  0  0  0  0  0  0  0
    3.5735   -2.3591    2.4295 C   0  0  0  0  0  0  0  0  0  0  0  0
    4.0748   -2.9180    1.2347 C   0  0  0  0  0  0  0  0  0  0  0  0
    5.3234   -2.4908    0.7502 C   0  0  0  0  0  0  0  0  0  0  0  0
    6.0235   -1.4827    1.4288 C   0  0  0  0  0  0  0  0  0  0  0  0
    7.2039   -1.0535    0.8776 O   0  0  0  0  0  0  0  0  0  0  0  0
    5.5170   -0.9343    2.6349 C   0  0  0  0  0  0  0  0  0  0  0  0
    6.1846    0.0618    3.2776 O   0  0  0  0  0  0  0  0  0  0  0  0
   -2.7307    2.7241    2.8694 H   0  0  0  0  0  0  0  0  0  0  0  0
   -3.2178    2.8688    4.6438 H   0  0  0  0  0  0  0  0  0  0  0  0
   -0.9781    2.2529    5.3362 H   0  0  0  0  0  0  0  0  0  0  0  0
   -0.4574    2.0319    2.2948 H   0  0  0  0  0  0  0  0  0  0  0  0
    0.5897    2.8604    3.4160 H   0  0  0  0  0  0  0  0  0  0  0  0
   -0.2718    0.0102    3.7363 H   0  0  0  0  0  0  0  0  0  0  0  0
    1.3636    1.3679    5.5170 H   0  0  0  0  0  0  0  0  0  0  0  0
    1.2136   -0.6030    6.5894 H   0  0  0  0  0  0  0  0  0  0  0  0
    0.3445   -1.2866    5.2525 H   0  0  0  0  0  0  0  0  0  0  0  0
    2.6606   -1.9488    6.2620 H   0  0  0  0  0  0  0  0  0  0  0  0
    1.4664   -3.5015    4.8814 H   0  0  0  0  0  0  0  0  0  0  0  0
    1.9400   -3.6516    2.5157 H   0  0  0  0  0  0  0  0  0  0  0  0
    1.0417   -1.8266    1.4229 H   0  0  0  0  0  0  0  0  0  0  0  0
    0.2125   -1.8391    2.9184 H   0  0  0  0  0  0  0  0  0  0  0  0
    3.6320    2.5471    2.4686 H   0  0  0  0  0  0  0  0  0  0  0  0
    3.6320    1.2711    4.8006 H   0  0  0  0  0  0  0  0  0  0  0  0
    5.7367   -1.0118    5.3786 H   0  0  0  0  0  0  0  0  0  0  0  0
    4.5094   -0.9934    6.5550 H   0  0  0  0  0  0  0  0  0  0  0  0
    5.6549   -3.3418    5.1549 H   0  0  0  0  0  0  0  0  0  0  0  0
    4.7767   -3.2945    6.6465 H   0  0  0  0  0  0  0  0  0  0  0  0
    4.3064   -5.5847    5.5513 H   0  0  0  0  0  0  0  0  0  0  0  0
    2.6939   -5.6086    4.8547 H   0  0  0  0  0  0  0  0  0  0  0  0
    2.9460   -4.9588    6.4761 H   0  0  0  0  0  0  0  0  0  0  0  0
    3.5095   -3.6651    0.6848 H   0  0  0  0  0  0  0  0  0  0  0  0
    5.7190   -2.9075   -0.1683 H   0  0  0  0  0  0  0  0  0  0  0  0
    7.5285   -0.2244    1.2180 H   0  0  0  0  0  0  0  0  0  0  0  0
    6.9838    0.3468    2.8385 H   0  0  0  0  0  0  0  0  0  0  0  0
  1  2  2  0
  1 29  1  0
  1 30  1  0
  2  3  1  0
  2 31  1  0
  3  4  1  0
  3 32  1  0
  3 33  1  0
  4 11  1  0
  4  5  1  0
  4 34  1  1
  5 15  1  0
  5  6  1  0
  5 35  1  1
  6  7  1  0
  6 36  1  0
  6 37  1  0
  7 16  1  0
  7  8  1  0
  7 38  1  1
  8 19  1  0
  8  9  1  0
  8 39  1  1
  9 22  1  0
  9 10  1  0
  9 40  1  6
 10 11  1  0
 10 41  1  0
 10 42  1  0
 11 13  1  0
 11 12  1  6
 12 13  1  0
 13 14  1  6
 13 15  1  0
 14 43  1  0
 15 16  1  0
 15 44  1  1
 16 17  1  1
 16 21  1  0
 17 18  1  0
 17 45  1  0
 17 46  1  0
 18 19  1  0
 18 47  1  0
 18 48  1  0
 19 20  1  0
 20 49  1  0
 20 50  1  0
 20 51  1  0
 21 27  1  0
 21 22  2  0
 22 23  1  0
 23 24  2  0
 23 52  1  0
 24 25  1  0
 24 53  1  0
 25 26  1  0
 25 27  2  0
 26 54  1  0
 27 28  1  0
 28 55  1  0
M  END
>  <i_m_ct_stereo_status>  (350) 
1

>  <s_m_source_file>  (350) 
/var/tmp/pbs.5076255.sched01/tmp6w_bron9/120d4r_aq7a.sdf

>  <i_m_source_file_index>  (350) 
14

>  <i_lp_mmshare_version>  (350) 
48012

>  <i_f3d_flags>  (350) 
0

>  <s_epik_input>  (350) 
W0NIMl09W0NIXVtDSDJdW0NAQEhdMVtDQEhdMltDSDJdW0NASF0oW0NAQF0zNFtDQEhdMltDQF0oW0NAXTE1NikoTzYpW09IXSlbQ0BIXShOKFtDSDNdKVtDSDJdW0NIMl0zKVtDQEBIXShbQ0gyXTUpYzdjNGMoW09IXSljKFtPSF0pW2NIXVtjSF03

>  <s_epik_cmdline>  (350) 
J2VwaWtfcHl0aG9uJywgJy1waHQnLCAnMi4wJywgJy1waCcsICc3LjAnLCAnLXRuJywgJzgnLCAnLW1hJywgJzIwMCcsICctaW1hZScsICc8aW5maWxlLm1hZT4nLCAnLW9tYWUnLCAnPG91dGZpbGUubWFlPic=

>  <r_lp_tautomer_probability>  (350) 
1

>  <r_epik_Ionization_Penalty>  (350) 
2.29204

>  <r_epik_Ionization_Penalty_Charging>  (350) 
0

>  <r_epik_Ionization_Penalty_Neutral>  (350) 
2.29204

>  <r_epik_State_Penalty>  (350) 
2.44189

>  <r_epik_Charging_Adjusted_Penalty>  (350) 
2.44189

>  <i_epik_Tot_Q>  (350) 
0

>  <i_epik_Tot_abs_Q>  (350) 
0

>  <s_lp_Force_Field>  (350) 
OPLS3e

>  <r_lp_Energy>  (350) 
171.85

>  <b_lp_Chiralities_Consistent>  (350) 
1

>  <s_lp_Variant>  (350) 
89:0-2

>  <s_i_glide_gridfile>  (350) 
pfpi4k_grid

>  <i_i_glide_lignum>  (350) 
14

>  <i_i_glide_rotatable_bonds>  (350) 
5

>  <r_i_docking_score>  (350) 
-3.49462

>  <r_i_glide_ligand_efficiency>  (350) 
-0.124808

>  <r_i_glide_ligand_efficiency_sa>  (350) 
-0.37899

>  <r_i_glide_ligand_efficiency_ln>  (350) 
-0.806661

>  <r_i_glide_gscore>  (350) 
-3.49462

>  <r_i_glide_lipo>  (350) 
-0.381931

>  <r_i_glide_hbond>  (350) 
0

>  <r_i_glide_metal>  (350) 
-0

>  <r_i_glide_rewards>  (350) 
-0.82219

>  <r_i_glide_evdw>  (350) 
-14.6426

>  <r_i_glide_ecoul>  (350) 
-12.1678

>  <r_i_glide_erotb>  (350) 
0.266795

>  <r_i_glide_esite>  (350) 
0

>  <r_i_glide_emodel>  (350) 
-33.1231

>  <r_i_glide_energy>  (350) 
-26.8103

>  <r_i_glide_einternal>  (350) 
0.422447

>  <r_i_glide_intrahb_reward>  (350) 
-0

>  <i_i_glide_confnum>  (350) 
3

>  <i_i_glide_posenum>  (350) 
13

>  <r_i_glide_eff_state_penalty>  (350) 
0

>  <ligand_id>  (350) 
89

>  <original_smiles>  (350) 
C=CCC1C2CC3C4C5CC16OC6(O)C2C3(CCN4C)c1c5ccc(O)c1O

>  <smiles>  (350) 
[H]Oc1c([H])c([H])c2c(c1O[H])C13C([H])([H])C([H])([H])N(C([H])([H])[H])C4([H])C2([H])C([H])([H])C25OC2(O[H])C1([H])C([H])(C([H])([H])C43[H])C5([H])C([H])([H])C([H])=C([H])[H]

$$$$
89:1:1
     RDKit          3D

 55 61  0  0  1  0  0  0  0  0999 V2000
   -2.1188    3.7373    4.9334 C   0  0  0  0  0  0  0  0  0  0  0  0
   -0.8341    3.4850    5.2330 C   0  0  0  0  0  0  0  0  0  0  0  0
    0.2506    3.1728    4.2080 C   0  0  0  0  0  0  0  0  0  0  0  0
    0.6595    1.6672    4.2133 C   0  0  2  0  0  0  0  0  0  0  0  0
    1.6198    1.1969    5.3350 C   0  0  1  0  0  0  0  0  0  0  0  0
    1.1378   -0.1557    5.8210 C   0  0  0  0  0  0  0  0  0  0  0  0
    2.1281   -1.1766    5.2830 C   0  0  1  0  0  0  0  0  0  0  0  0
    1.6882   -2.2926    4.4010 C   0  0  1  0  0  0  0  0  0  0  0  0
    1.5353   -1.7436    2.9361 C   0  0  1  0  0  0  0  0  0  0  0  0
    0.6960   -0.4094    2.7122 C   0  0  0  0  0  0  0  0  0  0  0  0
    1.2724    1.0449    2.9519 C   0  0  1  0  0  0  0  0  0  0  0  0
    2.3707    1.2314    2.0739 O   0  0  0  0  0  0  0  0  0  0  0  0
    2.7901    1.5977    3.3251 C   0  0  1  0  0  0  0  0  0  0  0  0
    3.0159    2.9957    3.3563 O   0  0  0  0  0  0  0  0  0  0  0  0
    3.0258    0.9630    4.6971 C   0  0  2  0  0  0  0  0  0  0  0  0
    3.3974   -0.5500    4.6157 C   0  0  1  0  0  0  0  0  0  0  0  0
    4.3936   -1.3770    5.4648 C   0  0  0  0  0  0  0  0  0  0  0  0
    4.0770   -2.9285    5.2509 C   0  0  0  0  0  0  0  0  0  0  0  0
    2.7897   -3.2998    4.5449 N   0  0  0  0  0  0  0  0  0  0  0  0
    2.3353   -4.6331    4.9267 C   0  0  0  0  0  0  0  0  0  0  0  0
    3.8239   -0.9159    3.1547 C   0  0  0  0  0  0  0  0  0  0  0  0
    2.8900   -1.5722    2.3366 C   0  0  0  0  0  0  0  0  0  0  0  0
    3.1980   -2.0016    1.0344 C   0  0  0  0  0  0  0  0  0  0  0  0
    4.4774   -1.7385    0.5084 C   0  0  0  0  0  0  0  0  0  0  0  0
    5.4151   -1.0087    1.2709 C   0  0  0  0  0  0  0  0  0  0  0  0
    6.6160   -0.7063    0.6823 O   0  0  0  0  0  0  0  0  0  0  0  0
    5.0966   -0.6018    2.5884 C   0  0  0  0  0  0  0  0  0  0  0  0
    5.9995    0.1332    3.3078 O   0  0  0  0  0  0  0  0  0  0  0  0
   -2.4684    3.7264    3.9103 H   0  0  0  0  0  0  0  0  0  0  0  0
   -2.8402    3.9470    5.7110 H   0  0  0  0  0  0  0  0  0  0  0  0
   -0.5281    3.5003    6.2698 H   0  0  0  0  0  0  0  0  0  0  0  0
   -0.1131    3.4563    3.2192 H   0  0  0  0  0  0  0  0  0  0  0  0
    1.0635    3.8520    4.4483 H   0  0  0  0  0  0  0  0  0  0  0  0
   -0.3161    1.2132    4.3342 H   0  0  0  0  0  0  0  0  0  0  0  0
    1.6420    1.9188    6.1518 H   0  0  0  0  0  0  0  0  0  0  0  0
    1.1691   -0.1450    6.9135 H   0  0  0  0  0  0  0  0  0  0  0  0
    0.1067   -0.4135    5.5686 H   0  0  0  0  0  0  0  0  0  0  0  0
    2.2940   -1.6588    6.2503 H   0  0  0  0  0  0  0  0  0  0  0  0
    0.7402   -2.7016    4.7538 H   0  0  0  0  0  0  0  0  0  0  0  0
    1.0383   -2.5307    2.3713 H   0  0  0  0  0  0  0  0  0  0  0  0
    0.4574   -0.4015    1.6510 H   0  0  0  0  0  0  0  0  0  0  0  0
   -0.2661   -0.5192    3.1923 H   0  0  0  0  0  0  0  0  0  0  0  0
    3.8826    3.1329    2.9433 H   0  0  0  0  0  0  0  0  0  0  0  0
    3.8015    1.5223    5.2258 H   0  0  0  0  0  0  0  0  0  0  0  0
    5.4416   -1.1773    5.2499 H   0  0  0  0  0  0  0  0  0  0  0  0
    4.3137   -1.1285    6.5274 H   0  0  0  0  0  0  0  0  0  0  0  0
    4.8859   -3.3763    4.6672 H   0  0  0  0  0  0  0  0  0  0  0  0
    4.1167   -3.4272    6.2232 H   0  0  0  0  0  0  0  0  0  0  0  0
    3.1454   -5.3596    4.8318 H   0  0  0  0  0  0  0  0  0  0  0  0
    1.5173   -4.9654    4.2847 H   0  0  0  0  0  0  0  0  0  0  0  0
    1.9902   -4.6539    5.9623 H   0  0  0  0  0  0  0  0  0  0  0  0
    2.4666   -2.5135    0.4227 H   0  0  0  0  0  0  0  0  0  0  0  0
    4.7265   -2.0500   -0.4931 H   0  0  0  0  0  0  0  0  0  0  0  0
    7.1619   -0.0921    1.1610 H   0  0  0  0  0  0  0  0  0  0  0  0
    6.8311    0.2787    2.8823 H   0  0  0  0  0  0  0  0  0  0  0  0
  1  2  2  0
  1 29  1  0
  1 30  1  0
  2  3  1  0
  2 31  1  0
  3  4  1  0
  3 32  1  0
  3 33  1  0
  4 11  1  0
  4  5  1  0
  4 34  1  1
  5 15  1  0
  5  6  1  0
  5 35  1  1
  6  7  1  0
  6 36  1  0
  6 37  1  0
  7 16  1  0
  7  8  1  0
  7 38  1  1
  8 19  1  0
  8  9  1  0
  8 39  1  1
  9 22  1  0
  9 10  1  0
  9 40  1  6
 10 11  1  0
 10 41  1  0
 10 42  1  0
 11 13  1  0
 11 12  1  6
 12 13  1  0
 13 14  1  6
 13 15  1  0
 14 43  1  0
 15 16  1  0
 15 44  1  1
 16 17  1  1
 16 21  1  0
 17 18  1  0
 17 45  1  0
 17 46  1  0
 18 19  1  0
 18 47  1  0
 18 48  1  0
 19 20  1  0
 20 49  1  0
 20 50  1  0
 20 51  1  0
 21 27  1  0
 21 22  2  0
 22 23  1  0
 23 24  2  0
 23 52  1  0
 24 25  1  0
 24 53  1  0
 25 26  1  0
 25 27  2  0
 26 54  1  0
 27 28  1  0
 28 55  1  0
M  END
>  <i_m_ct_stereo_status>  (351) 
1

>  <s_m_source_file>  (351) 
/var/tmp/pbs.5076255.sched01/tmp6w_bron9/120d4r_aq7a.sdf

>  <i_m_source_file_index>  (351) 
14

>  <i_lp_mmshare_version>  (351) 
48012

>  <i_f3d_flags>  (351) 
0

>  <s_epik_input>  (351) 
W0NIMl09W0NIXVtDSDJdW0NAQEhdMVtDQEhdMltDSDJdW0NASF0oW0NAQF0zNFtDQEhdMltDQF0oW0NAXTE1NikoTzYpW09IXSlbQ0BIXShOKFtDSDNdKVtDSDJdW0NIMl0zKVtDQEBIXShbQ0gyXTUpYzdjNGMoW09IXSljKFtPSF0pW2NIXVtjSF03

>  <s_epik_cmdline>  (351) 
J2VwaWtfcHl0aG9uJywgJy1waHQnLCAnMi4wJywgJy1waCcsICc3LjAnLCAnLXRuJywgJzgnLCAnLW1hJywgJzIwMCcsICctaW1hZScsICc8aW5maWxlLm1hZT4nLCAnLW9tYWUnLCAnPG91dGZpbGUubWFlPic=

>  <r_lp_tautomer_probability>  (351) 
1

>  <r_epik_Ionization_Penalty>  (351) 
2.29204

>  <r_epik_Ionization_Penalty_Charging>  (351) 
0

>  <r_epik_Ionization_Penalty_Neutral>  (351) 
2.29204

>  <r_epik_State_Penalty>  (351) 
2.44189

>  <r_epik_Charging_Adjusted_Penalty>  (351) 
2.44189

>  <i_epik_Tot_Q>  (351) 
0

>  <i_epik_Tot_abs_Q>  (351) 
0

>  <s_lp_Force_Field>  (351) 
OPLS3e

>  <r_lp_Energy>  (351) 
171.85

>  <b_lp_Chiralities_Consistent>  (351) 
1

>  <s_lp_Variant>  (351) 
89:0-2

>  <s_i_glide_gridfile>  (351) 
pfpi4k_grid

>  <i_i_glide_lignum>  (351) 
14

>  <i_i_glide_rotatable_bonds>  (351) 
5

>  <r_i_docking_score>  (351) 
-3.24454

>  <r_i_glide_ligand_efficiency>  (351) 
-0.115876

>  <r_i_glide_ligand_efficiency_sa>  (351) 
-0.351869

>  <r_i_glide_ligand_efficiency_ln>  (351) 
-0.748935

>  <r_i_glide_gscore>  (351) 
-3.24454

>  <r_i_glide_lipo>  (351) 
-0.276236

>  <r_i_glide_hbond>  (351) 
0

>  <r_i_glide_metal>  (351) 
-0

>  <r_i_glide_rewards>  (351) 
-0.808195

>  <r_i_glide_evdw>  (351) 
-15.9291

>  <r_i_glide_ecoul>  (351) 
-10.7776

>  <r_i_glide_erotb>  (351) 
0.266795

>  <r_i_glide_esite>  (351) 
-0.0138145

>  <r_i_glide_emodel>  (351) 
-32.3602

>  <r_i_glide_energy>  (351) 
-26.7067

>  <r_i_glide_einternal>  (351) 
0.879223

>  <r_i_glide_intrahb_reward>  (351) 
-0

>  <i_i_glide_confnum>  (351) 
1

>  <i_i_glide_posenum>  (351) 
9

>  <r_i_glide_eff_state_penalty>  (351) 
0

>  <ligand_id>  (351) 
89

>  <original_smiles>  (351) 
C=CCC1C2CC3C4C5CC16OC6(O)C2C3(CCN4C)c1c5ccc(O)c1O

>  <smiles>  (351) 
[H]Oc1c([H])c([H])c2c(c1O[H])C13C([H])([H])C([H])([H])N(C([H])([H])[H])C4([H])C2([H])C([H])([H])C25OC2(O[H])C1([H])C([H])(C([H])([H])C43[H])C5([H])C([H])([H])C([H])=C([H])[H]

$$$$
89:1:2
     RDKit          3D

 55 61  0  0  1  0  0  0  0  0999 V2000
    5.3988   -1.1403    1.9969 C   0  0  0  0  0  0  0  0  0  0  0  0
    5.2315   -2.4715    2.0538 C   0  0  0  0  0  0  0  0  0  0  0  0
    3.9251   -3.2013    1.7610 C   0  0  0  0  0  0  0  0  0  0  0  0
    3.4314   -4.0898    2.9514 C   0  0  2  0  0  0  0  0  0  0  0  0
    4.2333   -5.3799    3.2533 C   0  0  1  0  0  0  0  0  0  0  0  0
    4.3802   -5.5029    4.7564 C   0  0  0  0  0  0  0  0  0  0  0  0
    3.4387   -6.6212    5.1813 C   0  0  1  0  0  0  0  0  0  0  0  0
    2.3427   -6.3911    6.1682 C   0  0  1  0  0  0  0  0  0  0  0  0
    1.1288   -5.7193    5.4217 C   0  0  1  0  0  0  0  0  0  0  0  0
    1.4059   -4.4631    4.4939 C   0  0  0  0  0  0  0  0  0  0  0  0
    1.9647   -4.5720    3.0096 C   0  0  1  0  0  0  0  0  0  0  0  0
    1.0418   -5.3981    2.2834 O   0  0  0  0  0  0  0  0  0  0  0  0
    2.3062   -5.8342    2.0107 C   0  0  1  0  0  0  0  0  0  0  0  0
    2.6712   -5.6010    0.6676 O   0  0  0  0  0  0  0  0  0  0  0  0
    3.3744   -6.5995    2.7847 C   0  0  2  0  0  0  0  0  0  0  0  0
    2.8084   -7.4280    3.9920 C   0  0  1  0  0  0  0  0  0  0  0  0
    3.2430   -8.8072    4.5314 C   0  0  0  0  0  0  0  0  0  0  0  0
    2.6357   -8.9880    6.0008 C   0  0  0  0  0  0  0  0  0  0  0  0
    2.0480   -7.7711    6.6821 N   0  0  0  0  0  0  0  0  0  0  0  0
    2.0975   -7.8915    8.1320 C   0  0  0  0  0  0  0  0  0  0  0  0
    1.2566   -7.5957    3.8466 C   0  0  0  0  0  0  0  0  0  0  0  0
    0.4244   -6.7664    4.6143 C   0  0  0  0  0  0  0  0  0  0  0  0
   -0.9776   -6.8877    4.5982 C   0  0  0  0  0  0  0  0  0  0  0  0
   -1.5716   -7.8432    3.7579 C   0  0  0  0  0  0  0  0  0  0  0  0
   -0.7646   -8.6317    2.9192 C   0  0  0  0  0  0  0  0  0  0  0  0
   -1.3918   -9.5023    2.0807 O   0  0  0  0  0  0  0  0  0  0  0  0
    0.6436   -8.5048    2.9479 C   0  0  0  0  0  0  0  0  0  0  0  0
    1.4012   -9.2353    2.0803 O   0  0  0  0  0  0  0  0  0  0  0  0
    4.5833   -0.4796    1.7364 H   0  0  0  0  0  0  0  0  0  0  0  0
    6.3585   -0.6856    2.2082 H   0  0  0  0  0  0  0  0  0  0  0  0
    6.0818   -3.0870    2.3125 H   0  0  0  0  0  0  0  0  0  0  0  0
    3.1654   -2.4578    1.5112 H   0  0  0  0  0  0  0  0  0  0  0  0
    4.1281   -3.7536    0.8490 H   0  0  0  0  0  0  0  0  0  0  0  0
    3.5576   -3.3708    3.7613 H   0  0  0  0  0  0  0  0  0  0  0  0
    5.2115   -5.3513    2.7690 H   0  0  0  0  0  0  0  0  0  0  0  0
    5.4172   -5.7802    4.9659 H   0  0  0  0  0  0  0  0  0  0  0  0
    4.2096   -4.5874    5.3302 H   0  0  0  0  0  0  0  0  0  0  0  0
    4.1990   -7.1625    5.7551 H   0  0  0  0  0  0  0  0  0  0  0  0
    2.7010   -5.7459    6.9706 H   0  0  0  0  0  0  0  0  0  0  0  0
    0.4379   -5.4017    6.1995 H   0  0  0  0  0  0  0  0  0  0  0  0
    0.4373   -3.9838    4.3658 H   0  0  0  0  0  0  0  0  0  0  0  0
    1.9672   -3.7257    5.0611 H   0  0  0  0  0  0  0  0  0  0  0  0
    2.7199   -6.4324    0.2206 H   0  0  0  0  0  0  0  0  0  0  0  0
    3.9300   -7.2467    2.1020 H   0  0  0  0  0  0  0  0  0  0  0  0
    2.9473   -9.6424    3.8974 H   0  0  0  0  0  0  0  0  0  0  0  0
    4.3317   -8.8951    4.5628 H   0  0  0  0  0  0  0  0  0  0  0  0
    1.8554   -9.7468    5.9730 H   0  0  0  0  0  0  0  0  0  0  0  0
    3.4233   -9.4128    6.6302 H   0  0  0  0  0  0  0  0  0  0  0  0
    1.6910   -8.8505    8.4542 H   0  0  0  0  0  0  0  0  0  0  0  0
    1.5101   -7.1070    8.6083 H   0  0  0  0  0  0  0  0  0  0  0  0
    3.1209   -7.8239    8.5052 H   0  0  0  0  0  0  0  0  0  0  0  0
   -1.5950   -6.2586    5.2237 H   0  0  0  0  0  0  0  0  0  0  0  0
   -2.6413   -7.9559    3.7210 H   0  0  0  0  0  0  0  0  0  0  0  0
   -0.8571   -9.8544    1.3857 H   0  0  0  0  0  0  0  0  0  0  0  0
    0.9058   -9.6924    1.4162 H   0  0  0  0  0  0  0  0  0  0  0  0
  1  2  2  0
  1 29  1  0
  1 30  1  0
  2  3  1  0
  2 31  1  0
  3  4  1  0
  3 32  1  0
  3 33  1  0
  4 11  1  0
  4  5  1  0
  4 34  1  1
  5 15  1  0
  5  6  1  0
  5 35  1  6
  6  7  1  0
  6 36  1  0
  6 37  1  0
  7 16  1  0
  7  8  1  0
  7 38  1  1
  8 19  1  0
  8  9  1  0
  8 39  1  1
  9 22  1  0
  9 10  1  0
  9 40  1  1
 10 11  1  0
 10 41  1  0
 10 42  1  0
 11 13  1  0
 11 12  1  6
 12 13  1  0
 13 14  1  6
 13 15  1  0
 14 43  1  0
 15 16  1  0
 15 44  1  6
 16 17  1  6
 16 21  1  0
 17 18  1  0
 17 45  1  0
 17 46  1  0
 18 19  1  0
 18 47  1  0
 18 48  1  0
 19 20  1  0
 20 49  1  0
 20 50  1  0
 20 51  1  0
 21 27  1  0
 21 22  2  0
 22 23  1  0
 23 24  2  0
 23 52  1  0
 24 25  1  0
 24 53  1  0
 25 26  1  0
 25 27  2  0
 26 54  1  0
 27 28  1  0
 28 55  1  0
M  END
>  <i_m_ct_stereo_status>  (352) 
1

>  <s_m_source_file>  (352) 
/var/tmp/pbs.5076255.sched01/tmp6w_bron9/120d4r_aq7a.sdf

>  <i_m_source_file_index>  (352) 
14

>  <i_lp_mmshare_version>  (352) 
48012

>  <i_f3d_flags>  (352) 
0

>  <s_epik_input>  (352) 
W0NIMl09W0NIXVtDSDJdW0NAQEhdMVtDQEhdMltDSDJdW0NASF0oW0NAQF0zNFtDQEhdMltDQF0oW0NAXTE1NikoTzYpW09IXSlbQ0BIXShOKFtDSDNdKVtDSDJdW0NIMl0zKVtDQEBIXShbQ0gyXTUpYzdjNGMoW09IXSljKFtPSF0pW2NIXVtjSF03

>  <s_epik_cmdline>  (352) 
J2VwaWtfcHl0aG9uJywgJy1waHQnLCAnMi4wJywgJy1waCcsICc3LjAnLCAnLXRuJywgJzgnLCAnLW1hJywgJzIwMCcsICctaW1hZScsICc8aW5maWxlLm1hZT4nLCAnLW9tYWUnLCAnPG91dGZpbGUubWFlPic=

>  <r_lp_tautomer_probability>  (352) 
1

>  <r_epik_Ionization_Penalty>  (352) 
2.29204

>  <r_epik_Ionization_Penalty_Charging>  (352) 
0

>  <r_epik_Ionization_Penalty_Neutral>  (352) 
2.29204

>  <r_epik_State_Penalty>  (352) 
2.44189

>  <r_epik_Charging_Adjusted_Penalty>  (352) 
2.44189

>  <i_epik_Tot_Q>  (352) 
0

>  <i_epik_Tot_abs_Q>  (352) 
0

>  <s_lp_Force_Field>  (352) 
OPLS3e

>  <r_lp_Energy>  (352) 
171.85

>  <b_lp_Chiralities_Consistent>  (352) 
1

>  <s_lp_Variant>  (352) 
89:0-2

>  <s_i_glide_gridfile>  (352) 
pfpi4k_grid

>  <i_i_glide_lignum>  (352) 
14

>  <i_i_glide_rotatable_bonds>  (352) 
5

>  <r_i_docking_score>  (352) 
-2.81081

>  <r_i_glide_ligand_efficiency>  (352) 
-0.100386

>  <r_i_glide_ligand_efficiency_sa>  (352) 
-0.304831

>  <r_i_glide_ligand_efficiency_ln>  (352) 
-0.648817

>  <r_i_glide_gscore>  (352) 
-2.81081

>  <r_i_glide_lipo>  (352) 
-0.176397

>  <r_i_glide_hbond>  (352) 
-0.0629747

>  <r_i_glide_metal>  (352) 
-0

>  <r_i_glide_rewards>  (352) 
-0.808195

>  <r_i_glide_evdw>  (352) 
-19.1849

>  <r_i_glide_ecoul>  (352) 
-7.02824

>  <r_i_glide_erotb>  (352) 
0.266795

>  <r_i_glide_esite>  (352) 
-0.0165581

>  <r_i_glide_emodel>  (352) 
-31.1736

>  <r_i_glide_energy>  (352) 
-26.2131

>  <r_i_glide_einternal>  (352) 
0.453388

>  <r_i_glide_intrahb_reward>  (352) 
-0

>  <i_i_glide_confnum>  (352) 
3

>  <i_i_glide_posenum>  (352) 
6

>  <r_i_glide_eff_state_penalty>  (352) 
0

>  <ligand_id>  (352) 
89

>  <original_smiles>  (352) 
C=CCC1C2CC3C4C5CC16OC6(O)C2C3(CCN4C)c1c5ccc(O)c1O

>  <smiles>  (352) 
[H]Oc1c([H])c([H])c2c(c1O[H])C13C([H])([H])C([H])([H])N(C([H])([H])[H])C4([H])C2([H])C([H])([H])C25OC2(O[H])C1([H])C([H])(C([H])([H])C43[H])C5([H])C([H])([H])C([H])=C([H])[H]

$$$$
90:0:0
     RDKit          3D

 39 42  0  0  1  0  0  0  0  0999 V2000
    3.7535   -6.1229    0.3822 C   0  0  0  0  0  0  0  0  0  0  0  0
    4.3782   -4.8353    0.9205 C   0  0  2  0  0  0  0  0  0  0  0  0
    3.3821   -4.1113    1.8962 C   0  0  0  0  0  0  0  0  0  0  0  0
    3.7664   -2.6594    2.2922 C   0  0  0  0  0  0  0  0  0  0  0  0
    4.4669   -1.7290    1.2327 C   0  0  2  0  0  0  0  0  0  0  0  0
    3.7348   -0.8785    0.3199 O   0  0  0  0  0  0  0  0  0  0  0  0
    3.2882   -1.5807   -0.9674 O   0  0  0  0  0  0  0  0  0  0  0  0
    4.2929   -1.6052   -1.9765 C   0  0  2  0  0  0  0  0  0  0  0  0
    3.8607   -0.6613   -3.1180 C   0  0  0  0  0  0  0  0  0  0  0  0
    4.4871   -3.0295   -2.5560 C   0  0  0  0  0  0  0  0  0  0  0  0
    5.0746   -4.1100   -1.6146 C   0  0  0  0  0  0  0  0  0  0  0  0
    4.7212   -3.7835   -0.1477 C   0  0  2  0  0  0  0  0  0  0  0  0
    5.4638   -2.5628    0.4640 C   0  0  2  0  0  0  0  0  0  0  0  0
    6.7117   -2.9357    1.2618 C   0  0  0  0  0  0  0  0  0  0  0  0
    7.7728   -3.0193    0.1702 C   0  0  0  0  0  0  0  0  0  0  0  0
    8.8023   -3.6949    0.2654 O   0  0  0  0  0  0  0  0  0  0  0  0
    7.4069   -2.2539   -0.8465 O   0  0  0  0  0  0  0  0  0  0  0  0
    6.2169   -1.6125   -0.4972 C   0  0  1  0  0  0  0  0  0  0  0  0
    5.5171   -1.0613   -1.5711 O   0  0  0  0  0  0  0  0  0  0  0  0
    2.8663   -5.9023   -0.2158 H   0  0  0  0  0  0  0  0  0  0  0  0
    3.4613   -6.7872    1.1898 H   0  0  0  0  0  0  0  0  0  0  0  0
    4.4576   -6.6621   -0.2529 H   0  0  0  0  0  0  0  0  0  0  0  0
    5.2664   -5.1523    1.4596 H   0  0  0  0  0  0  0  0  0  0  0  0
    2.4010   -4.0758    1.4298 H   0  0  0  0  0  0  0  0  0  0  0  0
    3.2623   -4.7272    2.7855 H   0  0  0  0  0  0  0  0  0  0  0  0
    2.9241   -2.1553    2.7868 H   0  0  0  0  0  0  0  0  0  0  0  0
    4.5084   -2.7814    3.0884 H   0  0  0  0  0  0  0  0  0  0  0  0
    4.9895   -0.9835    1.8382 H   0  0  0  0  0  0  0  0  0  0  0  0
    3.8055    0.3696   -2.7904 H   0  0  0  0  0  0  0  0  0  0  0  0
    2.9073   -0.9585   -3.5662 H   0  0  0  0  0  0  0  0  0  0  0  0
    4.6059   -0.6869   -3.9266 H   0  0  0  0  0  0  0  0  0  0  0  0
    3.4973   -3.3762   -2.8855 H   0  0  0  0  0  0  0  0  0  0  0  0
    5.1003   -2.9949   -3.4691 H   0  0  0  0  0  0  0  0  0  0  0  0
    4.6418   -5.0509   -1.8996 H   0  0  0  0  0  0  0  0  0  0  0  0
    6.1413   -4.1967   -1.7390 H   0  0  0  0  0  0  0  0  0  0  0  0
    3.6693   -3.6001   -0.3274 H   0  0  0  0  0  0  0  0  0  0  0  0
    6.9860   -2.1188    1.9184 H   0  0  0  0  0  0  0  0  0  0  0  0
    6.6658   -3.8486    1.8569 H   0  0  0  0  0  0  0  0  0  0  0  0
    6.5133   -0.7263    0.0710 H   0  0  0  0  0  0  0  0  0  0  0  0
  1  2  1  0
  1 20  1  0
  1 21  1  0
  1 22  1  0
  2 12  1  0
  2  3  1  0
  2 23  1  1
  3  4  1  0
  3 24  1  0
  3 25  1  0
  4  5  1  0
  4 26  1  0
  4 27  1  0
  5 13  1  0
  5  6  1  0
  5 28  1  1
  6  7  1  0
  7  8  1  0
  8 19  1  0
  8  9  1  6
  8 10  1  0
  9 29  1  0
  9 30  1  0
  9 31  1  0
 10 11  1  0
 10 32  1  0
 10 33  1  0
 11 12  1  0
 11 34  1  0
 11 35  1  0
 12 13  1  0
 12 36  1  6
 13 18  1  0
 13 14  1  1
 14 15  1  0
 14 37  1  0
 14 38  1  0
 15 16  2  0
 15 17  1  0
 17 18  1  0
 18 19  1  0
 18 39  1  1
M  END
>  <i_m_ct_stereo_status>  (353) 
1

>  <s_m_source_file>  (353) 
/var/tmp/pbs.5076255.sched01/tmp6w_bron9/120d4r_aq7a.sdf

>  <i_m_source_file_index>  (353) 
15

>  <i_lp_mmshare_version>  (353) 
48012

>  <i_f3d_flags>  (353) 
0

>  <s_epik_input>  (353) 
W0NAQF0xMjNbQ0BASF00W0NIMl1bQ0gyXVtDQEBIXShbQ0gzXSlbQ0BASF0xW0NIMl1bQ0gyXVtDQF0oT080KShbQ0gzXSlPW0NAQEhdM09DKD1PKVtDSDJdMg==

>  <s_epik_cmdline>  (353) 
J2VwaWtfcHl0aG9uJywgJy1waHQnLCAnMi4wJywgJy1waCcsICc3LjAnLCAnLXRuJywgJzgnLCAnLW1hJywgJzIwMCcsICctaW1hZScsICc8aW5maWxlLm1hZT4nLCAnLW9tYWUnLCAnPG91dGZpbGUubWFlPic=

>  <r_lp_tautomer_probability>  (353) 
1

>  <r_epik_Ionization_Penalty>  (353) 
1.31558e-16

>  <r_epik_Ionization_Penalty_Charging>  (353) 
0

>  <r_epik_Ionization_Penalty_Neutral>  (353) 
1.31558e-16

>  <r_epik_State_Penalty>  (353) 
-0

>  <r_epik_Charging_Adjusted_Penalty>  (353) 
0

>  <i_epik_Tot_Q>  (353) 
0

>  <i_epik_Tot_abs_Q>  (353) 
0

>  <s_epik_Chemistry_Notes>  (353) 
This compound has an ester and may undergo hydrolysis at high or low pH. This compound contains an acetal/aminal-like group ( X-CH(R)-Y where X, Y are N, S, or O) that may be acid/base labile, releasing an aldehyde.

>  <s_lp_Force_Field>  (353) 
OPLS3e

>  <r_lp_Energy>  (353) 
52.7882

>  <b_lp_Chiralities_Consistent>  (353) 
1

>  <s_lp_Variant>  (353) 
90:0-1

>  <s_i_glide_gridfile>  (353) 
pfpi4k_grid

>  <i_i_glide_lignum>  (353) 
15

>  <i_i_glide_rotatable_bonds>  (353) 
0

>  <r_i_docking_score>  (353) 
-3.75728

>  <r_i_glide_ligand_efficiency>  (353) 
-0.197751

>  <r_i_glide_ligand_efficiency_sa>  (353) 
-0.52768

>  <r_i_glide_ligand_efficiency_ln>  (353) 
-0.95255

>  <r_i_glide_gscore>  (353) 
-3.75728

>  <r_i_glide_lipo>  (353) 
-0.415553

>  <r_i_glide_hbond>  (353) 
-0.195645

>  <r_i_glide_metal>  (353) 
-0

>  <r_i_glide_rewards>  (353) 
-1.82877

>  <r_i_glide_evdw>  (353) 
-21.5673

>  <r_i_glide_ecoul>  (353) 
-0.988684

>  <r_i_glide_erotb>  (353) 
0

>  <r_i_glide_esite>  (353) 
-0.090644

>  <r_i_glide_emodel>  (353) 
-27.3738

>  <r_i_glide_energy>  (353) 
-22.556

>  <r_i_glide_einternal>  (353) 
0

>  <r_i_glide_intrahb_reward>  (353) 
-0

>  <i_i_glide_confnum>  (353) 
2

>  <i_i_glide_posenum>  (353) 
26

>  <r_i_glide_eff_state_penalty>  (353) 
0

>  <ligand_id>  (353) 
90

>  <original_smiles>  (353) 
CC1CCC2OOC3(C)CCC1C21CC(=O)OC1O3

>  <smiles>  (353) 
[H]C([H])([H])C12OOC3([H])C([H])([H])C([H])([H])C([H])(C([H])([H])[H])C([H])(C([H])([H])C1([H])[H])C31C([H])(OC(=O)C1([H])[H])O2

$$$$
90:0:1
     RDKit          3D

 39 42  0  0  1  0  0  0  0  0999 V2000
    6.5684   -5.6636    1.0789 C   0  0  0  0  0  0  0  0  0  0  0  0
    5.3659   -4.7477    1.3468 C   0  0  2  0  0  0  0  0  0  0  0  0
    4.0347   -5.5674    1.3058 C   0  0  0  0  0  0  0  0  0  0  0  0
    2.7274   -4.7221    1.2724 C   0  0  0  0  0  0  0  0  0  0  0  0
    2.7139   -3.3672    0.4791 C   0  0  2  0  0  0  0  0  0  0  0  0
    2.3490   -3.2947   -0.9219 O   0  0  0  0  0  0  0  0  0  0  0  0
    3.5015   -3.5111   -1.8990 O   0  0  0  0  0  0  0  0  0  0  0  0
    4.3092   -2.3446   -2.1067 C   0  0  2  0  0  0  0  0  0  0  0  0
    4.0718   -1.8765   -3.5518 C   0  0  0  0  0  0  0  0  0  0  0  0
    5.8244   -2.6526   -1.9140 C   0  0  0  0  0  0  0  0  0  0  0  0
    6.3272   -2.9765   -0.4837 C   0  0  0  0  0  0  0  0  0  0  0  0
    5.1811   -3.6075    0.3224 C   0  0  2  0  0  0  0  0  0  0  0  0
    4.0098   -2.6383    0.7263 C   0  0  2  0  0  0  0  0  0  0  0  0
    4.1407   -2.0644    2.1381 C   0  0  0  0  0  0  0  0  0  0  0  0
    5.0244   -0.8501    1.8932 C   0  0  0  0  0  0  0  0  0  0  0  0
    5.7601   -0.3668    2.7492 O   0  0  0  0  0  0  0  0  0  0  0  0
    4.8615   -0.4292    0.6371 O   0  0  0  0  0  0  0  0  0  0  0  0
    3.9150   -1.2560    0.0206 C   0  0  1  0  0  0  0  0  0  0  0  0
    3.9186   -1.2220   -1.3640 O   0  0  0  0  0  0  0  0  0  0  0  0
    6.5223   -6.0920    0.0845 H   0  0  0  0  0  0  0  0  0  0  0  0
    6.5910   -6.4852    1.7939 H   0  0  0  0  0  0  0  0  0  0  0  0
    7.5074   -5.1218    1.1789 H   0  0  0  0  0  0  0  0  0  0  0  0
    5.5238   -4.3480    2.3448 H   0  0  0  0  0  0  0  0  0  0  0  0
    4.0355   -6.2042    0.4225 H   0  0  0  0  0  0  0  0  0  0  0  0
    4.0149   -6.2500    2.1552 H   0  0  0  0  0  0  0  0  0  0  0  0
    1.8687   -5.3556    1.0235 H   0  0  0  0  0  0  0  0  0  0  0  0
    2.5579   -4.4402    2.3162 H   0  0  0  0  0  0  0  0  0  0  0  0
    1.9051   -2.7937    0.9378 H   0  0  0  0  0  0  0  0  0  0  0  0
    3.0330   -1.5917   -3.7188 H   0  0  0  0  0  0  0  0  0  0  0  0
    4.3529   -2.6420   -4.2847 H   0  0  0  0  0  0  0  0  0  0  0  0
    4.6752   -0.9874   -3.7522 H   0  0  0  0  0  0  0  0  0  0  0  0
    6.0578   -3.5152   -2.5554 H   0  0  0  0  0  0  0  0  0  0  0  0
    6.4281   -1.8338   -2.3101 H   0  0  0  0  0  0  0  0  0  0  0  0
    7.1533   -3.6736   -0.5828 H   0  0  0  0  0  0  0  0  0  0  0  0
    6.7194   -2.1027    0.0208 H   0  0  0  0  0  0  0  0  0  0  0  0
    4.8787   -4.3154   -0.4341 H   0  0  0  0  0  0  0  0  0  0  0  0
    3.1841   -1.7028    2.5027 H   0  0  0  0  0  0  0  0  0  0  0  0
    4.5599   -2.7208    2.8972 H   0  0  0  0  0  0  0  0  0  0  0  0
    2.9517   -0.7984    0.2683 H   0  0  0  0  0  0  0  0  0  0  0  0
  1  2  1  0
  1 20  1  0
  1 21  1  0
  1 22  1  0
  2 12  1  0
  2  3  1  0
  2 23  1  1
  3  4  1  0
  3 24  1  0
  3 25  1  0
  4  5  1  0
  4 26  1  0
  4 27  1  0
  5 13  1  0
  5  6  1  0
  5 28  1  1
  6  7  1  0
  7  8  1  0
  8 19  1  0
  8  9  1  6
  8 10  1  0
  9 29  1  0
  9 30  1  0
  9 31  1  0
 10 11  1  0
 10 32  1  0
 10 33  1  0
 11 12  1  0
 11 34  1  0
 11 35  1  0
 12 13  1  0
 12 36  1  6
 13 18  1  0
 13 14  1  1
 14 15  1  0
 14 37  1  0
 14 38  1  0
 15 16  2  0
 15 17  1  0
 17 18  1  0
 18 19  1  0
 18 39  1  1
M  END
>  <i_m_ct_stereo_status>  (354) 
1

>  <s_m_source_file>  (354) 
/var/tmp/pbs.5076255.sched01/tmp6w_bron9/120d4r_aq7a.sdf

>  <i_m_source_file_index>  (354) 
15

>  <i_lp_mmshare_version>  (354) 
48012

>  <i_f3d_flags>  (354) 
0

>  <s_epik_input>  (354) 
W0NAQF0xMjNbQ0BASF00W0NIMl1bQ0gyXVtDQEBIXShbQ0gzXSlbQ0BASF0xW0NIMl1bQ0gyXVtDQF0oT080KShbQ0gzXSlPW0NAQEhdM09DKD1PKVtDSDJdMg==

>  <s_epik_cmdline>  (354) 
J2VwaWtfcHl0aG9uJywgJy1waHQnLCAnMi4wJywgJy1waCcsICc3LjAnLCAnLXRuJywgJzgnLCAnLW1hJywgJzIwMCcsICctaW1hZScsICc8aW5maWxlLm1hZT4nLCAnLW9tYWUnLCAnPG91dGZpbGUubWFlPic=

>  <r_lp_tautomer_probability>  (354) 
1

>  <r_epik_Ionization_Penalty>  (354) 
1.31558e-16

>  <r_epik_Ionization_Penalty_Charging>  (354) 
0

>  <r_epik_Ionization_Penalty_Neutral>  (354) 
1.31558e-16

>  <r_epik_State_Penalty>  (354) 
-0

>  <r_epik_Charging_Adjusted_Penalty>  (354) 
0

>  <i_epik_Tot_Q>  (354) 
0

>  <i_epik_Tot_abs_Q>  (354) 
0

>  <s_epik_Chemistry_Notes>  (354) 
This compound has an ester and may undergo hydrolysis at high or low pH. This compound contains an acetal/aminal-like group ( X-CH(R)-Y where X, Y are N, S, or O) that may be acid/base labile, releasing an aldehyde.

>  <s_lp_Force_Field>  (354) 
OPLS3e

>  <r_lp_Energy>  (354) 
52.7882

>  <b_lp_Chiralities_Consistent>  (354) 
1

>  <s_lp_Variant>  (354) 
90:0-1

>  <s_i_glide_gridfile>  (354) 
pfpi4k_grid

>  <i_i_glide_lignum>  (354) 
15

>  <i_i_glide_rotatable_bonds>  (354) 
0

>  <r_i_docking_score>  (354) 
-3.40027

>  <r_i_glide_ligand_efficiency>  (354) 
-0.178962

>  <r_i_glide_ligand_efficiency_sa>  (354) 
-0.477541

>  <r_i_glide_ligand_efficiency_ln>  (354) 
-0.862041

>  <r_i_glide_gscore>  (354) 
-3.40027

>  <r_i_glide_lipo>  (354) 
-0.461833

>  <r_i_glide_hbond>  (354) 
-0.0784029

>  <r_i_glide_metal>  (354) 
-0

>  <r_i_glide_rewards>  (354) 
-1.77486

>  <r_i_glide_evdw>  (354) 
-24.4563

>  <r_i_glide_ecoul>  (354) 
1.21826

>  <r_i_glide_erotb>  (354) 
0

>  <r_i_glide_esite>  (354) 
-0.0450985

>  <r_i_glide_emodel>  (354) 
-27.6415

>  <r_i_glide_energy>  (354) 
-23.238

>  <r_i_glide_einternal>  (354) 
0

>  <r_i_glide_intrahb_reward>  (354) 
-0

>  <i_i_glide_confnum>  (354) 
1

>  <i_i_glide_posenum>  (354) 
36

>  <r_i_glide_eff_state_penalty>  (354) 
0

>  <ligand_id>  (354) 
90

>  <original_smiles>  (354) 
CC1CCC2OOC3(C)CCC1C21CC(=O)OC1O3

>  <smiles>  (354) 
[H]C([H])([H])C12OOC3([H])C([H])([H])C([H])([H])C([H])(C([H])([H])[H])C([H])(C([H])([H])C1([H])[H])C31C([H])(OC(=O)C1([H])[H])O2

$$$$
90:0:2
     RDKit          3D

 39 42  0  0  1  0  0  0  0  0999 V2000
    2.6821   -3.0213   -3.3628 C   0  0  0  0  0  0  0  0  0  0  0  0
    3.7918   -2.6207   -2.3750 C   0  0  2  0  0  0  0  0  0  0  0  0
    5.1931   -3.0642   -2.9137 C   0  0  0  0  0  0  0  0  0  0  0  0
    6.3669   -2.9585   -1.9004 C   0  0  0  0  0  0  0  0  0  0  0  0
    6.1034   -3.2901   -0.3868 C   0  0  2  0  0  0  0  0  0  0  0  0
    6.2489   -4.6291    0.1479 O   0  0  0  0  0  0  0  0  0  0  0  0
    4.9835   -5.5115    0.0513 O   0  0  0  0  0  0  0  0  0  0  0  0
    4.0137   -5.2332    1.0781 C   0  0  2  0  0  0  0  0  0  0  0  0
    3.9487   -6.4672    1.9963 C   0  0  0  0  0  0  0  0  0  0  0  0
    2.5945   -4.9828    0.4894 C   0  0  0  0  0  0  0  0  0  0  0  0
    2.3659   -3.6842   -0.3318 C   0  0  0  0  0  0  0  0  0  0  0  0
    3.6923   -3.2414   -0.9706 C   0  0  2  0  0  0  0  0  0  0  0  0
    4.7746   -2.6772    0.0112 C   0  0  2  0  0  0  0  0  0  0  0  0
    4.7883   -1.1444    0.1170 C   0  0  0  0  0  0  0  0  0  0  0  0
    3.7405   -0.9121    1.1884 C   0  0  0  0  0  0  0  0  0  0  0  0
    3.0889    0.1436    1.2861 O   0  0  0  0  0  0  0  0  0  0  0  0
    3.6481   -1.9777    1.9752 O   0  0  0  0  0  0  0  0  0  0  0  0
    4.5883   -2.9200    1.5369 C   0  0  1  0  0  0  0  0  0  0  0  0
    4.3813   -4.2141    1.9790 O   0  0  0  0  0  0  0  0  0  0  0  0
    2.6086   -4.1005   -3.4927 H   0  0  0  0  0  0  0  0  0  0  0  0
    2.8635   -2.5907   -4.3435 H   0  0  0  0  0  0  0  0  0  0  0  0
    1.7101   -2.6567   -3.0257 H   0  0  0  0  0  0  0  0  0  0  0  0
    3.7420   -1.5364   -2.3189 H   0  0  0  0  0  0  0  0  0  0  0  0
    5.1321   -4.1001   -3.2443 H   0  0  0  0  0  0  0  0  0  0  0  0
    5.4143   -2.4847   -3.8041 H   0  0  0  0  0  0  0  0  0  0  0  0
    7.2547   -3.4810   -2.2808 H   0  0  0  0  0  0  0  0  0  0  0  0
    6.6532   -1.9022   -1.9135 H   0  0  0  0  0  0  0  0  0  0  0  0
    6.9043   -2.7699    0.1455 H   0  0  0  0  0  0  0  0  0  0  0  0
    4.8976   -6.6485    2.4950 H   0  0  0  0  0  0  0  0  0  0  0  0
    3.6497   -7.3747    1.4613 H   0  0  0  0  0  0  0  0  0  0  0  0
    3.2057   -6.3013    2.7886 H   0  0  0  0  0  0  0  0  0  0  0  0
    2.3579   -5.8348   -0.1649 H   0  0  0  0  0  0  0  0  0  0  0  0
    1.8364   -5.0156    1.2845 H   0  0  0  0  0  0  0  0  0  0  0  0
    1.6310   -3.9028   -1.0968 H   0  0  0  0  0  0  0  0  0  0  0  0
    1.9560   -2.8880    0.2755 H   0  0  0  0  0  0  0  0  0  0  0  0
    3.9567   -4.2181   -1.3487 H   0  0  0  0  0  0  0  0  0  0  0  0
    5.7392   -0.7890    0.5052 H   0  0  0  0  0  0  0  0  0  0  0  0
    4.5775   -0.5957   -0.7964 H   0  0  0  0  0  0  0  0  0  0  0  0
    5.5087   -2.6357    2.0562 H   0  0  0  0  0  0  0  0  0  0  0  0
  1  2  1  0
  1 20  1  0
  1 21  1  0
  1 22  1  0
  2 12  1  0
  2  3  1  0
  2 23  1  1
  3  4  1  0
  3 24  1  0
  3 25  1  0
  4  5  1  0
  4 26  1  0
  4 27  1  0
  5 13  1  0
  5  6  1  0
  5 28  1  1
  6  7  1  0
  7  8  1  0
  8 19  1  0
  8  9  1  1
  8 10  1  0
  9 29  1  0
  9 30  1  0
  9 31  1  0
 10 11  1  0
 10 32  1  0
 10 33  1  0
 11 12  1  0
 11 34  1  0
 11 35  1  0
 12 13  1  0
 12 36  1  6
 13 18  1  0
 13 14  1  1
 14 15  1  0
 14 37  1  0
 14 38  1  0
 15 16  2  0
 15 17  1  0
 17 18  1  0
 18 19  1  0
 18 39  1  1
M  END
>  <i_m_ct_stereo_status>  (355) 
1

>  <s_m_source_file>  (355) 
/var/tmp/pbs.5076255.sched01/tmp6w_bron9/120d4r_aq7a.sdf

>  <i_m_source_file_index>  (355) 
15

>  <i_lp_mmshare_version>  (355) 
48012

>  <i_f3d_flags>  (355) 
0

>  <s_epik_input>  (355) 
W0NAQF0xMjNbQ0BASF00W0NIMl1bQ0gyXVtDQEBIXShbQ0gzXSlbQ0BASF0xW0NIMl1bQ0gyXVtDQF0oT080KShbQ0gzXSlPW0NAQEhdM09DKD1PKVtDSDJdMg==

>  <s_epik_cmdline>  (355) 
J2VwaWtfcHl0aG9uJywgJy1waHQnLCAnMi4wJywgJy1waCcsICc3LjAnLCAnLXRuJywgJzgnLCAnLW1hJywgJzIwMCcsICctaW1hZScsICc8aW5maWxlLm1hZT4nLCAnLW9tYWUnLCAnPG91dGZpbGUubWFlPic=

>  <r_lp_tautomer_probability>  (355) 
1

>  <r_epik_Ionization_Penalty>  (355) 
1.31558e-16

>  <r_epik_Ionization_Penalty_Charging>  (355) 
0

>  <r_epik_Ionization_Penalty_Neutral>  (355) 
1.31558e-16

>  <r_epik_State_Penalty>  (355) 
-0

>  <r_epik_Charging_Adjusted_Penalty>  (355) 
0

>  <i_epik_Tot_Q>  (355) 
0

>  <i_epik_Tot_abs_Q>  (355) 
0

>  <s_epik_Chemistry_Notes>  (355) 
This compound has an ester and may undergo hydrolysis at high or low pH. This compound contains an acetal/aminal-like group ( X-CH(R)-Y where X, Y are N, S, or O) that may be acid/base labile, releasing an aldehyde.

>  <s_lp_Force_Field>  (355) 
OPLS3e

>  <r_lp_Energy>  (355) 
52.7882

>  <b_lp_Chiralities_Consistent>  (355) 
1

>  <s_lp_Variant>  (355) 
90:0-1

>  <s_i_glide_gridfile>  (355) 
pfpi4k_grid

>  <i_i_glide_lignum>  (355) 
15

>  <i_i_glide_rotatable_bonds>  (355) 
0

>  <r_i_docking_score>  (355) 
-3.37753

>  <r_i_glide_ligand_efficiency>  (355) 
-0.177765

>  <r_i_glide_ligand_efficiency_sa>  (355) 
-0.474348

>  <r_i_glide_ligand_efficiency_ln>  (355) 
-0.856276

>  <r_i_glide_gscore>  (355) 
-3.37753

>  <r_i_glide_lipo>  (355) 
-0.542103

>  <r_i_glide_hbond>  (355) 
0

>  <r_i_glide_metal>  (355) 
-0

>  <r_i_glide_rewards>  (355) 
-1.64274

>  <r_i_glide_evdw>  (355) 
-25.1556

>  <r_i_glide_ecoul>  (355) 
0.512237

>  <r_i_glide_erotb>  (355) 
0

>  <r_i_glide_esite>  (355) 
-0.0117432

>  <r_i_glide_emodel>  (355) 
-29.0162

>  <r_i_glide_energy>  (355) 
-24.6433

>  <r_i_glide_einternal>  (355) 
0

>  <r_i_glide_intrahb_reward>  (355) 
-0

>  <i_i_glide_confnum>  (355) 
2

>  <i_i_glide_posenum>  (355) 
5

>  <r_i_glide_eff_state_penalty>  (355) 
0

>  <ligand_id>  (355) 
90

>  <original_smiles>  (355) 
CC1CCC2OOC3(C)CCC1C21CC(=O)OC1O3

>  <smiles>  (355) 
[H]C([H])([H])C12OOC3([H])C([H])([H])C([H])([H])C([H])(C([H])([H])[H])C([H])(C([H])([H])C1([H])[H])C31C([H])(OC(=O)C1([H])[H])O2

$$$$
91:0:0
     RDKit          3D

 30 33  0  0  1  0  0  0  0  0999 V2000
    3.1538    1.0007    3.1142 C   0  0  0  0  0  0  0  0  0  0  0  0
    2.9728   -0.3480    2.4627 C   0  0  0  0  0  0  0  0  0  0  0  0
    2.2024   -1.3551    3.1124 C   0  0  0  0  0  0  0  0  0  0  0  0
    2.0166   -2.5835    2.5842 N   0  0  0  0  0  0  0  0  0  0  0  0
    2.6375   -2.7848    1.4184 C   0  0  0  0  0  0  0  0  0  0  0  0
    2.6447   -3.9722    0.7029 N   0  0  0  0  0  0  0  0  0  0  0  0
    3.4097   -3.6373   -0.3198 C   0  0  0  0  0  0  0  0  0  0  0  0
    3.8655   -2.3717   -0.4052 N   0  0  0  0  0  0  0  0  0  0  0  0
    4.6568   -1.7473   -1.4634 C   0  0  2  0  0  0  0  0  0  0  0  0
    3.7554   -1.0217   -2.4964 C   0  0  0  0  0  0  0  0  0  0  0  0
    3.5210   -1.9828   -3.6433 C   0  0  2  0  0  0  0  0  0  0  0  0
    2.9970   -3.3729   -3.4556 C   0  0  0  0  0  0  0  0  0  0  0  0
    4.4942   -3.1265   -3.4855 C   0  0  2  0  0  0  0  0  0  0  0  0
    5.3896   -2.8244   -2.2955 C   0  0  0  0  0  0  0  0  0  0  0  0
    3.3941   -1.7845    0.7741 C   0  0  0  0  0  0  0  0  0  0  0  0
    3.5786   -0.5267    1.2728 N   0  0  0  0  0  0  0  0  0  0  0  0
    2.6337    1.0512    4.0691 H   0  0  0  0  0  0  0  0  0  0  0  0
    2.7633    1.7806    2.4614 H   0  0  0  0  0  0  0  0  0  0  0  0
    4.2127    1.1863    3.2902 H   0  0  0  0  0  0  0  0  0  0  0  0
    1.7380   -1.1920    4.0664 H   0  0  0  0  0  0  0  0  0  0  0  0
    3.6585   -4.3838   -1.0752 H   0  0  0  0  0  0  0  0  0  0  0  0
    5.3550   -1.0455   -0.9976 H   0  0  0  0  0  0  0  0  0  0  0  0
    2.8117   -0.6805   -2.0736 H   0  0  0  0  0  0  0  0  0  0  0  0
    4.2652   -0.1384   -2.8818 H   0  0  0  0  0  0  0  0  0  0  0  0
    3.3470   -1.5359   -4.6222 H   0  0  0  0  0  0  0  0  0  0  0  0
    2.4229   -3.5107   -2.5617 H   0  0  0  0  0  0  0  0  0  0  0  0
    2.5951   -3.8920   -4.3187 H   0  0  0  0  0  0  0  0  0  0  0  0
    5.0194   -3.4851   -4.3655 H   0  0  0  0  0  0  0  0  0  0  0  0
    6.3492   -2.4361   -2.6414 H   0  0  0  0  0  0  0  0  0  0  0  0
    5.6267   -3.7228   -1.7281 H   0  0  0  0  0  0  0  0  0  0  0  0
  1  2  1  0
  1 17  1  0
  1 18  1  0
  1 19  1  0
  2 16  2  0
  2  3  1  0
  3  4  2  0
  3 20  1  0
  4  5  1  0
  5 15  2  0
  5  6  1  0
  6  7  2  0
  7  8  1  0
  7 21  1  0
  8  9  1  0
  8 15  1  0
  9 14  1  0
  9 10  1  0
  9 22  1  1
 10 11  1  0
 10 23  1  0
 10 24  1  0
 11 13  1  0
 11 12  1  0
 11 25  1  6
 12 13  1  0
 12 26  1  0
 12 27  1  0
 13 14  1  0
 13 28  1  6
 14 29  1  0
 14 30  1  0
 15 16  1  0
M  END
>  <i_m_ct_stereo_status>  (356) 
1

>  <s_m_source_file>  (356) 
/var/tmp/pbs.5076255.sched01/tmp6w_bron9/120d4r_aq7a.sdf

>  <i_m_source_file_index>  (356) 
16

>  <i_lp_mmshare_version>  (356) 
48012

>  <i_f3d_flags>  (356) 
0

>  <s_epik_input>  (356) 
bjFbY0hdYyhbQ0gzXSluYyhjMTIpbihbY0hdbjIpW0NASF0oW0NIMl0zKVtDSDJdW0NASF0oW0NASF0zNClbQ0gyXTQ=

>  <s_epik_cmdline>  (356) 
J2VwaWtfcHl0aG9uJywgJy1waHQnLCAnMi4wJywgJy1waCcsICc3LjAnLCAnLXRuJywgJzgnLCAnLW1hJywgJzIwMCcsICctaW1hZScsICc8aW5maWxlLm1hZT4nLCAnLW9tYWUnLCAnPG91dGZpbGUubWFlPic=

>  <r_lp_tautomer_probability>  (356) 
1

>  <r_epik_Ionization_Penalty>  (356) 
0.00333145

>  <r_epik_Ionization_Penalty_Charging>  (356) 
0

>  <r_epik_Ionization_Penalty_Neutral>  (356) 
0.00333145

>  <r_epik_State_Penalty>  (356) 
0.00235581

>  <r_epik_Charging_Adjusted_Penalty>  (356) 
0.00235581

>  <i_epik_Tot_Q>  (356) 
0

>  <i_epik_Tot_abs_Q>  (356) 
0

>  <s_lp_Force_Field>  (356) 
OPLS3e

>  <r_lp_Energy>  (356) 
26.2734

>  <b_lp_Chiralities_Consistent>  (356) 
1

>  <s_lp_Variant>  (356) 
91:0-1

>  <s_i_glide_gridfile>  (356) 
pfpi4k_grid

>  <i_i_glide_lignum>  (356) 
16

>  <i_i_glide_rotatable_bonds>  (356) 
1

>  <r_i_docking_score>  (356) 
-3.40531

>  <r_i_glide_ligand_efficiency>  (356) 
-0.212832

>  <r_i_glide_ligand_efficiency_sa>  (356) 
-0.536303

>  <r_i_glide_ligand_efficiency_ln>  (356) 
-0.902647

>  <r_i_glide_gscore>  (356) 
-3.40531

>  <r_i_glide_lipo>  (356) 
-0.711969

>  <r_i_glide_hbond>  (356) 
0

>  <r_i_glide_metal>  (356) 
-0

>  <r_i_glide_rewards>  (356) 
-1.95031

>  <r_i_glide_evdw>  (356) 
-20.2526

>  <r_i_glide_ecoul>  (356) 
0.0299508

>  <r_i_glide_erotb>  (356) 
0.363843

>  <r_i_glide_esite>  (356) 
-0.0987461

>  <r_i_glide_emodel>  (356) 
-23.8251

>  <r_i_glide_energy>  (356) 
-20.2226

>  <r_i_glide_einternal>  (356) 
0.0805188

>  <r_i_glide_intrahb_reward>  (356) 
-0

>  <i_i_glide_confnum>  (356) 
5

>  <i_i_glide_posenum>  (356) 
6

>  <r_i_glide_eff_state_penalty>  (356) 
0

>  <ligand_id>  (356) 
91

>  <original_smiles>  (356) 
Cc1cnc2ncn(C3CC4CC4C3)c2n1

>  <smiles>  (356) 
[H]c1nc2nc([H])n(C3([H])C([H])([H])C4([H])C([H])([H])C4([H])C3([H])[H])c2nc1C([H])([H])[H]

$$$$
91:0:1
     RDKit          3D

 30 33  0  0  1  0  0  0  0  0999 V2000
   -1.0037    4.8801    7.9667 C   0  0  0  0  0  0  0  0  0  0  0  0
   -1.2111    3.5467    7.3029 C   0  0  0  0  0  0  0  0  0  0  0  0
   -2.0675    2.5654    7.8742 C   0  0  0  0  0  0  0  0  0  0  0  0
   -2.2760    1.3558    7.3266 N   0  0  0  0  0  0  0  0  0  0  0  0
   -1.6487    1.1511    6.1695 C   0  0  0  0  0  0  0  0  0  0  0  0
   -1.7376    0.0180    5.3837 N   0  0  0  0  0  0  0  0  0  0  0  0
   -0.9569    0.3692    4.3691 C   0  0  0  0  0  0  0  0  0  0  0  0
   -0.3331    1.5527    4.4086 N   0  0  0  0  0  0  0  0  0  0  0  0
    0.6254    2.1084    3.4508 C   0  0  2  0  0  0  0  0  0  0  0  0
    0.4652    1.4384    2.0736 C   0  0  0  0  0  0  0  0  0  0  0  0
    1.4725    0.3025    2.0333 C   0  0  2  0  0  0  0  0  0  0  0  0
    1.6973   -0.7259    3.1312 C   0  0  0  0  0  0  0  0  0  0  0  0
    2.4971    0.5435    3.1127 C   0  0  2  0  0  0  0  0  0  0  0  0
    2.0882    1.7973    3.8618 C   0  0  0  0  0  0  0  0  0  0  0  0
   -0.7907    2.1298    5.5856 C   0  0  0  0  0  0  0  0  0  0  0  0
   -0.5361    3.3496    6.1409 N   0  0  0  0  0  0  0  0  0  0  0  0
   -1.5843    4.9554    8.8898 H   0  0  0  0  0  0  0  0  0  0  0  0
   -1.3119    5.6870    7.3030 H   0  0  0  0  0  0  0  0  0  0  0  0
    0.0501    5.0216    8.2094 H   0  0  0  0  0  0  0  0  0  0  0  0
   -2.5931    2.7557    8.7980 H   0  0  0  0  0  0  0  0  0  0  0  0
   -0.8103   -0.3276    3.5324 H   0  0  0  0  0  0  0  0  0  0  0  0
    0.4606    3.1894    3.3902 H   0  0  0  0  0  0  0  0  0  0  0  0
   -0.5483    1.0893    1.8695 H   0  0  0  0  0  0  0  0  0  0  0  0
    0.6957    2.1612    1.2895 H   0  0  0  0  0  0  0  0  0  0  0  0
    1.8256    0.0510    1.0364 H   0  0  0  0  0  0  0  0  0  0  0  0
    1.0214   -0.8274    3.9707 H   0  0  0  0  0  0  0  0  0  0  0  0
    2.1934   -1.6412    2.8062 H   0  0  0  0  0  0  0  0  0  0  0  0
    3.5618    0.4485    2.8813 H   0  0  0  0  0  0  0  0  0  0  0  0
    2.7436    2.6109    3.5584 H   0  0  0  0  0  0  0  0  0  0  0  0
    2.2137    1.6746    4.9391 H   0  0  0  0  0  0  0  0  0  0  0  0
  1  2  1  0
  1 17  1  0
  1 18  1  0
  1 19  1  0
  2 16  2  0
  2  3  1  0
  3  4  2  0
  3 20  1  0
  4  5  1  0
  5 15  2  0
  5  6  1  0
  6  7  2  0
  7  8  1  0
  7 21  1  0
  8  9  1  0
  8 15  1  0
  9 14  1  0
  9 10  1  0
  9 22  1  6
 10 11  1  0
 10 23  1  0
 10 24  1  0
 11 13  1  0
 11 12  1  0
 11 25  1  6
 12 13  1  0
 12 26  1  0
 12 27  1  0
 13 14  1  0
 13 28  1  6
 14 29  1  0
 14 30  1  0
 15 16  1  0
M  END
>  <i_m_ct_stereo_status>  (357) 
1

>  <s_m_source_file>  (357) 
/var/tmp/pbs.5076255.sched01/tmp6w_bron9/120d4r_aq7a.sdf

>  <i_m_source_file_index>  (357) 
16

>  <i_lp_mmshare_version>  (357) 
48012

>  <i_f3d_flags>  (357) 
0

>  <s_epik_input>  (357) 
bjFbY0hdYyhbQ0gzXSluYyhjMTIpbihbY0hdbjIpW0NASF0oW0NIMl0zKVtDSDJdW0NASF0oW0NASF0zNClbQ0gyXTQ=

>  <s_epik_cmdline>  (357) 
J2VwaWtfcHl0aG9uJywgJy1waHQnLCAnMi4wJywgJy1waCcsICc3LjAnLCAnLXRuJywgJzgnLCAnLW1hJywgJzIwMCcsICctaW1hZScsICc8aW5maWxlLm1hZT4nLCAnLW9tYWUnLCAnPG91dGZpbGUubWFlPic=

>  <r_lp_tautomer_probability>  (357) 
1

>  <r_epik_Ionization_Penalty>  (357) 
0.00333145

>  <r_epik_Ionization_Penalty_Charging>  (357) 
0

>  <r_epik_Ionization_Penalty_Neutral>  (357) 
0.00333145

>  <r_epik_State_Penalty>  (357) 
0.00235581

>  <r_epik_Charging_Adjusted_Penalty>  (357) 
0.00235581

>  <i_epik_Tot_Q>  (357) 
0

>  <i_epik_Tot_abs_Q>  (357) 
0

>  <s_lp_Force_Field>  (357) 
OPLS3e

>  <r_lp_Energy>  (357) 
26.2734

>  <b_lp_Chiralities_Consistent>  (357) 
1

>  <s_lp_Variant>  (357) 
91:0-1

>  <s_i_glide_gridfile>  (357) 
pfpi4k_grid

>  <i_i_glide_lignum>  (357) 
16

>  <i_i_glide_rotatable_bonds>  (357) 
1

>  <r_i_docking_score>  (357) 
-3.2224

>  <r_i_glide_ligand_efficiency>  (357) 
-0.2014

>  <r_i_glide_ligand_efficiency_sa>  (357) 
-0.507496

>  <r_i_glide_ligand_efficiency_ln>  (357) 
-0.854162

>  <r_i_glide_gscore>  (357) 
-3.2224

>  <r_i_glide_lipo>  (357) 
-0.023318

>  <r_i_glide_hbond>  (357) 
-0.15486

>  <r_i_glide_metal>  (357) 
-0

>  <r_i_glide_rewards>  (357) 
-1.94818

>  <r_i_glide_evdw>  (357) 
-14.9287

>  <r_i_glide_ecoul>  (357) 
-4.14526

>  <r_i_glide_erotb>  (357) 
0.363843

>  <r_i_glide_esite>  (357) 
-0.0916588

>  <r_i_glide_emodel>  (357) 
-22.4354

>  <r_i_glide_energy>  (357) 
-19.074

>  <r_i_glide_einternal>  (357) 
0.0702865

>  <r_i_glide_intrahb_reward>  (357) 
-0

>  <i_i_glide_confnum>  (357) 
1

>  <i_i_glide_posenum>  (357) 
2

>  <r_i_glide_eff_state_penalty>  (357) 
0

>  <ligand_id>  (357) 
91

>  <original_smiles>  (357) 
Cc1cnc2ncn(C3CC4CC4C3)c2n1

>  <smiles>  (357) 
[H]c1nc2nc([H])n(C3([H])C([H])([H])C4([H])C([H])([H])C4([H])C3([H])[H])c2nc1C([H])([H])[H]

$$$$
91:0:2
     RDKit          3D

 30 33  0  0  1  0  0  0  0  0999 V2000
    2.7000   -6.0382    0.5160 C   0  0  0  0  0  0  0  0  0  0  0  0
    3.0713   -4.6326    0.9794 C   0  0  0  0  0  0  0  0  0  0  0  0
    2.7179   -4.1157    2.2446 C   0  0  0  0  0  0  0  0  0  0  0  0
    2.9404   -2.8195    2.6010 N   0  0  0  0  0  0  0  0  0  0  0  0
    3.5038   -2.0466    1.6550 C   0  0  0  0  0  0  0  0  0  0  0  0
    3.7851   -0.6918    1.7255 N   0  0  0  0  0  0  0  0  0  0  0  0
    4.2411   -0.4593    0.4848 C   0  0  0  0  0  0  0  0  0  0  0  0
    4.2808   -1.4808   -0.3695 N   0  0  0  0  0  0  0  0  0  0  0  0
    4.6379   -1.4206   -1.7975 C   0  0  2  0  0  0  0  0  0  0  0  0
    3.4350   -1.0396   -2.7068 C   0  0  0  0  0  0  0  0  0  0  0  0
    2.8680   -2.3343   -3.2668 C   0  0  2  0  0  0  0  0  0  0  0  0
    2.4396   -3.4481   -2.3782 C   0  0  0  0  0  0  0  0  0  0  0  0
    3.8546   -3.4283   -2.9601 C   0  0  2  0  0  0  0  0  0  0  0  0
    5.0892   -2.7915   -2.3200 C   0  0  0  0  0  0  0  0  0  0  0  0
    3.8649   -2.5722    0.4077 C   0  0  0  0  0  0  0  0  0  0  0  0
    3.7671   -3.9073    0.0906 N   0  0  0  0  0  0  0  0  0  0  0  0
    2.2854   -6.6216    1.3265 H   0  0  0  0  0  0  0  0  0  0  0  0
    3.5935   -6.5382    0.1413 H   0  0  0  0  0  0  0  0  0  0  0  0
    1.9692   -6.0344   -0.3019 H   0  0  0  0  0  0  0  0  0  0  0  0
    2.2774   -4.7642    2.9672 H   0  0  0  0  0  0  0  0  0  0  0  0
    4.5810    0.5315    0.1885 H   0  0  0  0  0  0  0  0  0  0  0  0
    5.4261   -0.6754   -1.8935 H   0  0  0  0  0  0  0  0  0  0  0  0
    2.6602   -0.4794   -2.1903 H   0  0  0  0  0  0  0  0  0  0  0  0
    3.7621   -0.4349   -3.5568 H   0  0  0  0  0  0  0  0  0  0  0  0
    2.3304   -2.2908   -4.2043 H   0  0  0  0  0  0  0  0  0  0  0  0
    2.1149   -3.0573   -1.4082 H   0  0  0  0  0  0  0  0  0  0  0  0
    1.8108   -4.2434   -2.7254 H   0  0  0  0  0  0  0  0  0  0  0  0
    4.0715   -4.1585   -3.7258 H   0  0  0  0  0  0  0  0  0  0  0  0
    5.8813   -2.6921   -3.0638 H   0  0  0  0  0  0  0  0  0  0  0  0
    5.5216   -3.4176   -1.5413 H   0  0  0  0  0  0  0  0  0  0  0  0
  1  2  1  0
  1 17  1  0
  1 18  1  0
  1 19  1  0
  2 16  2  0
  2  3  1  0
  3  4  2  0
  3 20  1  0
  4  5  1  0
  5 15  2  0
  5  6  1  0
  6  7  2  0
  7  8  1  0
  7 21  1  0
  8  9  1  0
  8 15  1  0
  9 14  1  0
  9 10  1  0
  9 22  1  1
 10 11  1  0
 10 23  1  0
 10 24  1  0
 11 13  1  0
 11 12  1  0
 11 25  1  6
 12 13  1  0
 12 26  1  0
 12 27  1  0
 13 14  1  0
 13 28  1  6
 14 29  1  0
 14 30  1  0
 15 16  1  0
M  END
>  <i_m_ct_stereo_status>  (358) 
1

>  <s_m_source_file>  (358) 
/var/tmp/pbs.5076255.sched01/tmp6w_bron9/120d4r_aq7a.sdf

>  <i_m_source_file_index>  (358) 
16

>  <i_lp_mmshare_version>  (358) 
48012

>  <i_f3d_flags>  (358) 
0

>  <s_epik_input>  (358) 
bjFbY0hdYyhbQ0gzXSluYyhjMTIpbihbY0hdbjIpW0NASF0oW0NIMl0zKVtDSDJdW0NASF0oW0NASF0zNClbQ0gyXTQ=

>  <s_epik_cmdline>  (358) 
J2VwaWtfcHl0aG9uJywgJy1waHQnLCAnMi4wJywgJy1waCcsICc3LjAnLCAnLXRuJywgJzgnLCAnLW1hJywgJzIwMCcsICctaW1hZScsICc8aW5maWxlLm1hZT4nLCAnLW9tYWUnLCAnPG91dGZpbGUubWFlPic=

>  <r_lp_tautomer_probability>  (358) 
1

>  <r_epik_Ionization_Penalty>  (358) 
0.00333145

>  <r_epik_Ionization_Penalty_Charging>  (358) 
0

>  <r_epik_Ionization_Penalty_Neutral>  (358) 
0.00333145

>  <r_epik_State_Penalty>  (358) 
0.00235581

>  <r_epik_Charging_Adjusted_Penalty>  (358) 
0.00235581

>  <i_epik_Tot_Q>  (358) 
0

>  <i_epik_Tot_abs_Q>  (358) 
0

>  <s_lp_Force_Field>  (358) 
OPLS3e

>  <r_lp_Energy>  (358) 
26.2734

>  <b_lp_Chiralities_Consistent>  (358) 
1

>  <s_lp_Variant>  (358) 
91:0-1

>  <s_i_glide_gridfile>  (358) 
pfpi4k_grid

>  <i_i_glide_lignum>  (358) 
16

>  <i_i_glide_rotatable_bonds>  (358) 
1

>  <r_i_docking_score>  (358) 
-3.12681

>  <r_i_glide_ligand_efficiency>  (358) 
-0.195426

>  <r_i_glide_ligand_efficiency_sa>  (358) 
-0.492442

>  <r_i_glide_ligand_efficiency_ln>  (358) 
-0.828825

>  <r_i_glide_gscore>  (358) 
-3.12681

>  <r_i_glide_lipo>  (358) 
-0.394872

>  <r_i_glide_hbond>  (358) 
0

>  <r_i_glide_metal>  (358) 
-0

>  <r_i_glide_rewards>  (358) 
-2.11947

>  <r_i_glide_evdw>  (358) 
-19.4101

>  <r_i_glide_ecoul>  (358) 
0.356394

>  <r_i_glide_erotb>  (358) 
0.363843

>  <r_i_glide_esite>  (358) 
-0.0592711

>  <r_i_glide_emodel>  (358) 
-20.6342

>  <r_i_glide_energy>  (358) 
-19.0537

>  <r_i_glide_einternal>  (358) 
1.17125

>  <r_i_glide_intrahb_reward>  (358) 
-0

>  <i_i_glide_confnum>  (358) 
2

>  <i_i_glide_posenum>  (358) 
10

>  <r_i_glide_eff_state_penalty>  (358) 
0

>  <ligand_id>  (358) 
91

>  <original_smiles>  (358) 
Cc1cnc2ncn(C3CC4CC4C3)c2n1

>  <smiles>  (358) 
[H]c1nc2nc([H])n(C3([H])C([H])([H])C4([H])C([H])([H])C4([H])C3([H])[H])c2nc1C([H])([H])[H]

$$$$
91:1:0
     RDKit          3D

 30 33  0  0  1  0  0  0  0  0999 V2000
   -1.3360    6.0535    8.9146 C   0  0  0  0  0  0  0  0  0  0  0  0
   -1.5856    4.6509    8.4102 C   0  0  0  0  0  0  0  0  0  0  0  0
   -2.3105    3.7092    9.1873 C   0  0  0  0  0  0  0  0  0  0  0  0
   -2.5776    2.4509    8.7695 N   0  0  0  0  0  0  0  0  0  0  0  0
   -2.0950    2.1544    7.5603 C   0  0  0  0  0  0  0  0  0  0  0  0
   -2.2093    0.9440    6.9071 N   0  0  0  0  0  0  0  0  0  0  0  0
   -1.5679    1.1979    5.7765 C   0  0  0  0  0  0  0  0  0  0  0  0
   -1.0491    2.4330    5.6105 N   0  0  0  0  0  0  0  0  0  0  0  0
   -0.3177    2.9224    4.4524 C   0  0  1  0  0  0  0  0  0  0  0  0
    0.9792    2.1094    4.2610 C   0  0  0  0  0  0  0  0  0  0  0  0
    0.6589    1.0633    3.2189 C   0  0  2  0  0  0  0  0  0  0  0  0
    0.6307    1.3751    1.7476 C   0  0  0  0  0  0  0  0  0  0  0  0
   -0.6435    1.4385    2.5482 C   0  0  2  0  0  0  0  0  0  0  0  0
   -1.1540    2.7163    3.1737 C   0  0  0  0  0  0  0  0  0  0  0  0
   -1.3668    3.1021    6.7839 C   0  0  0  0  0  0  0  0  0  0  0  0
   -1.0864    4.3735    7.1807 N   0  0  0  0  0  0  0  0  0  0  0  0
   -1.7638    6.1943    9.9062 H   0  0  0  0  0  0  0  0  0  0  0  0
   -1.7828    6.7821    8.2403 H   0  0  0  0  0  0  0  0  0  0  0  0
   -0.2661    6.2446    8.9670 H   0  0  0  0  0  0  0  0  0  0  0  0
   -2.6881    3.9616   10.1647 H   0  0  0  0  0  0  0  0  0  0  0  0
   -1.4705    0.4403    5.0209 H   0  0  0  0  0  0  0  0  0  0  0  0
   -0.0932    3.9784    4.6017 H   0  0  0  0  0  0  0  0  0  0  0  0
    1.7867    2.7460    3.8974 H   0  0  0  0  0  0  0  0  0  0  0  0
    1.3291    1.6395    5.1824 H   0  0  0  0  0  0  0  0  0  0  0  0
    0.7860    0.0254    3.5205 H   0  0  0  0  0  0  0  0  0  0  0  0
    1.0720    2.3133    1.4249 H   0  0  0  0  0  0  0  0  0  0  0  0
    0.7429    0.5464    1.0531 H   0  0  0  0  0  0  0  0  0  0  0  0
   -1.3774    0.6458    2.4061 H   0  0  0  0  0  0  0  0  0  0  0  0
   -2.2271    2.6460    3.3619 H   0  0  0  0  0  0  0  0  0  0  0  0
   -1.0048    3.5428    2.4812 H   0  0  0  0  0  0  0  0  0  0  0  0
  1  2  1  0
  1 17  1  0
  1 18  1  0
  1 19  1  0
  2 16  2  0
  2  3  1  0
  3  4  2  0
  3 20  1  0
  4  5  1  0
  5 15  2  0
  5  6  1  0
  6  7  2  0
  7  8  1  0
  7 21  1  0
  8  9  1  0
  8 15  1  0
  9 14  1  0
  9 10  1  0
  9 22  1  1
 10 11  1  0
 10 23  1  0
 10 24  1  0
 11 13  1  0
 11 12  1  0
 11 25  1  6
 12 13  1  0
 12 26  1  0
 12 27  1  0
 13 14  1  0
 13 28  1  6
 14 29  1  0
 14 30  1  0
 15 16  1  0
M  END
>  <i_m_ct_stereo_status>  (359) 
1

>  <s_m_source_file>  (359) 
/var/tmp/pbs.5076255.sched01/tmp6w_bron9/120d4r_aq7a.sdf

>  <i_m_source_file_index>  (359) 
17

>  <i_lp_mmshare_version>  (359) 
48012

>  <i_f3d_flags>  (359) 
0

>  <s_epik_input>  (359) 
bjFbY0hdYyhbQ0gzXSluYyhjMTIpbihbY0hdbjIpW0NASF0oW0NIMl0zKVtDSDJdW0NASF0oW0NASF0zNClbQ0gyXTQ=

>  <s_epik_cmdline>  (359) 
J2VwaWtfcHl0aG9uJywgJy1waHQnLCAnMi4wJywgJy1waCcsICc3LjAnLCAnLXRuJywgJzgnLCAnLW1hJywgJzIwMCcsICctaW1hZScsICc8aW5maWxlLm1hZT4nLCAnLW9tYWUnLCAnPG91dGZpbGUubWFlPic=

>  <r_lp_tautomer_probability>  (359) 
1

>  <r_epik_Ionization_Penalty>  (359) 
0.00333145

>  <r_epik_Ionization_Penalty_Charging>  (359) 
0

>  <r_epik_Ionization_Penalty_Neutral>  (359) 
0.00333145

>  <r_epik_State_Penalty>  (359) 
0.00235581

>  <r_epik_Charging_Adjusted_Penalty>  (359) 
0.00235581

>  <i_epik_Tot_Q>  (359) 
0

>  <i_epik_Tot_abs_Q>  (359) 
0

>  <s_lp_Force_Field>  (359) 
OPLS3e

>  <r_lp_Energy>  (359) 
26.0137

>  <b_lp_Chiralities_Consistent>  (359) 
1

>  <s_lp_Variant>  (359) 
91:0-2

>  <s_i_glide_gridfile>  (359) 
pfpi4k_grid

>  <i_i_glide_lignum>  (359) 
17

>  <i_i_glide_rotatable_bonds>  (359) 
1

>  <r_i_docking_score>  (359) 
-3.34499

>  <r_i_glide_ligand_efficiency>  (359) 
-0.209062

>  <r_i_glide_ligand_efficiency_sa>  (359) 
-0.526803

>  <r_i_glide_ligand_efficiency_ln>  (359) 
-0.886656

>  <r_i_glide_gscore>  (359) 
-3.34499

>  <r_i_glide_lipo>  (359) 
0

>  <r_i_glide_hbond>  (359) 
-0.16

>  <r_i_glide_metal>  (359) 
-0

>  <r_i_glide_rewards>  (359) 
-1.98746

>  <r_i_glide_evdw>  (359) 
-14.6691

>  <r_i_glide_ecoul>  (359) 
-5.16181

>  <r_i_glide_erotb>  (359) 
0.363843

>  <r_i_glide_esite>  (359) 
-0.0536442

>  <r_i_glide_emodel>  (359) 
-24.4483

>  <r_i_glide_energy>  (359) 
-19.8309

>  <r_i_glide_einternal>  (359) 
0.0142828

>  <r_i_glide_intrahb_reward>  (359) 
-0

>  <i_i_glide_confnum>  (359) 
5

>  <i_i_glide_posenum>  (359) 
14

>  <r_i_glide_eff_state_penalty>  (359) 
0

>  <ligand_id>  (359) 
91

>  <original_smiles>  (359) 
Cc1cnc2ncn(C3CC4CC4C3)c2n1

>  <smiles>  (359) 
[H]c1nc2nc([H])n(C3([H])C([H])([H])C4([H])C([H])([H])C4([H])C3([H])[H])c2nc1C([H])([H])[H]

$$$$
91:1:1
     RDKit          3D

 30 33  0  0  1  0  0  0  0  0999 V2000
   -1.0362    4.9214    8.0188 C   0  0  0  0  0  0  0  0  0  0  0  0
   -1.2897    3.5933    7.3386 C   0  0  0  0  0  0  0  0  0  0  0  0
   -2.2509    2.6826    7.8547 C   0  0  0  0  0  0  0  0  0  0  0  0
   -2.5022    1.4759    7.2948 N   0  0  0  0  0  0  0  0  0  0  0  0
   -1.7719    1.2005    6.2199 C   0  0  0  0  0  0  0  0  0  0  0  0
   -1.7920    0.0219    5.5034 N   0  0  0  0  0  0  0  0  0  0  0  0
   -0.9072    0.2877    4.5428 C   0  0  0  0  0  0  0  0  0  0  0  0
   -0.2866    1.4890    4.5726 N   0  0  0  0  0  0  0  0  0  0  0  0
    0.7549    1.9812    3.6753 C   0  0  1  0  0  0  0  0  0  0  0  0
    2.1051    1.3071    3.9959 C   0  0  0  0  0  0  0  0  0  0  0  0
    2.2407    0.1694    3.0130 C   0  0  2  0  0  0  0  0  0  0  0  0
    2.6788    0.3790    1.5866 C   0  0  0  0  0  0  0  0  0  0  0  0
    1.2117    0.3589    1.9265 C   0  0  2  0  0  0  0  0  0  0  0  0
    0.4382    1.6228    2.2120 C   0  0  0  0  0  0  0  0  0  0  0  0
   -0.8225    2.1197    5.6887 C   0  0  0  0  0  0  0  0  0  0  0  0
   -0.5530    3.3465    6.2282 N   0  0  0  0  0  0  0  0  0  0  0  0
   -1.6828    5.0466    8.8866 H   0  0  0  0  0  0  0  0  0  0  0  0
   -1.2261    5.7384    7.3317 H   0  0  0  0  0  0  0  0  0  0  0  0
   -0.0040    4.9954    8.3476 H   0  0  0  0  0  0  0  0  0  0  0  0
   -2.8288    2.9116    8.7395 H   0  0  0  0  0  0  0  0  0  0  0  0
   -0.6936   -0.4411    3.7805 H   0  0  0  0  0  0  0  0  0  0  0  0
    0.8314    3.0650    3.7887 H   0  0  0  0  0  0  0  0  0  0  0  0
    2.9305    1.9988    3.8497 H   0  0  0  0  0  0  0  0  0  0  0  0
    2.1685    0.9380    5.0234 H   0  0  0  0  0  0  0  0  0  0  0  0
    2.3312   -0.8287    3.4388 H   0  0  0  0  0  0  0  0  0  0  0  0
    3.1216    1.3379    1.3224 H   0  0  0  0  0  0  0  0  0  0  0  0
    3.0643   -0.4793    1.0401 H   0  0  0  0  0  0  0  0  0  0  0  0
    0.6262   -0.5167    1.6529 H   0  0  0  0  0  0  0  0  0  0  0  0
   -0.6280    1.4813    2.0102 H   0  0  0  0  0  0  0  0  0  0  0  0
    0.7930    2.4042    1.5470 H   0  0  0  0  0  0  0  0  0  0  0  0
  1  2  1  0
  1 17  1  0
  1 18  1  0
  1 19  1  0
  2 16  2  0
  2  3  1  0
  3  4  2  0
  3 20  1  0
  4  5  1  0
  5 15  2  0
  5  6  1  0
  6  7  2  0
  7  8  1  0
  7 21  1  0
  8  9  1  0
  8 15  1  0
  9 14  1  0
  9 10  1  0
  9 22  1  6
 10 11  1  0
 10 23  1  0
 10 24  1  0
 11 13  1  0
 11 12  1  0
 11 25  1  1
 12 13  1  0
 12 26  1  0
 12 27  1  0
 13 14  1  0
 13 28  1  6
 14 29  1  0
 14 30  1  0
 15 16  1  0
M  END
>  <i_m_ct_stereo_status>  (360) 
1

>  <s_m_source_file>  (360) 
/var/tmp/pbs.5076255.sched01/tmp6w_bron9/120d4r_aq7a.sdf

>  <i_m_source_file_index>  (360) 
17

>  <i_lp_mmshare_version>  (360) 
48012

>  <i_f3d_flags>  (360) 
0

>  <s_epik_input>  (360) 
bjFbY0hdYyhbQ0gzXSluYyhjMTIpbihbY0hdbjIpW0NASF0oW0NIMl0zKVtDSDJdW0NASF0oW0NASF0zNClbQ0gyXTQ=

>  <s_epik_cmdline>  (360) 
J2VwaWtfcHl0aG9uJywgJy1waHQnLCAnMi4wJywgJy1waCcsICc3LjAnLCAnLXRuJywgJzgnLCAnLW1hJywgJzIwMCcsICctaW1hZScsICc8aW5maWxlLm1hZT4nLCAnLW9tYWUnLCAnPG91dGZpbGUubWFlPic=

>  <r_lp_tautomer_probability>  (360) 
1

>  <r_epik_Ionization_Penalty>  (360) 
0.00333145

>  <r_epik_Ionization_Penalty_Charging>  (360) 
0

>  <r_epik_Ionization_Penalty_Neutral>  (360) 
0.00333145

>  <r_epik_State_Penalty>  (360) 
0.00235581

>  <r_epik_Charging_Adjusted_Penalty>  (360) 
0.00235581

>  <i_epik_Tot_Q>  (360) 
0

>  <i_epik_Tot_abs_Q>  (360) 
0

>  <s_lp_Force_Field>  (360) 
OPLS3e

>  <r_lp_Energy>  (360) 
26.0137

>  <b_lp_Chiralities_Consistent>  (360) 
1

>  <s_lp_Variant>  (360) 
91:0-2

>  <s_i_glide_gridfile>  (360) 
pfpi4k_grid

>  <i_i_glide_lignum>  (360) 
17

>  <i_i_glide_rotatable_bonds>  (360) 
1

>  <r_i_docking_score>  (360) 
-3.23294

>  <r_i_glide_ligand_efficiency>  (360) 
-0.202059

>  <r_i_glide_ligand_efficiency_sa>  (360) 
-0.509156

>  <r_i_glide_ligand_efficiency_ln>  (360) 
-0.856955

>  <r_i_glide_gscore>  (360) 
-3.23294

>  <r_i_glide_lipo>  (360) 
-0.0759328

>  <r_i_glide_hbond>  (360) 
-0.115113

>  <r_i_glide_metal>  (360) 
-0

>  <r_i_glide_rewards>  (360) 
-1.94818

>  <r_i_glide_evdw>  (360) 
-15.0675

>  <r_i_glide_ecoul>  (360) 
-4.08006

>  <r_i_glide_erotb>  (360) 
0.363843

>  <r_i_glide_esite>  (360) 
-0.0921706

>  <r_i_glide_emodel>  (360) 
-23.4421

>  <r_i_glide_energy>  (360) 
-19.1475

>  <r_i_glide_einternal>  (360) 
0.349634

>  <r_i_glide_intrahb_reward>  (360) 
-0

>  <i_i_glide_confnum>  (360) 
5

>  <i_i_glide_posenum>  (360) 
1

>  <r_i_glide_eff_state_penalty>  (360) 
0

>  <ligand_id>  (360) 
91

>  <original_smiles>  (360) 
Cc1cnc2ncn(C3CC4CC4C3)c2n1

>  <smiles>  (360) 
[H]c1nc2nc([H])n(C3([H])C([H])([H])C4([H])C([H])([H])C4([H])C3([H])[H])c2nc1C([H])([H])[H]

$$$$
91:1:2
     RDKit          3D

 30 33  0  0  1  0  0  0  0  0999 V2000
    0.7772   -7.0596    1.4053 C   0  0  0  0  0  0  0  0  0  0  0  0
    2.0616   -6.2675    1.2995 C   0  0  0  0  0  0  0  0  0  0  0  0
    3.0954   -6.4200    2.2598 C   0  0  0  0  0  0  0  0  0  0  0  0
    4.2672   -5.7452    2.2047 N   0  0  0  0  0  0  0  0  0  0  0  0
    4.3819   -4.9209    1.1643 C   0  0  0  0  0  0  0  0  0  0  0  0
    5.4720   -4.1279    0.8616 N   0  0  0  0  0  0  0  0  0  0  0  0
    5.0576   -3.5368   -0.2545 C   0  0  0  0  0  0  0  0  0  0  0  0
    3.8311   -3.8440   -0.7231 N   0  0  0  0  0  0  0  0  0  0  0  0
    3.1841   -3.3381   -1.9275 C   0  0  1  0  0  0  0  0  0  0  0  0
    3.1372   -1.8003   -1.9051 C   0  0  0  0  0  0  0  0  0  0  0  0
    4.3025   -1.3352   -2.7331 C   0  0  2  0  0  0  0  0  0  0  0  0
    4.2574   -1.3107   -4.2365 C   0  0  0  0  0  0  0  0  0  0  0  0
    4.8228   -2.5087   -3.5199 C   0  0  2  0  0  0  0  0  0  0  0  0
    3.9882   -3.7153   -3.1897 C   0  0  0  0  0  0  0  0  0  0  0  0
    3.3411   -4.7645    0.2001 C   0  0  0  0  0  0  0  0  0  0  0  0
    2.1456   -5.4252    0.2424 N   0  0  0  0  0  0  0  0  0  0  0  0
    0.7868   -7.7016    2.2846 H   0  0  0  0  0  0  0  0  0  0  0  0
    0.6412   -7.6871    0.5278 H   0  0  0  0  0  0  0  0  0  0  0  0
   -0.0772   -6.3930    1.4795 H   0  0  0  0  0  0  0  0  0  0  0  0
    2.9898   -7.0898    3.0974 H   0  0  0  0  0  0  0  0  0  0  0  0
    5.6884   -2.8312   -0.7696 H   0  0  0  0  0  0  0  0  0  0  0  0
    2.1732   -3.7459   -1.9909 H   0  0  0  0  0  0  0  0  0  0  0  0
    2.2205   -1.4343   -2.3734 H   0  0  0  0  0  0  0  0  0  0  0  0
    3.1737   -1.3757   -0.9003 H   0  0  0  0  0  0  0  0  0  0  0  0
    5.0321   -0.7078   -2.2276 H   0  0  0  0  0  0  0  0  0  0  0  0
    3.2866   -1.4092   -4.7214 H   0  0  0  0  0  0  0  0  0  0  0  0
    4.9607   -0.6465   -4.7223 H   0  0  0  0  0  0  0  0  0  0  0  0
    5.8997   -2.6640   -3.5098 H   0  0  0  0  0  0  0  0  0  0  0  0
    4.6258   -4.5898   -3.0479 H   0  0  0  0  0  0  0  0  0  0  0  0
    3.3234   -3.9286   -4.0247 H   0  0  0  0  0  0  0  0  0  0  0  0
  1  2  1  0
  1 17  1  0
  1 18  1  0
  1 19  1  0
  2 16  2  0
  2  3  1  0
  3  4  2  0
  3 20  1  0
  4  5  1  0
  5 15  2  0
  5  6  1  0
  6  7  2  0
  7  8  1  0
  7 21  1  0
  8  9  1  0
  8 15  1  0
  9 14  1  0
  9 10  1  0
  9 22  1  6
 10 11  1  0
 10 23  1  0
 10 24  1  0
 11 13  1  0
 11 12  1  0
 11 25  1  1
 12 13  1  0
 12 26  1  0
 12 27  1  0
 13 14  1  0
 13 28  1  6
 14 29  1  0
 14 30  1  0
 15 16  1  0
M  END
>  <i_m_ct_stereo_status>  (361) 
1

>  <s_m_source_file>  (361) 
/var/tmp/pbs.5076255.sched01/tmp6w_bron9/120d4r_aq7a.sdf

>  <i_m_source_file_index>  (361) 
17

>  <i_lp_mmshare_version>  (361) 
48012

>  <i_f3d_flags>  (361) 
0

>  <s_epik_input>  (361) 
bjFbY0hdYyhbQ0gzXSluYyhjMTIpbihbY0hdbjIpW0NASF0oW0NIMl0zKVtDSDJdW0NASF0oW0NASF0zNClbQ0gyXTQ=

>  <s_epik_cmdline>  (361) 
J2VwaWtfcHl0aG9uJywgJy1waHQnLCAnMi4wJywgJy1waCcsICc3LjAnLCAnLXRuJywgJzgnLCAnLW1hJywgJzIwMCcsICctaW1hZScsICc8aW5maWxlLm1hZT4nLCAnLW9tYWUnLCAnPG91dGZpbGUubWFlPic=

>  <r_lp_tautomer_probability>  (361) 
1

>  <r_epik_Ionization_Penalty>  (361) 
0.00333145

>  <r_epik_Ionization_Penalty_Charging>  (361) 
0

>  <r_epik_Ionization_Penalty_Neutral>  (361) 
0.00333145

>  <r_epik_State_Penalty>  (361) 
0.00235581

>  <r_epik_Charging_Adjusted_Penalty>  (361) 
0.00235581

>  <i_epik_Tot_Q>  (361) 
0

>  <i_epik_Tot_abs_Q>  (361) 
0

>  <s_lp_Force_Field>  (361) 
OPLS3e

>  <r_lp_Energy>  (361) 
26.0137

>  <b_lp_Chiralities_Consistent>  (361) 
1

>  <s_lp_Variant>  (361) 
91:0-2

>  <s_i_glide_gridfile>  (361) 
pfpi4k_grid

>  <i_i_glide_lignum>  (361) 
17

>  <i_i_glide_rotatable_bonds>  (361) 
1

>  <r_i_docking_score>  (361) 
-2.99824

>  <r_i_glide_ligand_efficiency>  (361) 
-0.18739

>  <r_i_glide_ligand_efficiency_sa>  (361) 
-0.472193

>  <r_i_glide_ligand_efficiency_ln>  (361) 
-0.794743

>  <r_i_glide_gscore>  (361) 
-2.99824

>  <r_i_glide_lipo>  (361) 
-0.0865755

>  <r_i_glide_hbond>  (361) 
-0.0110019

>  <r_i_glide_metal>  (361) 
-0

>  <r_i_glide_rewards>  (361) 
-2.05555

>  <r_i_glide_evdw>  (361) 
-18.9757

>  <r_i_glide_ecoul>  (361) 
-1.52722

>  <r_i_glide_erotb>  (361) 
0.363843

>  <r_i_glide_esite>  (361) 
-0.031086

>  <r_i_glide_emodel>  (361) 
-24.6544

>  <r_i_glide_energy>  (361) 
-20.5029

>  <r_i_glide_einternal>  (361) 
0.0156104

>  <r_i_glide_intrahb_reward>  (361) 
-0

>  <i_i_glide_confnum>  (361) 
5

>  <i_i_glide_posenum>  (361) 
15

>  <r_i_glide_eff_state_penalty>  (361) 
0

>  <ligand_id>  (361) 
91

>  <original_smiles>  (361) 
Cc1cnc2ncn(C3CC4CC4C3)c2n1

>  <smiles>  (361) 
[H]c1nc2nc([H])n(C3([H])C([H])([H])C4([H])C([H])([H])C4([H])C3([H])[H])c2nc1C([H])([H])[H]

$$$$
92:0:0
     RDKit          3D

 44 50  0  0  1  0  0  0  0  0999 V2000
    1.1329   -0.1120    6.5549 C   0  0  0  0  0  0  0  0  0  0  0  0
    1.0246    0.8241    5.4973 O   0  0  0  0  0  0  0  0  0  0  0  0
    1.4322    2.1782    5.7275 C   0  0  1  0  0  0  0  0  0  0  0  0
    2.8034    2.3070    6.4174 C   0  0  0  0  0  0  0  0  0  0  0  0
    3.2717    3.7733    6.5488 C   0  0  0  0  0  0  0  0  0  0  0  0
    3.2263    4.5343    5.2258 C   0  0  0  0  0  0  0  0  0  0  0  0
    4.1322    5.3082    4.9105 O   0  0  0  0  0  0  0  0  0  0  0  0
    2.0354    4.2864    4.2953 C   0  0  2  0  0  0  0  0  0  0  0  0
    0.7813    4.9127    4.7512 O   0  0  0  0  0  0  0  0  0  0  0  0
   -0.2444    4.1310    4.2314 C   0  0  0  0  0  0  0  0  0  0  0  0
   -1.5560    3.8726    4.7158 C   0  0  0  0  0  0  0  0  0  0  0  0
   -2.2819    3.0731    3.7488 C   0  0  0  0  0  0  0  0  0  0  0  0
   -1.6125    2.1331    2.8787 C   0  0  0  0  0  0  0  0  0  0  0  0
   -0.2071    2.1390    2.9013 C   0  0  0  0  0  0  0  0  0  0  0  0
    0.3936    3.1166    3.5852 C   0  0  0  0  0  0  0  0  0  0  0  0
    1.6320    2.8058    4.2408 C   0  0  2  0  0  0  0  0  0  0  0  0
    2.1156    1.8494    3.2596 O   0  0  0  0  0  0  0  0  0  0  0  0
    0.9581    1.2376    2.5650 C   0  0  0  0  0  0  0  0  0  0  0  0
   -1.1432    2.9916    5.9150 C   0  0  2  0  0  0  0  0  0  0  0  0
   -1.7094    2.9130    7.3003 C   0  0  0  0  0  0  0  0  0  0  0  0
   -2.8715    3.0302    8.0530 C   0  0  0  0  0  0  0  0  0  0  0  0
   -2.6850    2.7755    9.4374 C   0  0  0  0  0  0  0  0  0  0  0  0
   -1.4188    2.3967    9.9880 C   0  0  0  0  0  0  0  0  0  0  0  0
   -0.2276    2.2998    9.2132 C   0  0  0  0  0  0  0  0  0  0  0  0
   -0.4128    2.5663    7.8521 C   0  0  0  0  0  0  0  0  0  0  0  0
    0.3127    2.9326    6.5587 C   0  0  1  0  0  0  0  0  0  0  0  0
    0.6715   -1.0462    6.2424 H   0  0  0  0  0  0  0  0  0  0  0  0
    0.6224    0.2123    7.4556 H   0  0  0  0  0  0  0  0  0  0  0  0
    2.1733   -0.3215    6.7908 H   0  0  0  0  0  0  0  0  0  0  0  0
    2.7518    1.8769    7.4137 H   0  0  0  0  0  0  0  0  0  0  0  0
    3.5443    1.7320    5.8649 H   0  0  0  0  0  0  0  0  0  0  0  0
    2.6650    4.3236    7.2675 H   0  0  0  0  0  0  0  0  0  0  0  0
    4.2890    3.7991    6.9311 H   0  0  0  0  0  0  0  0  0  0  0  0
    2.2801    4.6679    3.2966 H   0  0  0  0  0  0  0  0  0  0  0  0
   -3.3363    2.9129    3.9096 H   0  0  0  0  0  0  0  0  0  0  0  0
   -2.1522    1.3605    2.3567 H   0  0  0  0  0  0  0  0  0  0  0  0
    0.7727    0.2315    2.9311 H   0  0  0  0  0  0  0  0  0  0  0  0
    1.1370    1.2039    1.4862 H   0  0  0  0  0  0  0  0  0  0  0  0
   -1.3488    1.9714    5.5852 H   0  0  0  0  0  0  0  0  0  0  0  0
   -3.8249    3.3110    7.6291 H   0  0  0  0  0  0  0  0  0  0  0  0
   -3.5261    2.8743   10.1033 H   0  0  0  0  0  0  0  0  0  0  0  0
   -1.3843    2.1959   11.0490 H   0  0  0  0  0  0  0  0  0  0  0  0
    0.7336    2.0711    9.6576 H   0  0  0  0  0  0  0  0  0  0  0  0
    0.6151    3.9465    6.8285 H   0  0  0  0  0  0  0  0  0  0  0  0
  1  2  1  0
  1 27  1  0
  1 28  1  0
  1 29  1  0
  3  2  1  6
  3 16  1  0
  3 26  1  0
  3  4  1  0
  4  5  1  0
  4 30  1  0
  4 31  1  0
  5  6  1  0
  5 32  1  0
  5 33  1  0
  6  7  2  0
  6  8  1  0
  8 16  1  0
  8  9  1  0
  8 34  1  6
  9 10  1  0
 10 15  2  0
 10 11  1  0
 11 12  2  0
 11 19  1  0
 12 13  1  0
 12 35  1  0
 13 14  2  0
 13 36  1  0
 14 18  1  0
 14 15  1  0
 15 16  1  0
 16 17  1  6
 17 18  1  0
 18 37  1  0
 18 38  1  0
 19 26  1  0
 19 20  1  0
 19 39  1  6
 20 25  2  0
 20 21  1  0
 21 22  2  0
 21 40  1  0
 22 23  1  0
 22 41  1  0
 23 24  2  0
 23 42  1  0
 24 25  1  0
 24 43  1  0
 25 26  1  0
 26 44  1  1
M  END
>  <i_m_ct_stereo_status>  (362) 
1

>  <s_m_source_file>  (362) 
/var/tmp/pbs.5076255.sched01/tmp6w_bron9/120d4r_aq7a.sdf

>  <i_m_source_file_index>  (362) 
18

>  <i_lp_mmshare_version>  (362) 
48012

>  <i_f3d_flags>  (362) 
0

>  <s_epik_input>  (362) 
W2NIXTFbY0hdW2NIXVtjSF1jMmMxW0NASF0oW0NAQEhdMltDQF0zKFtDQF00NTYpT1tDSDNdKWM3YyhjNWMoW0NIMl1PNilbY0hdW2NIXTcpT1tDQEhdNEMoPU8pW0NIMl1bQ0gyXTM=

>  <s_epik_cmdline>  (362) 
J2VwaWtfcHl0aG9uJywgJy1waHQnLCAnMi4wJywgJy1waCcsICc3LjAnLCAnLXRuJywgJzgnLCAnLW1hJywgJzIwMCcsICctaW1hZScsICc8aW5maWxlLm1hZT4nLCAnLW9tYWUnLCAnPG91dGZpbGUubWFlPic=

>  <r_lp_tautomer_probability>  (362) 
1

>  <r_epik_Ionization_Penalty>  (362) 
9.16543e-11

>  <r_epik_Ionization_Penalty_Charging>  (362) 
0

>  <r_epik_Ionization_Penalty_Neutral>  (362) 
9.16543e-11

>  <r_epik_State_Penalty>  (362) 
-0

>  <r_epik_Charging_Adjusted_Penalty>  (362) 
0

>  <i_epik_Tot_Q>  (362) 
0

>  <i_epik_Tot_abs_Q>  (362) 
0

>  <s_lp_Force_Field>  (362) 
OPLS3e

>  <r_lp_Energy>  (362) 
173.471

>  <b_lp_Chiralities_Consistent>  (362) 
1

>  <s_lp_Variant>  (362) 
92:0-1

>  <s_i_glide_gridfile>  (362) 
pfpi4k_grid

>  <i_i_glide_lignum>  (362) 
18

>  <i_i_glide_rotatable_bonds>  (362) 
1

>  <r_i_docking_score>  (362) 
-2.49073

>  <r_i_glide_ligand_efficiency>  (362) 
-0.0957973

>  <r_i_glide_ligand_efficiency_sa>  (362) 
-0.283799

>  <r_i_glide_ligand_efficiency_ln>  (362) 
-0.58494

>  <r_i_glide_gscore>  (362) 
-2.49073

>  <r_i_glide_lipo>  (362) 
-0.170335

>  <r_i_glide_hbond>  (362) 
0

>  <r_i_glide_metal>  (362) 
-0

>  <r_i_glide_rewards>  (362) 
-1.04744

>  <r_i_glide_evdw>  (362) 
-20.1277

>  <r_i_glide_ecoul>  (362) 
-1.76835

>  <r_i_glide_erotb>  (362) 
0

>  <r_i_glide_esite>  (362) 
-0.00132159

>  <r_i_glide_emodel>  (362) 
-24.8615

>  <r_i_glide_energy>  (362) 
-21.896

>  <r_i_glide_einternal>  (362) 
0.00552394

>  <r_i_glide_intrahb_reward>  (362) 
-0

>  <i_i_glide_confnum>  (362) 
1

>  <i_i_glide_posenum>  (362) 
11

>  <r_i_glide_eff_state_penalty>  (362) 
0

>  <ligand_id>  (362) 
92

>  <original_smiles>  (362) 
COC12CCC(=O)C3Oc4c(ccc5c4C31OC5)C1c3ccccc3C12

>  <smiles>  (362) 
[H]c1c([H])c([H])c2c(c1[H])C1([H])c3c([H])c([H])c4c5c3OC3([H])C(=O)C([H])([H])C([H])([H])C(OC([H])([H])[H])(C21[H])C53OC4([H])[H]

$$$$
92:0:1
     RDKit          3D

 44 50  0  0  1  0  0  0  0  0999 V2000
    1.7749    1.3333    7.2216 C   0  0  0  0  0  0  0  0  0  0  0  0
    1.4836    2.0367    6.0273 O   0  0  0  0  0  0  0  0  0  0  0  0
    1.3335    3.4581    6.0722 C   0  0  1  0  0  0  0  0  0  0  0  0
    2.4864    4.1627    6.8241 C   0  0  0  0  0  0  0  0  0  0  0  0
    2.3781    5.7058    6.7591 C   0  0  0  0  0  0  0  0  0  0  0  0
    2.2115    6.2304    5.3355 C   0  0  0  0  0  0  0  0  0  0  0  0
    2.8185    7.2406    4.9654 O   0  0  0  0  0  0  0  0  0  0  0  0
    1.3057    5.4541    4.3773 C   0  0  2  0  0  0  0  0  0  0  0  0
   -0.1307    5.6044    4.6558 O   0  0  0  0  0  0  0  0  0  0  0  0
   -0.7397    4.4527    4.1811 C   0  0  0  0  0  0  0  0  0  0  0  0
   -1.9105    3.7793    4.6175 C   0  0  0  0  0  0  0  0  0  0  0  0
   -2.1891    2.6588    3.7368 C   0  0  0  0  0  0  0  0  0  0  0  0
   -1.1285    1.9390    3.0773 C   0  0  0  0  0  0  0  0  0  0  0  0
    0.1638    2.4697    3.1928 C   0  0  0  0  0  0  0  0  0  0  0  0
    0.2874    3.6800    3.7458 C   0  0  0  0  0  0  0  0  0  0  0  0
    1.4713    3.9273    4.5234 C   0  0  2  0  0  0  0  0  0  0  0  0
    2.3865    3.1100    3.7343 O   0  0  0  0  0  0  0  0  0  0  0  0
    1.6088    2.0363    3.0701 C   0  0  0  0  0  0  0  0  0  0  0  0
   -1.3625    3.2837    5.9645 C   0  0  2  0  0  0  0  0  0  0  0  0
   -2.0258    3.1627    7.3057 C   0  0  0  0  0  0  0  0  0  0  0  0
   -3.2346    2.9465    7.9415 C   0  0  0  0  0  0  0  0  0  0  0  0
   -3.1150    2.9398    9.3574 C   0  0  0  0  0  0  0  0  0  0  0  0
   -1.8711    3.1133   10.0425 C   0  0  0  0  0  0  0  0  0  0  0  0
   -0.6431    3.3726    9.3779 C   0  0  0  0  0  0  0  0  0  0  0  0
   -0.7593    3.3781    7.9884 C   0  0  0  0  0  0  0  0  0  0  0  0
   -0.0659    3.8419    6.7048 C   0  0  1  0  0  0  0  0  0  0  0  0
    1.7197    0.2627    7.0248 H   0  0  0  0  0  0  0  0  0  0  0  0
    1.0687    1.5445    8.0205 H   0  0  0  0  0  0  0  0  0  0  0  0
    2.7829    1.5521    7.5719 H   0  0  0  0  0  0  0  0  0  0  0  0
    2.4782    3.8673    7.8704 H   0  0  0  0  0  0  0  0  0  0  0  0
    3.4503    3.8423    6.4173 H   0  0  0  0  0  0  0  0  0  0  0  0
    1.5356    6.0713    7.3462 H   0  0  0  0  0  0  0  0  0  0  0  0
    3.2676    6.1549    7.1973 H   0  0  0  0  0  0  0  0  0  0  0  0
    1.5087    5.7782    3.3520 H   0  0  0  0  0  0  0  0  0  0  0  0
   -3.1371    2.1518    3.8314 H   0  0  0  0  0  0  0  0  0  0  0  0
   -1.2952    0.9623    2.6472 H   0  0  0  0  0  0  0  0  0  0  0  0
    1.7480    1.0823    3.5720 H   0  0  0  0  0  0  0  0  0  0  0  0
    1.9107    1.9520    2.0228 H   0  0  0  0  0  0  0  0  0  0  0  0
   -1.1618    2.2261    5.7771 H   0  0  0  0  0  0  0  0  0  0  0  0
   -4.1619    2.7833    7.4196 H   0  0  0  0  0  0  0  0  0  0  0  0
   -4.0035    2.7894    9.9450 H   0  0  0  0  0  0  0  0  0  0  0  0
   -1.8920    3.0529   11.1135 H   0  0  0  0  0  0  0  0  0  0  0  0
    0.2800    3.5734    9.9102 H   0  0  0  0  0  0  0  0  0  0  0  0
   -0.1808    4.9175    6.8488 H   0  0  0  0  0  0  0  0  0  0  0  0
  1  2  1  0
  1 27  1  0
  1 28  1  0
  1 29  1  0
  3  2  1  6
  3 16  1  0
  3 26  1  0
  3  4  1  0
  4  5  1  0
  4 30  1  0
  4 31  1  0
  5  6  1  0
  5 32  1  0
  5 33  1  0
  6  7  2  0
  6  8  1  0
  8 16  1  0
  8  9  1  0
  8 34  1  6
  9 10  1  0
 10 15  2  0
 10 11  1  0
 11 12  2  0
 11 19  1  0
 12 13  1  0
 12 35  1  0
 13 14  2  0
 13 36  1  0
 14 18  1  0
 14 15  1  0
 15 16  1  0
 16 17  1  6
 17 18  1  0
 18 37  1  0
 18 38  1  0
 19 26  1  0
 19 20  1  0
 19 39  1  6
 20 25  2  0
 20 21  1  0
 21 22  2  0
 21 40  1  0
 22 23  1  0
 22 41  1  0
 23 24  2  0
 23 42  1  0
 24 25  1  0
 24 43  1  0
 25 26  1  0
 26 44  1  1
M  END
>  <i_m_ct_stereo_status>  (363) 
1

>  <s_m_source_file>  (363) 
/var/tmp/pbs.5076255.sched01/tmp6w_bron9/120d4r_aq7a.sdf

>  <i_m_source_file_index>  (363) 
18

>  <i_lp_mmshare_version>  (363) 
48012

>  <i_f3d_flags>  (363) 
0

>  <s_epik_input>  (363) 
W2NIXTFbY0hdW2NIXVtjSF1jMmMxW0NASF0oW0NAQEhdMltDQF0zKFtDQF00NTYpT1tDSDNdKWM3YyhjNWMoW0NIMl1PNilbY0hdW2NIXTcpT1tDQEhdNEMoPU8pW0NIMl1bQ0gyXTM=

>  <s_epik_cmdline>  (363) 
J2VwaWtfcHl0aG9uJywgJy1waHQnLCAnMi4wJywgJy1waCcsICc3LjAnLCAnLXRuJywgJzgnLCAnLW1hJywgJzIwMCcsICctaW1hZScsICc8aW5maWxlLm1hZT4nLCAnLW9tYWUnLCAnPG91dGZpbGUubWFlPic=

>  <r_lp_tautomer_probability>  (363) 
1

>  <r_epik_Ionization_Penalty>  (363) 
9.16543e-11

>  <r_epik_Ionization_Penalty_Charging>  (363) 
0

>  <r_epik_Ionization_Penalty_Neutral>  (363) 
9.16543e-11

>  <r_epik_State_Penalty>  (363) 
-0

>  <r_epik_Charging_Adjusted_Penalty>  (363) 
0

>  <i_epik_Tot_Q>  (363) 
0

>  <i_epik_Tot_abs_Q>  (363) 
0

>  <s_lp_Force_Field>  (363) 
OPLS3e

>  <r_lp_Energy>  (363) 
173.471

>  <b_lp_Chiralities_Consistent>  (363) 
1

>  <s_lp_Variant>  (363) 
92:0-1

>  <s_i_glide_gridfile>  (363) 
pfpi4k_grid

>  <i_i_glide_lignum>  (363) 
18

>  <i_i_glide_rotatable_bonds>  (363) 
1

>  <r_i_docking_score>  (363) 
-2.47681

>  <r_i_glide_ligand_efficiency>  (363) 
-0.0952618

>  <r_i_glide_ligand_efficiency_sa>  (363) 
-0.282213

>  <r_i_glide_ligand_efficiency_ln>  (363) 
-0.58167

>  <r_i_glide_gscore>  (363) 
-2.47681

>  <r_i_glide_lipo>  (363) 
-0.164894

>  <r_i_glide_hbond>  (363) 
0

>  <r_i_glide_metal>  (363) 
-0

>  <r_i_glide_rewards>  (363) 
-1.04744

>  <r_i_glide_evdw>  (363) 
-20.693

>  <r_i_glide_ecoul>  (363) 
-1.51903

>  <r_i_glide_erotb>  (363) 
0

>  <r_i_glide_esite>  (363) 
-0.00197379

>  <r_i_glide_emodel>  (363) 
-25.0906

>  <r_i_glide_energy>  (363) 
-22.212

>  <r_i_glide_einternal>  (363) 
0.000825981

>  <r_i_glide_intrahb_reward>  (363) 
-0

>  <i_i_glide_confnum>  (363) 
1

>  <i_i_glide_posenum>  (363) 
14

>  <r_i_glide_eff_state_penalty>  (363) 
0

>  <ligand_id>  (363) 
92

>  <original_smiles>  (363) 
COC12CCC(=O)C3Oc4c(ccc5c4C31OC5)C1c3ccccc3C12

>  <smiles>  (363) 
[H]c1c([H])c([H])c2c(c1[H])C1([H])c3c([H])c([H])c4c5c3OC3([H])C(=O)C([H])([H])C([H])([H])C(OC([H])([H])[H])(C21[H])C53OC4([H])[H]

$$$$
92:0:2
     RDKit          3D

 44 50  0  0  1  0  0  0  0  0999 V2000
   -0.4706   -1.5454    5.2798 C   0  0  0  0  0  0  0  0  0  0  0  0
   -0.5607   -0.1644    5.6434 O   0  0  0  0  0  0  0  0  0  0  0  0
    0.6495    0.6064    5.7377 C   0  0  1  0  0  0  0  0  0  0  0  0
    1.8112   -0.1954    6.3659 C   0  0  0  0  0  0  0  0  0  0  0  0
    3.0904    0.6341    6.5625 C   0  0  0  0  0  0  0  0  0  0  0  0
    3.5134    1.3432    5.2821 C   0  0  0  0  0  0  0  0  0  0  0  0
    4.6983    1.3529    4.9463 O   0  0  0  0  0  0  0  0  0  0  0  0
    2.4311    1.9920    4.4135 C   0  0  2  0  0  0  0  0  0  0  0  0
    1.8568    3.2137    4.9963 O   0  0  0  0  0  0  0  0  0  0  0  0
    0.5709    3.3192    4.4891 C   0  0  0  0  0  0  0  0  0  0  0  0
   -0.5998    3.9045    5.0440 C   0  0  0  0  0  0  0  0  0  0  0  0
   -1.6852    3.8308    4.0820 C   0  0  0  0  0  0  0  0  0  0  0  0
   -1.7773    2.7601    3.1153 C   0  0  0  0  0  0  0  0  0  0  0  0
   -0.6729    1.9035    3.0174 C   0  0  0  0  0  0  0  0  0  0  0  0
    0.4182    2.2071    3.7251 C   0  0  0  0  0  0  0  0  0  0  0  0
    1.1744    1.1123    4.2742 C   0  0  2  0  0  0  0  0  0  0  0  0
    0.9478    0.1854    3.1813 O   0  0  0  0  0  0  0  0  0  0  0  0
   -0.3484    0.5076    2.5524 C   0  0  0  0  0  0  0  0  0  0  0  0
   -0.8158    2.8574    6.1531 C   0  0  2  0  0  0  0  0  0  0  0  0
   -1.3127    3.0158    7.5586 C   0  0  0  0  0  0  0  0  0  0  0  0
   -2.1199    3.7826    8.3868 C   0  0  0  0  0  0  0  0  0  0  0  0
   -2.1201    3.3326    9.7336 C   0  0  0  0  0  0  0  0  0  0  0  0
   -1.3698    2.1981   10.1757 C   0  0  0  0  0  0  0  0  0  0  0  0
   -0.5198    1.4323    9.3207 C   0  0  0  0  0  0  0  0  0  0  0  0
   -0.5339    1.8590    7.9943 C   0  0  0  0  0  0  0  0  0  0  0  0
    0.2687    1.8200    6.6879 C   0  0  1  0  0  0  0  0  0  0  0  0
   -1.4706   -1.9658    5.1655 H   0  0  0  0  0  0  0  0  0  0  0  0
    0.0202   -2.1106    6.0705 H   0  0  0  0  0  0  0  0  0  0  0  0
    0.0686   -1.7327    4.3510 H   0  0  0  0  0  0  0  0  0  0  0  0
    1.4794   -0.5888    7.3246 H   0  0  0  0  0  0  0  0  0  0  0  0
    2.0793   -1.0503    5.7436 H   0  0  0  0  0  0  0  0  0  0  0  0
    2.9814    1.3734    7.3546 H   0  0  0  0  0  0  0  0  0  0  0  0
    3.8937   -0.0329    6.8707 H   0  0  0  0  0  0  0  0  0  0  0  0
    2.8581    2.2305    3.4320 H   0  0  0  0  0  0  0  0  0  0  0  0
   -2.5843    4.3635    4.3117 H   0  0  0  0  0  0  0  0  0  0  0  0
   -2.7032    2.5351    2.6004 H   0  0  0  0  0  0  0  0  0  0  0  0
   -1.1249   -0.1622    2.9099 H   0  0  0  0  0  0  0  0  0  0  0  0
   -0.2575    0.4484    1.4649 H   0  0  0  0  0  0  0  0  0  0  0  0
   -1.6382    2.2502    5.7722 H   0  0  0  0  0  0  0  0  0  0  0  0
   -2.6682    4.6577    8.0543 H   0  0  0  0  0  0  0  0  0  0  0  0
   -2.6916    3.8807   10.4597 H   0  0  0  0  0  0  0  0  0  0  0  0
   -1.4499    1.9342   11.2148 H   0  0  0  0  0  0  0  0  0  0  0  0
    0.0986    0.6232    9.7004 H   0  0  0  0  0  0  0  0  0  0  0  0
    1.1421    2.3874    7.0185 H   0  0  0  0  0  0  0  0  0  0  0  0
  1  2  1  0
  1 27  1  0
  1 28  1  0
  1 29  1  0
  3  2  1  6
  3 16  1  0
  3 26  1  0
  3  4  1  0
  4  5  1  0
  4 30  1  0
  4 31  1  0
  5  6  1  0
  5 32  1  0
  5 33  1  0
  6  7  2  0
  6  8  1  0
  8 16  1  0
  8  9  1  0
  8 34  1  6
  9 10  1  0
 10 15  2  0
 10 11  1  0
 11 12  2  0
 11 19  1  0
 12 13  1  0
 12 35  1  0
 13 14  2  0
 13 36  1  0
 14 18  1  0
 14 15  1  0
 15 16  1  0
 16 17  1  6
 17 18  1  0
 18 37  1  0
 18 38  1  0
 19 26  1  0
 19 20  1  0
 19 39  1  6
 20 25  2  0
 20 21  1  0
 21 22  2  0
 21 40  1  0
 22 23  1  0
 22 41  1  0
 23 24  2  0
 23 42  1  0
 24 25  1  0
 24 43  1  0
 25 26  1  0
 26 44  1  1
M  END
>  <i_m_ct_stereo_status>  (364) 
1

>  <s_m_source_file>  (364) 
/var/tmp/pbs.5076255.sched01/tmp6w_bron9/120d4r_aq7a.sdf

>  <i_m_source_file_index>  (364) 
18

>  <i_lp_mmshare_version>  (364) 
48012

>  <i_f3d_flags>  (364) 
0

>  <s_epik_input>  (364) 
W2NIXTFbY0hdW2NIXVtjSF1jMmMxW0NASF0oW0NAQEhdMltDQF0zKFtDQF00NTYpT1tDSDNdKWM3YyhjNWMoW0NIMl1PNilbY0hdW2NIXTcpT1tDQEhdNEMoPU8pW0NIMl1bQ0gyXTM=

>  <s_epik_cmdline>  (364) 
J2VwaWtfcHl0aG9uJywgJy1waHQnLCAnMi4wJywgJy1waCcsICc3LjAnLCAnLXRuJywgJzgnLCAnLW1hJywgJzIwMCcsICctaW1hZScsICc8aW5maWxlLm1hZT4nLCAnLW9tYWUnLCAnPG91dGZpbGUubWFlPic=

>  <r_lp_tautomer_probability>  (364) 
1

>  <r_epik_Ionization_Penalty>  (364) 
9.16543e-11

>  <r_epik_Ionization_Penalty_Charging>  (364) 
0

>  <r_epik_Ionization_Penalty_Neutral>  (364) 
9.16543e-11

>  <r_epik_State_Penalty>  (364) 
-0

>  <r_epik_Charging_Adjusted_Penalty>  (364) 
0

>  <i_epik_Tot_Q>  (364) 
0

>  <i_epik_Tot_abs_Q>  (364) 
0

>  <s_lp_Force_Field>  (364) 
OPLS3e

>  <r_lp_Energy>  (364) 
173.471

>  <b_lp_Chiralities_Consistent>  (364) 
1

>  <s_lp_Variant>  (364) 
92:0-1

>  <s_i_glide_gridfile>  (364) 
pfpi4k_grid

>  <i_i_glide_lignum>  (364) 
18

>  <i_i_glide_rotatable_bonds>  (364) 
1

>  <r_i_docking_score>  (364) 
-2.29538

>  <r_i_glide_ligand_efficiency>  (364) 
-0.0882838

>  <r_i_glide_ligand_efficiency_sa>  (364) 
-0.26154

>  <r_i_glide_ligand_efficiency_ln>  (364) 
-0.539062

>  <r_i_glide_gscore>  (364) 
-2.29538

>  <r_i_glide_lipo>  (364) 
-0.0250125

>  <r_i_glide_hbond>  (364) 
0

>  <r_i_glide_metal>  (364) 
-0

>  <r_i_glide_rewards>  (364) 
-1.04744

>  <r_i_glide_evdw>  (364) 
-19.9728

>  <r_i_glide_ecoul>  (364) 
-1.49188

>  <r_i_glide_erotb>  (364) 
0

>  <r_i_glide_esite>  (364) 
-0.000506863

>  <r_i_glide_emodel>  (364) 
-22.8443

>  <r_i_glide_energy>  (364) 
-21.4647

>  <r_i_glide_einternal>  (364) 
2.26213

>  <r_i_glide_intrahb_reward>  (364) 
-0

>  <i_i_glide_confnum>  (364) 
2

>  <i_i_glide_posenum>  (364) 
32

>  <r_i_glide_eff_state_penalty>  (364) 
0

>  <ligand_id>  (364) 
92

>  <original_smiles>  (364) 
COC12CCC(=O)C3Oc4c(ccc5c4C31OC5)C1c3ccccc3C12

>  <smiles>  (364) 
[H]c1c([H])c([H])c2c(c1[H])C1([H])c3c([H])c([H])c4c5c3OC3([H])C(=O)C([H])([H])C([H])([H])C(OC([H])([H])[H])(C21[H])C53OC4([H])[H]

$$$$
93:0:0
     RDKit          3D

 45 48  0  0  1  0  0  0  0  0999 V2000
    4.7675   -1.0511   -1.6035 C   0  0  0  0  0  0  0  0  0  0  0  0
    4.7780   -2.5889   -1.5896 C   0  0  2  0  0  0  0  0  0  0  0  0
    3.3354   -3.1320   -1.6759 C   0  0  0  0  0  0  0  0  0  0  0  0
    2.8262   -3.7878   -0.3927 C   0  0  0  0  0  0  0  0  0  0  0  0
    3.8290   -4.8353    0.0845 C   0  0  2  0  0  0  0  0  0  0  0  0
    3.2108   -5.7159    1.0022 O   0  0  0  0  0  0  0  0  0  0  0  0
    4.1402   -6.3354    1.8673 C   0  0  2  0  0  0  0  0  0  0  0  0
    3.6244   -7.7581    2.1276 C   0  0  0  0  0  0  0  0  0  0  0  0
    4.1664   -5.5205    3.1682 C   0  0  0  0  0  0  0  0  0  0  0  0
    4.1181   -4.0000    2.9522 C   0  0  0  0  0  0  0  0  0  0  0  0
    5.1701   -3.4690    1.9640 C   0  0  2  0  0  0  0  0  0  0  0  0
    5.1700   -1.9281    1.8078 C   0  0  1  0  0  0  0  0  0  0  0  0
    5.0362   -1.1409    3.1238 C   0  0  0  0  0  0  0  0  0  0  0  0
    6.4193   -1.4540    1.0244 C   0  0  0  0  0  0  0  0  0  0  0  0
    6.8983   -2.4575   -0.0427 C   0  0  0  0  0  0  0  0  0  0  0  0
    5.7534   -3.3289   -0.5882 C   0  0  1  0  0  0  0  0  0  0  0  0
    5.1449   -4.1943    0.5727 C   0  0  2  0  0  0  0  0  0  0  0  0
    6.0738   -5.2683    0.7288 O   0  0  0  0  0  0  0  0  0  0  0  0
    5.4293   -6.5473    1.2850 O   0  0  0  0  0  0  0  0  0  0  0  0
    4.3122   -0.6196   -0.7136 H   0  0  0  0  0  0  0  0  0  0  0  0
    4.2001   -0.6800   -2.4580 H   0  0  0  0  0  0  0  0  0  0  0  0
    5.7720   -0.6503   -1.7192 H   0  0  0  0  0  0  0  0  0  0  0  0
    5.1996   -2.8128   -2.5743 H   0  0  0  0  0  0  0  0  0  0  0  0
    2.6404   -2.3367   -1.9409 H   0  0  0  0  0  0  0  0  0  0  0  0
    3.2817   -3.8572   -2.4892 H   0  0  0  0  0  0  0  0  0  0  0  0
    2.6428   -3.0390    0.3803 H   0  0  0  0  0  0  0  0  0  0  0  0
    1.8661   -4.2630   -0.5962 H   0  0  0  0  0  0  0  0  0  0  0  0
    4.1023   -5.4704   -0.7505 H   0  0  0  0  0  0  0  0  0  0  0  0
    3.6319   -8.3458    1.2064 H   0  0  0  0  0  0  0  0  0  0  0  0
    2.6029   -7.7621    2.5122 H   0  0  0  0  0  0  0  0  0  0  0  0
    4.2536   -8.2813    2.8533 H   0  0  0  0  0  0  0  0  0  0  0  0
    3.2863   -5.7786    3.7614 H   0  0  0  0  0  0  0  0  0  0  0  0
    5.0294   -5.8082    3.7700 H   0  0  0  0  0  0  0  0  0  0  0  0
    3.1244   -3.7032    2.6178 H   0  0  0  0  0  0  0  0  0  0  0  0
    4.2558   -3.5402    3.9289 H   0  0  0  0  0  0  0  0  0  0  0  0
    6.1314   -3.7072    2.4189 H   0  0  0  0  0  0  0  0  0  0  0  0
    4.2927   -1.6742    1.2262 H   0  0  0  0  0  0  0  0  0  0  0  0
    5.8118   -1.4232    3.8335 H   0  0  0  0  0  0  0  0  0  0  0  0
    4.0625   -1.2968    3.5950 H   0  0  0  0  0  0  0  0  0  0  0  0
    5.1255   -0.0689    2.9405 H   0  0  0  0  0  0  0  0  0  0  0  0
    6.2011   -0.4858    0.5799 H   0  0  0  0  0  0  0  0  0  0  0  0
    7.2540   -1.2505    1.6849 H   0  0  0  0  0  0  0  0  0  0  0  0
    7.4340   -1.9457   -0.8400 H   0  0  0  0  0  0  0  0  0  0  0  0
    7.6315   -3.1233    0.4162 H   0  0  0  0  0  0  0  0  0  0  0  0
    6.2292   -4.0616   -1.2396 H   0  0  0  0  0  0  0  0  0  0  0  0
  1  2  1  0
  1 20  1  0
  1 21  1  0
  1 22  1  0
  2 16  1  0
  2  3  1  0
  2 23  1  6
  3  4  1  0
  3 24  1  0
  3 25  1  0
  4  5  1  0
  4 26  1  0
  4 27  1  0
  5 17  1  0
  5  6  1  0
  5 28  1  6
  6  7  1  0
  7 19  1  0
  7  8  1  1
  7  9  1  0
  8 29  1  0
  8 30  1  0
  8 31  1  0
  9 10  1  0
  9 32  1  0
  9 33  1  0
 10 11  1  0
 10 34  1  0
 10 35  1  0
 11 17  1  0
 11 12  1  0
 11 36  1  1
 12 13  1  0
 12 14  1  0
 12 37  1  6
 13 38  1  0
 13 39  1  0
 13 40  1  0
 14 15  1  0
 14 41  1  0
 14 42  1  0
 15 16  1  0
 15 43  1  0
 15 44  1  0
 16 17  1  0
 16 45  1  6
 17 18  1  1
 18 19  1  0
M  END
>  <i_m_ct_stereo_status>  (365) 
1

>  <s_m_source_file>  (365) 
/var/tmp/pbs.5076255.sched01/tmp6w_bron9/120d4r_aq7a.sdf

>  <i_m_source_file_index>  (365) 
19

>  <i_lp_mmshare_version>  (365) 
48012

>  <i_f3d_flags>  (365) 
0

>  <s_epik_input>  (365) 
W0NAQF0xMjNbQ0BASF00W0NIMl1bQ0gyXVtDQEBIXShbQ0gzXSlbQ0BIXTJbQ0gyXVtDSDJdW0NASF0oW0NIM10pW0NASF0xW0NIMl1bQ0gyXVtDQF0oTzQpKFtDSDNdKU9PMw==

>  <s_epik_cmdline>  (365) 
J2VwaWtfcHl0aG9uJywgJy1waHQnLCAnMi4wJywgJy1waCcsICc3LjAnLCAnLXRuJywgJzgnLCAnLW1hJywgJzIwMCcsICctaW1hZScsICc8aW5maWxlLm1hZT4nLCAnLW9tYWUnLCAnPG91dGZpbGUubWFlPic=

>  <r_lp_tautomer_probability>  (365) 
1

>  <r_epik_Ionization_Penalty>  (365) 
3.45998e-14

>  <r_epik_Ionization_Penalty_Charging>  (365) 
0

>  <r_epik_Ionization_Penalty_Neutral>  (365) 
3.45998e-14

>  <r_epik_State_Penalty>  (365) 
-0

>  <r_epik_Charging_Adjusted_Penalty>  (365) 
0

>  <i_epik_Tot_Q>  (365) 
0

>  <i_epik_Tot_abs_Q>  (365) 
0

>  <s_lp_Force_Field>  (365) 
OPLS3e

>  <r_lp_Energy>  (365) 
50.758

>  <b_lp_Chiralities_Consistent>  (365) 
1

>  <s_lp_Variant>  (365) 
93:0-1

>  <s_i_glide_gridfile>  (365) 
pfpi4k_grid

>  <i_i_glide_lignum>  (365) 
19

>  <i_i_glide_rotatable_bonds>  (365) 
0

>  <r_i_docking_score>  (365) 
-3.26271

>  <r_i_glide_ligand_efficiency>  (365) 
-0.171721

>  <r_i_glide_ligand_efficiency_sa>  (365) 
-0.458222

>  <r_i_glide_ligand_efficiency_ln>  (365) 
-0.827167

>  <r_i_glide_gscore>  (365) 
-3.26271

>  <r_i_glide_lipo>  (365) 
-0.464326

>  <r_i_glide_hbond>  (365) 
0

>  <r_i_glide_metal>  (365) 
-0

>  <r_i_glide_rewards>  (365) 
-1.63886

>  <r_i_glide_evdw>  (365) 
-21.5811

>  <r_i_glide_ecoul>  (365) 
-0.536472

>  <r_i_glide_erotb>  (365) 
0

>  <r_i_glide_esite>  (365) 
0

>  <r_i_glide_emodel>  (365) 
-25.9333

>  <r_i_glide_energy>  (365) 
-22.1176

>  <r_i_glide_einternal>  (365) 
0

>  <r_i_glide_intrahb_reward>  (365) 
-0

>  <i_i_glide_confnum>  (365) 
2

>  <i_i_glide_posenum>  (365) 
20

>  <r_i_glide_eff_state_penalty>  (365) 
0

>  <ligand_id>  (365) 
93

>  <original_smiles>  (365) 
CC1CCC2OC3(C)CCC4C(C)CCC1C24OO3

>  <smiles>  (365) 
[H]C([H])([H])C12OOC34C([H])(O1)C([H])([H])C([H])([H])C([H])(C([H])([H])[H])C3([H])C([H])([H])C([H])([H])C([H])(C([H])([H])[H])C4([H])C([H])([H])C2([H])[H]

$$$$
93:0:1
     RDKit          3D

 45 48  0  0  1  0  0  0  0  0999 V2000
    4.2972   -1.4755   -2.9885 C   0  0  0  0  0  0  0  0  0  0  0  0
    4.1857   -2.9157   -2.4628 C   0  0  2  0  0  0  0  0  0  0  0  0
    2.7082   -3.3448   -2.4234 C   0  0  0  0  0  0  0  0  0  0  0  0
    2.1760   -3.4990   -1.0052 C   0  0  0  0  0  0  0  0  0  0  0  0
    3.0482   -4.4041   -0.1702 C   0  0  2  0  0  0  0  0  0  0  0  0
    2.3109   -4.7542    0.9979 O   0  0  0  0  0  0  0  0  0  0  0  0
    3.1529   -5.0764    2.0895 C   0  0  2  0  0  0  0  0  0  0  0  0
    2.4894   -6.2428    2.8233 C   0  0  0  0  0  0  0  0  0  0  0  0
    3.2263   -3.8423    3.0109 C   0  0  0  0  0  0  0  0  0  0  0  0
    3.3279   -2.5200    2.2539 C   0  0  0  0  0  0  0  0  0  0  0  0
    4.4298   -2.5114    1.1871 C   0  0  2  0  0  0  0  0  0  0  0  0
    4.5760   -1.1256    0.5093 C   0  0  1  0  0  0  0  0  0  0  0  0
    4.4862    0.0821    1.4480 C   0  0  0  0  0  0  0  0  0  0  0  0
    5.8817   -1.0746   -0.3083 C   0  0  0  0  0  0  0  0  0  0  0  0
    6.2886   -2.4193   -0.9459 C   0  0  0  0  0  0  0  0  0  0  0  0
    5.0770   -3.3296   -1.2175 C   0  0  1  0  0  0  0  0  0  0  0  0
    4.3819   -3.6896    0.1398 C   0  0  2  0  0  0  0  0  0  0  0  0
    5.2044   -4.6722    0.7659 O   0  0  0  0  0  0  0  0  0  0  0  0
    4.4265   -5.5993    1.6862 O   0  0  0  0  0  0  0  0  0  0  0  0
    3.8462   -0.7152   -2.3530 H   0  0  0  0  0  0  0  0  0  0  0  0
    3.8261   -1.3882   -3.9701 H   0  0  0  0  0  0  0  0  0  0  0  0
    5.3401   -1.2334   -3.1180 H   0  0  0  0  0  0  0  0  0  0  0  0
    4.6005   -3.5010   -3.2807 H   0  0  0  0  0  0  0  0  0  0  0  0
    2.0910   -2.5789   -2.9056 H   0  0  0  0  0  0  0  0  0  0  0  0
    2.5210   -4.2147   -3.0270 H   0  0  0  0  0  0  0  0  0  0  0  0
    2.2055   -2.5416   -0.4847 H   0  0  0  0  0  0  0  0  0  0  0  0
    1.1602   -3.8737   -1.1138 H   0  0  0  0  0  0  0  0  0  0  0  0
    3.2611   -5.3282   -0.6956 H   0  0  0  0  0  0  0  0  0  0  0  0
    2.4543   -7.1160    2.1722 H   0  0  0  0  0  0  0  0  0  0  0  0
    1.4698   -6.0087    3.1334 H   0  0  0  0  0  0  0  0  0  0  0  0
    3.0623   -6.5094    3.7141 H   0  0  0  0  0  0  0  0  0  0  0  0
    2.3194   -3.7869    3.6161 H   0  0  0  0  0  0  0  0  0  0  0  0
    4.0544   -3.9577    3.7119 H   0  0  0  0  0  0  0  0  0  0  0  0
    2.3742   -2.2687    1.7912 H   0  0  0  0  0  0  0  0  0  0  0  0
    3.5009   -1.7502    3.0056 H   0  0  0  0  0  0  0  0  0  0  0  0
    5.3584   -2.6212    1.7491 H   0  0  0  0  0  0  0  0  0  0  0  0
    3.7433   -1.0284   -0.1792 H   0  0  0  0  0  0  0  0  0  0  0  0
    5.2779    0.0373    2.1936 H   0  0  0  0  0  0  0  0  0  0  0  0
    3.5099    0.1820    1.9265 H   0  0  0  0  0  0  0  0  0  0  0  0
    4.6481    0.9779    0.8660 H   0  0  0  0  0  0  0  0  0  0  0  0
    5.7625   -0.3013   -1.0731 H   0  0  0  0  0  0  0  0  0  0  0  0
    6.6977   -0.7150    0.3282 H   0  0  0  0  0  0  0  0  0  0  0  0
    6.8593   -2.2594   -1.8597 H   0  0  0  0  0  0  0  0  0  0  0  0
    6.9617   -2.9532   -0.2677 H   0  0  0  0  0  0  0  0  0  0  0  0
    5.4854   -4.2866   -1.5355 H   0  0  0  0  0  0  0  0  0  0  0  0
  1  2  1  0
  1 20  1  0
  1 21  1  0
  1 22  1  0
  2 16  1  0
  2  3  1  0
  2 23  1  6
  3  4  1  0
  3 24  1  0
  3 25  1  0
  4  5  1  0
  4 26  1  0
  4 27  1  0
  5 17  1  0
  5  6  1  0
  5 28  1  6
  6  7  1  0
  7 19  1  0
  7  8  1  1
  7  9  1  0
  8 29  1  0
  8 30  1  0
  8 31  1  0
  9 10  1  0
  9 32  1  0
  9 33  1  0
 10 11  1  0
 10 34  1  0
 10 35  1  0
 11 17  1  0
 11 12  1  0
 11 36  1  1
 12 13  1  0
 12 14  1  0
 12 37  1  6
 13 38  1  0
 13 39  1  0
 13 40  1  0
 14 15  1  0
 14 41  1  0
 14 42  1  0
 15 16  1  0
 15 43  1  0
 15 44  1  0
 16 17  1  0
 16 45  1  6
 17 18  1  1
 18 19  1  0
M  END
>  <i_m_ct_stereo_status>  (366) 
1

>  <s_m_source_file>  (366) 
/var/tmp/pbs.5076255.sched01/tmp6w_bron9/120d4r_aq7a.sdf

>  <i_m_source_file_index>  (366) 
19

>  <i_lp_mmshare_version>  (366) 
48012

>  <i_f3d_flags>  (366) 
0

>  <s_epik_input>  (366) 
W0NAQF0xMjNbQ0BASF00W0NIMl1bQ0gyXVtDQEBIXShbQ0gzXSlbQ0BIXTJbQ0gyXVtDSDJdW0NASF0oW0NIM10pW0NASF0xW0NIMl1bQ0gyXVtDQF0oTzQpKFtDSDNdKU9PMw==

>  <s_epik_cmdline>  (366) 
J2VwaWtfcHl0aG9uJywgJy1waHQnLCAnMi4wJywgJy1waCcsICc3LjAnLCAnLXRuJywgJzgnLCAnLW1hJywgJzIwMCcsICctaW1hZScsICc8aW5maWxlLm1hZT4nLCAnLW9tYWUnLCAnPG91dGZpbGUubWFlPic=

>  <r_lp_tautomer_probability>  (366) 
1

>  <r_epik_Ionization_Penalty>  (366) 
3.45998e-14

>  <r_epik_Ionization_Penalty_Charging>  (366) 
0

>  <r_epik_Ionization_Penalty_Neutral>  (366) 
3.45998e-14

>  <r_epik_State_Penalty>  (366) 
-0

>  <r_epik_Charging_Adjusted_Penalty>  (366) 
0

>  <i_epik_Tot_Q>  (366) 
0

>  <i_epik_Tot_abs_Q>  (366) 
0

>  <s_lp_Force_Field>  (366) 
OPLS3e

>  <r_lp_Energy>  (366) 
50.758

>  <b_lp_Chiralities_Consistent>  (366) 
1

>  <s_lp_Variant>  (366) 
93:0-1

>  <s_i_glide_gridfile>  (366) 
pfpi4k_grid

>  <i_i_glide_lignum>  (366) 
19

>  <i_i_glide_rotatable_bonds>  (366) 
0

>  <r_i_docking_score>  (366) 
-2.81626

>  <r_i_glide_ligand_efficiency>  (366) 
-0.148224

>  <r_i_glide_ligand_efficiency_sa>  (366) 
-0.395522

>  <r_i_glide_ligand_efficiency_ln>  (366) 
-0.713982

>  <r_i_glide_gscore>  (366) 
-2.81626

>  <r_i_glide_lipo>  (366) 
-0.254611

>  <r_i_glide_hbond>  (366) 
-0.005517

>  <r_i_glide_metal>  (366) 
-0

>  <r_i_glide_rewards>  (366) 
-1.59409

>  <r_i_glide_evdw>  (366) 
-15.1494

>  <r_i_glide_ecoul>  (366) 
-1.3638

>  <r_i_glide_erotb>  (366) 
0

>  <r_i_glide_esite>  (366) 
0

>  <r_i_glide_emodel>  (366) 
-19.4624

>  <r_i_glide_energy>  (366) 
-16.5132

>  <r_i_glide_einternal>  (366) 
0

>  <r_i_glide_intrahb_reward>  (366) 
-0

>  <i_i_glide_confnum>  (366) 
1

>  <i_i_glide_posenum>  (366) 
1

>  <r_i_glide_eff_state_penalty>  (366) 
0

>  <ligand_id>  (366) 
93

>  <original_smiles>  (366) 
CC1CCC2OC3(C)CCC4C(C)CCC1C24OO3

>  <smiles>  (366) 
[H]C([H])([H])C12OOC34C([H])(O1)C([H])([H])C([H])([H])C([H])(C([H])([H])[H])C3([H])C([H])([H])C([H])([H])C([H])(C([H])([H])[H])C4([H])C([H])([H])C2([H])[H]

$$$$
94:0:0
     RDKit          3D

 60 65  0  0  1  0  0  0  0  0999 V2000
    8.5983   -1.4202    0.4808 C   0  0  0  0  0  0  0  0  0  0  0  0
    7.7776   -2.0380   -0.4959 O   0  0  0  0  0  0  0  0  0  0  0  0
    7.1496   -3.2168   -0.1492 C   0  0  0  0  0  0  0  0  0  0  0  0
    5.9430   -3.5085   -0.8269 C   0  0  0  0  0  0  0  0  0  0  0  0
    5.2196   -4.6828   -0.5183 C   0  0  0  0  0  0  0  0  0  0  0  0
    5.6898   -5.5782    0.4690 C   0  0  0  0  0  0  0  0  0  0  0  0
    4.8497   -6.7815    0.8795 C   0  0  0  0  0  0  0  0  0  0  0  0
    3.3751   -6.4819    1.3116 C   0  0  2  0  0  0  0  0  0  0  0  0
    3.0447   -5.1353    2.0318 C   0  0  2  0  0  0  0  0  0  0  0  0
    2.7239   -4.0884    1.1133 O   0  0  0  0  0  0  0  0  0  0  0  0
    2.3636   -2.8147    1.6531 C   0  0  0  0  0  0  0  0  0  0  0  0
    4.1140   -4.8592    3.1367 C   0  0  0  0  0  0  0  0  0  0  0  0
    3.9494   -5.9901    3.9858 O   0  0  0  0  0  0  0  0  0  0  0  0
    2.7032   -6.5656    3.6385 C   0  0  1  0  0  0  0  0  0  0  0  0
    1.8331   -7.0054    4.8059 C   0  0  0  0  0  0  0  0  0  0  0  0
    0.4089   -6.7946    4.2465 C   0  0  2  0  0  0  0  0  0  0  0  0
   -0.4988   -8.0275    4.4052 C   0  0  1  0  0  0  0  0  0  0  0  0
   -1.9368   -7.7389    3.9298 C   0  0  0  0  0  0  0  0  0  0  0  0
    0.1084   -9.2301    3.6784 C   0  0  0  0  0  0  0  0  0  0  0  0
    0.4254   -8.8839    2.2259 C   0  0  0  0  0  0  0  0  0  0  0  0
    1.2155   -7.5698    1.9943 C   0  0  1  0  0  0  0  0  0  0  0  0
    0.6829   -6.3611    2.7755 C   0  0  2  0  0  0  0  0  0  0  0  0
    1.9132   -5.4633    3.0129 C   0  0  2  0  0  0  0  0  0  0  0  0
    2.7260   -7.4657    2.3473 C   0  0  1  0  0  0  0  0  0  0  0  0
    3.3749   -8.7042    2.6279 O   0  0  0  0  0  0  0  0  0  0  0  0
    3.5165   -9.6299    1.5575 C   0  0  0  0  0  0  0  0  0  0  0  0
    6.9234   -5.3147    1.1089 C   0  0  0  0  0  0  0  0  0  0  0  0
    7.6375   -4.1221    0.8262 C   0  0  0  0  0  0  0  0  0  0  0  0
    9.0391   -0.4963    0.1069 H   0  0  0  0  0  0  0  0  0  0  0  0
    9.4175   -2.0388    0.8481 H   0  0  0  0  0  0  0  0  0  0  0  0
    7.9370   -1.1061    1.2875 H   0  0  0  0  0  0  0  0  0  0  0  0
    5.5455   -2.8119   -1.5380 H   0  0  0  0  0  0  0  0  0  0  0  0
    4.2844   -4.8692   -1.0097 H   0  0  0  0  0  0  0  0  0  0  0  0
    4.8193   -7.5106    0.0588 H   0  0  0  0  0  0  0  0  0  0  0  0
    5.3705   -7.2896    1.6918 H   0  0  0  0  0  0  0  0  0  0  0  0
    2.8246   -6.4636    0.3762 H   0  0  0  0  0  0  0  0  0  0  0  0
    2.2591   -2.0644    0.8663 H   0  0  0  0  0  0  0  0  0  0  0  0
    3.0882   -2.4220    2.3586 H   0  0  0  0  0  0  0  0  0  0  0  0
    1.4083   -2.8912    2.1644 H   0  0  0  0  0  0  0  0  0  0  0  0
    5.1496   -4.7234    2.8495 H   0  0  0  0  0  0  0  0  0  0  0  0
    3.8659   -3.9728    3.7555 H   0  0  0  0  0  0  0  0  0  0  0  0
    2.0833   -8.0162    5.1210 H   0  0  0  0  0  0  0  0  0  0  0  0
    2.0015   -6.3406    5.6516 H   0  0  0  0  0  0  0  0  0  0  0  0
   -0.0392   -5.9500    4.7737 H   0  0  0  0  0  0  0  0  0  0  0  0
   -0.5505   -8.2886    5.4612 H   0  0  0  0  0  0  0  0  0  0  0  0
   -1.9841   -7.4875    2.8737 H   0  0  0  0  0  0  0  0  0  0  0  0
   -2.3852   -6.9248    4.4850 H   0  0  0  0  0  0  0  0  0  0  0  0
   -2.5346   -8.6378    4.0802 H   0  0  0  0  0  0  0  0  0  0  0  0
    1.0097   -9.5888    4.1825 H   0  0  0  0  0  0  0  0  0  0  0  0
   -0.5839  -10.0729    3.7018 H   0  0  0  0  0  0  0  0  0  0  0  0
    0.9325   -9.7258    1.7681 H   0  0  0  0  0  0  0  0  0  0  0  0
   -0.5223   -8.8005    1.6993 H   0  0  0  0  0  0  0  0  0  0  0  0
    1.0776   -7.3740    0.9321 H   0  0  0  0  0  0  0  0  0  0  0  0
   -0.1673   -5.8681    2.2933 H   0  0  0  0  0  0  0  0  0  0  0  0
    1.6950   -4.6564    3.7115 H   0  0  0  0  0  0  0  0  0  0  0  0
    4.5625   -9.7330    1.2780 H   0  0  0  0  0  0  0  0  0  0  0  0
    2.9456   -9.3701    0.6654 H   0  0  0  0  0  0  0  0  0  0  0  0
    3.1690  -10.6023    1.9077 H   0  0  0  0  0  0  0  0  0  0  0  0
    7.2986   -5.9807    1.8549 H   0  0  0  0  0  0  0  0  0  0  0  0
    8.5244   -3.9166    1.3935 H   0  0  0  0  0  0  0  0  0  0  0  0
  1  2  1  0
  1 29  1  0
  1 30  1  0
  1 31  1  0
  2  3  1  0
  3 28  2  0
  3  4  1  0
  4  5  2  0
  4 32  1  0
  5  6  1  0
  5 33  1  0
  6  7  1  0
  6 27  2  0
  7  8  1  0
  7 34  1  0
  7 35  1  0
  8 24  1  0
  8  9  1  0
  8 36  1  6
  9 23  1  0
  9 10  1  6
  9 12  1  0
 10 11  1  0
 11 37  1  0
 11 38  1  0
 11 39  1  0
 12 13  1  0
 12 40  1  0
 12 41  1  0
 14 13  1  1
 14 23  1  0
 14 24  1  0
 14 15  1  0
 15 16  1  0
 15 42  1  0
 15 43  1  0
 16 22  1  0
 16 17  1  0
 16 44  1  1
 17 18  1  0
 17 19  1  0
 17 45  1  1
 18 46  1  0
 18 47  1  0
 18 48  1  0
 19 20  1  0
 19 49  1  0
 19 50  1  0
 20 21  1  0
 20 51  1  0
 20 52  1  0
 21 22  1  0
 21 24  1  0
 21 53  1  6
 22 23  1  0
 22 54  1  6
 23 55  1  1
 24 25  1  1
 25 26  1  0
 26 56  1  0
 26 57  1  0
 26 58  1  0
 27 28  1  0
 27 59  1  0
 28 60  1  0
M  END
>  <i_m_ct_stereo_status>  (367) 
1

>  <s_m_source_file>  (367) 
/var/tmp/pbs.5076255.sched01/tmp6w_bron9/120d4r_aq7a.sdf

>  <i_m_source_file_index>  (367) 
20

>  <i_lp_mmshare_version>  (367) 
48012

>  <i_f3d_flags>  (367) 
0

>  <s_epik_input>  (367) 
W0NIM11PYzFbY0hdW2NIXWMoW2NIXVtjSF0xKVtDSDJdW0NASF0oW0NAXShbQ0gyXU8yKShbQ0BASF0zW0NAQF0yNDUpT1tDSDNdKVtDQF01KE9bQ0gzXSlbQ0BIXTZbQ0BIXTNbQ0BIXShbQ0gyXTQpW0NAQEhdKFtDSDNdKVtDSDJdW0NIMl02

>  <s_epik_cmdline>  (367) 
J2VwaWtfcHl0aG9uJywgJy1waHQnLCAnMi4wJywgJy1waCcsICc3LjAnLCAnLXRuJywgJzgnLCAnLW1hJywgJzIwMCcsICctaW1hZScsICc8aW5maWxlLm1hZT4nLCAnLW9tYWUnLCAnPG91dGZpbGUubWFlPic=

>  <r_lp_tautomer_probability>  (367) 
1

>  <r_epik_Ionization_Penalty>  (367) 
1.05769e-11

>  <r_epik_Ionization_Penalty_Charging>  (367) 
0

>  <r_epik_Ionization_Penalty_Neutral>  (367) 
1.05769e-11

>  <r_epik_State_Penalty>  (367) 
-0

>  <r_epik_Charging_Adjusted_Penalty>  (367) 
0

>  <i_epik_Tot_Q>  (367) 
0

>  <i_epik_Tot_abs_Q>  (367) 
0

>  <s_lp_Force_Field>  (367) 
OPLS3e

>  <r_lp_Energy>  (367) 
96.6031

>  <b_lp_Chiralities_Consistent>  (367) 
1

>  <s_lp_Variant>  (367) 
94:0-1

>  <s_i_glide_gridfile>  (367) 
pfpi4k_grid

>  <i_i_glide_lignum>  (367) 
20

>  <i_i_glide_rotatable_bonds>  (367) 
5

>  <r_i_docking_score>  (367) 
-2.94461

>  <r_i_glide_ligand_efficiency>  (367) 
-0.105165

>  <r_i_glide_ligand_efficiency_sa>  (367) 
-0.319341

>  <r_i_glide_ligand_efficiency_ln>  (367) 
-0.679702

>  <r_i_glide_gscore>  (367) 
-2.94461

>  <r_i_glide_lipo>  (367) 
-0.745186

>  <r_i_glide_hbond>  (367) 
-0.159597

>  <r_i_glide_metal>  (367) 
-0

>  <r_i_glide_rewards>  (367) 
-0.787442

>  <r_i_glide_evdw>  (367) 
-24.1067

>  <r_i_glide_ecoul>  (367) 
-2.0671

>  <r_i_glide_erotb>  (367) 
0.26302

>  <r_i_glide_esite>  (367) 
0

>  <r_i_glide_emodel>  (367) 
-26.4095

>  <r_i_glide_energy>  (367) 
-26.1738

>  <r_i_glide_einternal>  (367) 
7.43838

>  <r_i_glide_intrahb_reward>  (367) 
-0

>  <i_i_glide_confnum>  (367) 
4

>  <i_i_glide_posenum>  (367) 
1

>  <r_i_glide_eff_state_penalty>  (367) 
0

>  <ligand_id>  (367) 
94

>  <original_smiles>  (367) 
COc1ccc(CC2C3(OC)COC45CC6C(C)CCC(C6C34)C25OC)cc1

>  <smiles>  (367) 
[H]c1c([H])c(C([H])([H])C2([H])C3(OC([H])([H])[H])C([H])([H])OC45C([H])([H])C6([H])C([H])(C([H])([H])[H])C([H])([H])C([H])([H])C([H])(C6([H])C34[H])C25OC([H])([H])[H])c([H])c([H])c1OC([H])([H])[H]

$$$$
94:0:1
     RDKit          3D

 60 65  0  0  1  0  0  0  0  0999 V2000
    4.2421   -0.6275   -2.6833 C   0  0  0  0  0  0  0  0  0  0  0  0
    5.3869   -0.9939   -1.9196 O   0  0  0  0  0  0  0  0  0  0  0  0
    5.3287   -2.2050   -1.2484 C   0  0  0  0  0  0  0  0  0  0  0  0
    4.1970   -3.0820   -1.2983 C   0  0  0  0  0  0  0  0  0  0  0  0
    4.2287   -4.2967   -0.5977 C   0  0  0  0  0  0  0  0  0  0  0  0
    5.3263   -4.6681    0.1732 C   0  0  0  0  0  0  0  0  0  0  0  0
    5.2875   -5.9987    0.9132 C   0  0  0  0  0  0  0  0  0  0  0  0
    3.9686   -6.2626    1.6931 C   0  0  2  0  0  0  0  0  0  0  0  0
    3.4977   -5.1772    2.6957 C   0  0  2  0  0  0  0  0  0  0  0  0
    2.6650   -4.1796    2.0900 O   0  0  0  0  0  0  0  0  0  0  0  0
    1.9786   -3.2962    2.9772 C   0  0  0  0  0  0  0  0  0  0  0  0
    4.7395   -4.6611    3.4549 C   0  0  0  0  0  0  0  0  0  0  0  0
    5.1585   -5.8373    4.1426 O   0  0  0  0  0  0  0  0  0  0  0  0
    4.0847   -6.7775    4.0438 C   0  0  1  0  0  0  0  0  0  0  0  0
    3.7533   -7.6065    5.2879 C   0  0  0  0  0  0  0  0  0  0  0  0
    2.2260   -7.8224    5.1436 C   0  0  2  0  0  0  0  0  0  0  0  0
    1.7881   -9.2947    5.2690 C   0  0  1  0  0  0  0  0  0  0  0  0
    0.2559   -9.4482    5.2460 C   0  0  0  0  0  0  0  0  0  0  0  0
    2.4629  -10.1503    4.1861 C   0  0  0  0  0  0  0  0  0  0  0  0
    2.2391   -9.5620    2.7918 C   0  0  0  0  0  0  0  0  0  0  0  0
    2.5152   -8.0403    2.6581 C   0  0  1  0  0  0  0  0  0  0  0  0
    1.9177   -7.1630    3.7719 C   0  0  2  0  0  0  0  0  0  0  0  0
    2.8617   -5.9441    3.8658 C   0  0  2  0  0  0  0  0  0  0  0  0
    3.9737   -7.4914    2.6519 C   0  0  1  0  0  0  0  0  0  0  0  0
    5.0038   -8.4741    2.5125 O   0  0  0  0  0  0  0  0  0  0  0  0
    5.0931   -9.1612    1.2713 C   0  0  0  0  0  0  0  0  0  0  0  0
    6.4556   -3.8153    0.2196 C   0  0  0  0  0  0  0  0  0  0  0  0
    6.4343   -2.5848   -0.4876 C   0  0  0  0  0  0  0  0  0  0  0  0
    4.3360    0.3617   -3.1443 H   0  0  0  0  0  0  0  0  0  0  0  0
    3.3471   -0.6155   -2.0541 H   0  0  0  0  0  0  0  0  0  0  0  0
    4.0823   -1.3500   -3.4890 H   0  0  0  0  0  0  0  0  0  0  0  0
    3.2906   -2.8904   -1.8462 H   0  0  0  0  0  0  0  0  0  0  0  0
    3.3535   -4.9258   -0.6928 H   0  0  0  0  0  0  0  0  0  0  0  0
    5.3929   -6.7550    0.1379 H   0  0  0  0  0  0  0  0  0  0  0  0
    6.1598   -6.0950    1.5558 H   0  0  0  0  0  0  0  0  0  0  0  0
    3.2055   -6.3748    0.9303 H   0  0  0  0  0  0  0  0  0  0  0  0
    1.4817   -2.4947    2.4253 H   0  0  0  0  0  0  0  0  0  0  0  0
    2.6390   -2.8182    3.7020 H   0  0  0  0  0  0  0  0  0  0  0  0
    1.2058   -3.8396    3.5210 H   0  0  0  0  0  0  0  0  0  0  0  0
    5.5283   -4.2356    2.8404 H   0  0  0  0  0  0  0  0  0  0  0  0
    4.4989   -3.9154    4.2090 H   0  0  0  0  0  0  0  0  0  0  0  0
    4.3571   -8.5125    5.3283 H   0  0  0  0  0  0  0  0  0  0  0  0
    3.9633   -7.0282    6.1892 H   0  0  0  0  0  0  0  0  0  0  0  0
    1.7284   -7.2416    5.9229 H   0  0  0  0  0  0  0  0  0  0  0  0
    2.1218   -9.6732    6.2375 H   0  0  0  0  0  0  0  0  0  0  0  0
   -0.1816   -9.1155    4.3041 H   0  0  0  0  0  0  0  0  0  0  0  0
   -0.2264   -8.8948    6.0520 H   0  0  0  0  0  0  0  0  0  0  0  0
   -0.0018  -10.4992    5.3732 H   0  0  0  0  0  0  0  0  0  0  0  0
    3.5309  -10.2385    4.3767 H   0  0  0  0  0  0  0  0  0  0  0  0
    2.0839  -11.1724    4.2311 H   0  0  0  0  0  0  0  0  0  0  0  0
    2.8134  -10.1297    2.0675 H   0  0  0  0  0  0  0  0  0  0  0  0
    1.2004   -9.7428    2.5189 H   0  0  0  0  0  0  0  0  0  0  0  0
    2.0092   -7.7845    1.7319 H   0  0  0  0  0  0  0  0  0  0  0  0
    0.8631   -6.9177    3.6310 H   0  0  0  0  0  0  0  0  0  0  0  0
    2.6518   -5.3193    4.7350 H   0  0  0  0  0  0  0  0  0  0  0  0
    6.0155   -8.8833    0.7684 H   0  0  0  0  0  0  0  0  0  0  0  0
    4.2564   -8.9673    0.5987 H   0  0  0  0  0  0  0  0  0  0  0  0
    5.1424  -10.2313    1.4594 H   0  0  0  0  0  0  0  0  0  0  0  0
    7.3214   -4.1058    0.7963 H   0  0  0  0  0  0  0  0  0  0  0  0
    7.3071   -1.9439   -0.4205 H   0  0  0  0  0  0  0  0  0  0  0  0
  1  2  1  0
  1 29  1  0
  1 30  1  0
  1 31  1  0
  2  3  1  0
  3 28  2  0
  3  4  1  0
  4  5  2  0
  4 32  1  0
  5  6  1  0
  5 33  1  0
  6  7  1  0
  6 27  2  0
  7  8  1  0
  7 34  1  0
  7 35  1  0
  8 24  1  0
  8  9  1  0
  8 36  1  6
  9 23  1  0
  9 10  1  6
  9 12  1  0
 10 11  1  0
 11 37  1  0
 11 38  1  0
 11 39  1  0
 12 13  1  0
 12 40  1  0
 12 41  1  0
 14 13  1  1
 14 23  1  0
 14 24  1  0
 14 15  1  0
 15 16  1  0
 15 42  1  0
 15 43  1  0
 16 22  1  0
 16 17  1  0
 16 44  1  1
 17 18  1  0
 17 19  1  0
 17 45  1  1
 18 46  1  0
 18 47  1  0
 18 48  1  0
 19 20  1  0
 19 49  1  0
 19 50  1  0
 20 21  1  0
 20 51  1  0
 20 52  1  0
 21 22  1  0
 21 24  1  0
 21 53  1  6
 22 23  1  0
 22 54  1  6
 23 55  1  1
 24 25  1  6
 25 26  1  0
 26 56  1  0
 26 57  1  0
 26 58  1  0
 27 28  1  0
 27 59  1  0
 28 60  1  0
M  END
>  <i_m_ct_stereo_status>  (368) 
1

>  <s_m_source_file>  (368) 
/var/tmp/pbs.5076255.sched01/tmp6w_bron9/120d4r_aq7a.sdf

>  <i_m_source_file_index>  (368) 
20

>  <i_lp_mmshare_version>  (368) 
48012

>  <i_f3d_flags>  (368) 
0

>  <s_epik_input>  (368) 
W0NIM11PYzFbY0hdW2NIXWMoW2NIXVtjSF0xKVtDSDJdW0NASF0oW0NAXShbQ0gyXU8yKShbQ0BASF0zW0NAQF0yNDUpT1tDSDNdKVtDQF01KE9bQ0gzXSlbQ0BIXTZbQ0BIXTNbQ0BIXShbQ0gyXTQpW0NAQEhdKFtDSDNdKVtDSDJdW0NIMl02

>  <s_epik_cmdline>  (368) 
J2VwaWtfcHl0aG9uJywgJy1waHQnLCAnMi4wJywgJy1waCcsICc3LjAnLCAnLXRuJywgJzgnLCAnLW1hJywgJzIwMCcsICctaW1hZScsICc8aW5maWxlLm1hZT4nLCAnLW9tYWUnLCAnPG91dGZpbGUubWFlPic=

>  <r_lp_tautomer_probability>  (368) 
1

>  <r_epik_Ionization_Penalty>  (368) 
1.05769e-11

>  <r_epik_Ionization_Penalty_Charging>  (368) 
0

>  <r_epik_Ionization_Penalty_Neutral>  (368) 
1.05769e-11

>  <r_epik_State_Penalty>  (368) 
-0

>  <r_epik_Charging_Adjusted_Penalty>  (368) 
0

>  <i_epik_Tot_Q>  (368) 
0

>  <i_epik_Tot_abs_Q>  (368) 
0

>  <s_lp_Force_Field>  (368) 
OPLS3e

>  <r_lp_Energy>  (368) 
96.6031

>  <b_lp_Chiralities_Consistent>  (368) 
1

>  <s_lp_Variant>  (368) 
94:0-1

>  <s_i_glide_gridfile>  (368) 
pfpi4k_grid

>  <i_i_glide_lignum>  (368) 
20

>  <i_i_glide_rotatable_bonds>  (368) 
5

>  <r_i_docking_score>  (368) 
-2.22613

>  <r_i_glide_ligand_efficiency>  (368) 
-0.0795046

>  <r_i_glide_ligand_efficiency_sa>  (368) 
-0.241423

>  <r_i_glide_ligand_efficiency_ln>  (368) 
-0.513856

>  <r_i_glide_gscore>  (368) 
-2.22613

>  <r_i_glide_lipo>  (368) 
-0.427683

>  <r_i_glide_hbond>  (368) 
-0.00491522

>  <r_i_glide_metal>  (368) 
-0

>  <r_i_glide_rewards>  (368) 
-0.787442

>  <r_i_glide_evdw>  (368) 
-22.4777

>  <r_i_glide_ecoul>  (368) 
-0.968162

>  <r_i_glide_erotb>  (368) 
0.26302

>  <r_i_glide_esite>  (368) 
0

>  <r_i_glide_emodel>  (368) 
-23.9623

>  <r_i_glide_energy>  (368) 
-23.4458

>  <r_i_glide_einternal>  (368) 
5.49279

>  <r_i_glide_intrahb_reward>  (368) 
-0

>  <i_i_glide_confnum>  (368) 
4

>  <i_i_glide_posenum>  (368) 
8

>  <r_i_glide_eff_state_penalty>  (368) 
0

>  <ligand_id>  (368) 
94

>  <original_smiles>  (368) 
COc1ccc(CC2C3(OC)COC45CC6C(C)CCC(C6C34)C25OC)cc1

>  <smiles>  (368) 
[H]c1c([H])c(C([H])([H])C2([H])C3(OC([H])([H])[H])C([H])([H])OC45C([H])([H])C6([H])C([H])(C([H])([H])[H])C([H])([H])C([H])([H])C([H])(C6([H])C34[H])C25OC([H])([H])[H])c([H])c([H])c1OC([H])([H])[H]

$$$$
94:0:2
     RDKit          3D

 60 65  0  0  1  0  0  0  0  0999 V2000
    7.4467   -2.7922   -0.1787 C   0  0  0  0  0  0  0  0  0  0  0  0
    6.2678   -3.4207    0.3113 O   0  0  0  0  0  0  0  0  0  0  0  0
    5.6108   -2.8233    1.3551 C   0  0  0  0  0  0  0  0  0  0  0  0
    4.4809   -3.4996    1.8805 C   0  0  0  0  0  0  0  0  0  0  0  0
    3.6894   -2.8893    2.8889 C   0  0  0  0  0  0  0  0  0  0  0  0
    4.0029   -1.6149    3.3921 C   0  0  0  0  0  0  0  0  0  0  0  0
    3.0180   -0.8775    4.3327 C   0  0  0  0  0  0  0  0  0  0  0  0
    1.7731   -0.1583    3.6852 C   0  0  2  0  0  0  0  0  0  0  0  0
    2.0070    0.9356    2.6014 C   0  0  2  0  0  0  0  0  0  0  0  0
    2.0153    0.5296    1.2386 O   0  0  0  0  0  0  0  0  0  0  0  0
    2.9947   -0.3558    0.8272 C   0  0  0  0  0  0  0  0  0  0  0  0
    3.1686    1.8295    3.0343 C   0  0  0  0  0  0  0  0  0  0  0  0
    2.7146    2.4209    4.2362 O   0  0  0  0  0  0  0  0  0  0  0  0
    1.3228    2.1722    4.2820 C   0  0  1  0  0  0  0  0  0  0  0  0
    0.4701    3.3413    4.7817 C   0  0  0  0  0  0  0  0  0  0  0  0
   -0.8373    3.1612    3.9713 C   0  0  2  0  0  0  0  0  0  0  0  0
   -2.1094    3.1469    4.8279 C   0  0  1  0  0  0  0  0  0  0  0  0
   -3.3792    3.0658    3.9844 C   0  0  0  0  0  0  0  0  0  0  0  0
   -2.0400    2.0157    5.8606 C   0  0  0  0  0  0  0  0  0  0  0  0
   -1.7284    0.6608    5.2045 C   0  0  0  0  0  0  0  0  0  0  0  0
   -0.5699    0.6554    4.1768 C   0  0  1  0  0  0  0  0  0  0  0  0
   -0.5739    1.8402    3.1954 C   0  0  2  0  0  0  0  0  0  0  0  0
    0.9260    2.0265    2.8411 C   0  0  2  0  0  0  0  0  0  0  0  0
    0.9094    0.7112    4.6761 C   0  0  1  0  0  0  0  0  0  0  0  0
    1.0711    0.5263    6.0846 O   0  0  0  0  0  0  0  0  0  0  0  0
    0.8540   -0.7728    6.6116 C   0  0  0  0  0  0  0  0  0  0  0  0
    5.1922   -0.9955    2.9365 C   0  0  0  0  0  0  0  0  0  0  0  0
    5.9131   -1.5415    1.8601 C   0  0  0  0  0  0  0  0  0  0  0  0
    7.9287   -3.4441   -0.9076 H   0  0  0  0  0  0  0  0  0  0  0  0
    8.1758   -2.5908    0.6093 H   0  0  0  0  0  0  0  0  0  0  0  0
    7.2058   -1.8572   -0.6849 H   0  0  0  0  0  0  0  0  0  0  0  0
    4.1760   -4.4379    1.4493 H   0  0  0  0  0  0  0  0  0  0  0  0
    2.7909   -3.4045    3.2185 H   0  0  0  0  0  0  0  0  0  0  0  0
    2.6722   -1.6646    4.9959 H   0  0  0  0  0  0  0  0  0  0  0  0
    3.5811   -0.2004    4.9662 H   0  0  0  0  0  0  0  0  0  0  0  0
    1.1715   -0.9637    3.2576 H   0  0  0  0  0  0  0  0  0  0  0  0
    3.0340   -0.6074   -0.2068 H   0  0  0  0  0  0  0  0  0  0  0  0
    2.7854   -1.2586    1.3176 H   0  0  0  0  0  0  0  0  0  0  0  0
    3.9389    0.0301    1.0811 H   0  0  0  0  0  0  0  0  0  0  0  0
    4.0941    1.3338    3.2292 H   0  0  0  0  0  0  0  0  0  0  0  0
    3.3295    2.6192    2.3124 H   0  0  0  0  0  0  0  0  0  0  0  0
    0.3757    3.3196    5.8657 H   0  0  0  0  0  0  0  0  0  0  0  0
    0.9486    4.2878    4.5194 H   0  0  0  0  0  0  0  0  0  0  0  0
   -0.8994    3.9821    3.2547 H   0  0  0  0  0  0  0  0  0  0  0  0
   -2.1631    4.0906    5.3690 H   0  0  0  0  0  0  0  0  0  0  0  0
   -3.4226    2.1657    3.3847 H   0  0  0  0  0  0  0  0  0  0  0  0
   -3.4624    3.8797    3.2766 H   0  0  0  0  0  0  0  0  0  0  0  0
   -4.2645    3.0643    4.6112 H   0  0  0  0  0  0  0  0  0  0  0  0
   -1.2885    2.2258    6.6161 H   0  0  0  0  0  0  0  0  0  0  0  0
   -2.9687    1.9642    6.4301 H   0  0  0  0  0  0  0  0  0  0  0  0
   -1.5863   -0.0915    5.9750 H   0  0  0  0  0  0  0  0  0  0  0  0
   -2.5988    0.3193    4.6572 H   0  0  0  0  0  0  0  0  0  0  0  0
   -0.7431   -0.2448    3.5881 H   0  0  0  0  0  0  0  0  0  0  0  0
   -1.2185    1.7107    2.3228 H   0  0  0  0  0  0  0  0  0  0  0  0
    1.0932    2.9239    2.2317 H   0  0  0  0  0  0  0  0  0  0  0  0
    1.7960   -1.1924    6.9616 H   0  0  0  0  0  0  0  0  0  0  0  0
    0.4063   -1.4620    5.8945 H   0  0  0  0  0  0  0  0  0  0  0  0
    0.1992   -0.7037    7.4777 H   0  0  0  0  0  0  0  0  0  0  0  0
    5.5038   -0.0182    3.2750 H   0  0  0  0  0  0  0  0  0  0  0  0
    6.7120   -0.9503    1.4431 H   0  0  0  0  0  0  0  0  0  0  0  0
  1  2  1  0
  1 29  1  0
  1 30  1  0
  1 31  1  0
  2  3  1  0
  3 28  2  0
  3  4  1  0
  4  5  2  0
  4 32  1  0
  5  6  1  0
  5 33  1  0
  6  7  1  0
  6 27  2  0
  7  8  1  0
  7 34  1  0
  7 35  1  0
  8 24  1  0
  8  9  1  0
  8 36  1  6
  9 23  1  0
  9 10  1  6
  9 12  1  0
 10 11  1  0
 11 37  1  0
 11 38  1  0
 11 39  1  0
 12 13  1  0
 12 40  1  0
 12 41  1  0
 14 13  1  6
 14 23  1  0
 14 24  1  0
 14 15  1  0
 15 16  1  0
 15 42  1  0
 15 43  1  0
 16 22  1  0
 16 17  1  0
 16 44  1  6
 17 18  1  0
 17 19  1  0
 17 45  1  1
 18 46  1  0
 18 47  1  0
 18 48  1  0
 19 20  1  0
 19 49  1  0
 19 50  1  0
 20 21  1  0
 20 51  1  0
 20 52  1  0
 21 22  1  0
 21 24  1  0
 21 53  1  6
 22 23  1  0
 22 54  1  6
 23 55  1  6
 24 25  1  1
 25 26  1  0
 26 56  1  0
 26 57  1  0
 26 58  1  0
 27 28  1  0
 27 59  1  0
 28 60  1  0
M  END
>  <i_m_ct_stereo_status>  (369) 
1

>  <s_m_source_file>  (369) 
/var/tmp/pbs.5076255.sched01/tmp6w_bron9/120d4r_aq7a.sdf

>  <i_m_source_file_index>  (369) 
20

>  <i_lp_mmshare_version>  (369) 
48012

>  <i_f3d_flags>  (369) 
0

>  <s_epik_input>  (369) 
W0NIM11PYzFbY0hdW2NIXWMoW2NIXVtjSF0xKVtDSDJdW0NASF0oW0NAXShbQ0gyXU8yKShbQ0BASF0zW0NAQF0yNDUpT1tDSDNdKVtDQF01KE9bQ0gzXSlbQ0BIXTZbQ0BIXTNbQ0BIXShbQ0gyXTQpW0NAQEhdKFtDSDNdKVtDSDJdW0NIMl02

>  <s_epik_cmdline>  (369) 
J2VwaWtfcHl0aG9uJywgJy1waHQnLCAnMi4wJywgJy1waCcsICc3LjAnLCAnLXRuJywgJzgnLCAnLW1hJywgJzIwMCcsICctaW1hZScsICc8aW5maWxlLm1hZT4nLCAnLW9tYWUnLCAnPG91dGZpbGUubWFlPic=

>  <r_lp_tautomer_probability>  (369) 
1

>  <r_epik_Ionization_Penalty>  (369) 
1.05769e-11

>  <r_epik_Ionization_Penalty_Charging>  (369) 
0

>  <r_epik_Ionization_Penalty_Neutral>  (369) 
1.05769e-11

>  <r_epik_State_Penalty>  (369) 
-0

>  <r_epik_Charging_Adjusted_Penalty>  (369) 
0

>  <i_epik_Tot_Q>  (369) 
0

>  <i_epik_Tot_abs_Q>  (369) 
0

>  <s_lp_Force_Field>  (369) 
OPLS3e

>  <r_lp_Energy>  (369) 
96.6031

>  <b_lp_Chiralities_Consistent>  (369) 
1

>  <s_lp_Variant>  (369) 
94:0-1

>  <s_i_glide_gridfile>  (369) 
pfpi4k_grid

>  <i_i_glide_lignum>  (369) 
20

>  <i_i_glide_rotatable_bonds>  (369) 
5

>  <r_i_docking_score>  (369) 
-1.92386

>  <r_i_glide_ligand_efficiency>  (369) 
-0.0687093

>  <r_i_glide_ligand_efficiency_sa>  (369) 
-0.208642

>  <r_i_glide_ligand_efficiency_ln>  (369) 
-0.444084

>  <r_i_glide_gscore>  (369) 
-1.92386

>  <r_i_glide_lipo>  (369) 
-0.421045

>  <r_i_glide_hbond>  (369) 
0

>  <r_i_glide_metal>  (369) 
-0

>  <r_i_glide_rewards>  (369) 
-0.787442

>  <r_i_glide_evdw>  (369) 
-17.8105

>  <r_i_glide_ecoul>  (369) 
-0.585798

>  <r_i_glide_erotb>  (369) 
0.26302

>  <r_i_glide_esite>  (369) 
0

>  <r_i_glide_emodel>  (369) 
-19.2831

>  <r_i_glide_energy>  (369) 
-18.3963

>  <r_i_glide_einternal>  (369) 
0.526972

>  <r_i_glide_intrahb_reward>  (369) 
-0

>  <i_i_glide_confnum>  (369) 
1

>  <i_i_glide_posenum>  (369) 
30

>  <r_i_glide_eff_state_penalty>  (369) 
0

>  <ligand_id>  (369) 
94

>  <original_smiles>  (369) 
COc1ccc(CC2C3(OC)COC45CC6C(C)CCC(C6C34)C25OC)cc1

>  <smiles>  (369) 
[H]c1c([H])c(C([H])([H])C2([H])C3(OC([H])([H])[H])C([H])([H])OC45C([H])([H])C6([H])C([H])(C([H])([H])[H])C([H])([H])C([H])([H])C([H])(C6([H])C34[H])C25OC([H])([H])[H])c([H])c([H])c1OC([H])([H])[H]

$$$$
95:0:0
     RDKit          3D

 53 56  0  0  1  0  0  0  0  0999 V2000
    4.2005   -1.0022   -2.6750 C   0  0  0  0  0  0  0  0  0  0  0  0
    4.7755   -1.2828   -1.2638 C   0  0  2  0  0  0  0  0  0  0  0  0
    5.8899   -2.3361   -1.3446 C   0  0  0  0  0  0  0  0  0  0  0  0
    6.1032   -2.9547   -2.3861 O   0  0  0  0  0  0  0  0  0  0  0  0
    6.8155   -2.5860   -0.1584 C   0  0  0  0  0  0  0  0  0  0  0  0
    6.2251   -2.7716    1.2627 C   0  0  1  0  0  0  0  0  0  0  0  0
    6.1792   -1.4495    2.0414 C   0  0  0  0  0  0  0  0  0  0  0  0
    5.1076   -0.4517    1.6467 C   0  0  0  0  0  0  0  0  0  0  0  0
    3.7579   -1.0718    1.2578 C   0  0  2  0  0  0  0  0  0  0  0  0
    2.6967    0.0303    1.5063 C   0  0  0  0  0  0  0  0  0  0  0  0
    3.3754   -1.9758    2.2957 O   0  0  0  0  0  0  0  0  0  0  0  0
    3.8310   -3.3271    2.3993 C   0  0  2  0  0  0  0  0  0  0  0  0
    4.0666   -3.6728    3.8905 C   0  0  0  0  0  0  0  0  0  0  0  0
    3.8968   -2.5187    4.8918 C   0  0  0  0  0  0  0  0  0  0  0  0
    3.2613   -4.9001    4.3554 C   0  0  0  0  0  0  0  0  0  0  0  0
    5.4251   -4.0124    3.8679 O   0  0  0  0  0  0  0  0  0  0  0  0
    5.6440   -4.6635    2.5430 O   0  0  0  0  0  0  0  0  0  0  0  0
    5.0625   -3.8060    1.5679 C   0  0  2  0  0  0  0  0  0  0  0  0
    4.6675   -4.7585    0.3859 C   0  0  1  0  0  0  0  0  0  0  0  0
    4.2793   -6.1929    0.8191 C   0  0  0  0  0  0  0  0  0  0  0  0
    3.5967   -4.2480   -0.6206 C   0  0  0  0  0  0  0  0  0  0  0  0
    2.8570   -2.9153   -0.4232 C   0  0  0  0  0  0  0  0  0  0  0  0
    3.6403   -1.5908   -0.2317 C   0  0  2  0  0  0  0  0  0  0  0  0
    4.9925   -0.7028   -3.3575 H   0  0  0  0  0  0  0  0  0  0  0  0
    3.4773   -0.1886   -2.6713 H   0  0  0  0  0  0  0  0  0  0  0  0
    3.7066   -1.8747   -3.1014 H   0  0  0  0  0  0  0  0  0  0  0  0
    5.2570   -0.3482   -0.9911 H   0  0  0  0  0  0  0  0  0  0  0  0
    7.3877   -3.4804   -0.4029 H   0  0  0  0  0  0  0  0  0  0  0  0
    7.5470   -1.7806   -0.1357 H   0  0  0  0  0  0  0  0  0  0  0  0
    7.0930   -3.2536    1.7074 H   0  0  0  0  0  0  0  0  0  0  0  0
    6.0760   -1.6693    3.1003 H   0  0  0  0  0  0  0  0  0  0  0  0
    7.1378   -0.9450    1.9525 H   0  0  0  0  0  0  0  0  0  0  0  0
    4.9693    0.1889    2.5196 H   0  0  0  0  0  0  0  0  0  0  0  0
    5.4772    0.2319    0.8853 H   0  0  0  0  0  0  0  0  0  0  0  0
    2.8684    0.9074    0.8867 H   0  0  0  0  0  0  0  0  0  0  0  0
    2.7040    0.3758    2.5431 H   0  0  0  0  0  0  0  0  0  0  0  0
    1.6889   -0.3389    1.2973 H   0  0  0  0  0  0  0  0  0  0  0  0
    2.9731   -3.9277    2.1005 H   0  0  0  0  0  0  0  0  0  0  0  0
    2.8560   -2.1963    4.9453 H   0  0  0  0  0  0  0  0  0  0  0  0
    4.4958   -1.6472    4.6287 H   0  0  0  0  0  0  0  0  0  0  0  0
    4.1994   -2.8254    5.8944 H   0  0  0  0  0  0  0  0  0  0  0  0
    2.1915   -4.6795    4.3486 H   0  0  0  0  0  0  0  0  0  0  0  0
    3.5316   -5.1838    5.3742 H   0  0  0  0  0  0  0  0  0  0  0  0
    3.4288   -5.7668    3.7183 H   0  0  0  0  0  0  0  0  0  0  0  0
    5.5811   -4.9251   -0.1891 H   0  0  0  0  0  0  0  0  0  0  0  0
    3.3814   -6.2031    1.4350 H   0  0  0  0  0  0  0  0  0  0  0  0
    5.0788   -6.6929    1.3667 H   0  0  0  0  0  0  0  0  0  0  0  0
    4.0846   -6.8061   -0.0591 H   0  0  0  0  0  0  0  0  0  0  0  0
    4.0271   -4.2556   -1.6194 H   0  0  0  0  0  0  0  0  0  0  0  0
    2.8054   -4.9931   -0.6950 H   0  0  0  0  0  0  0  0  0  0  0  0
    2.2607   -2.7923   -1.3266 H   0  0  0  0  0  0  0  0  0  0  0  0
    2.1008   -3.0058    0.3559 H   0  0  0  0  0  0  0  0  0  0  0  0
    2.9124   -0.8842   -0.6134 H   0  0  0  0  0  0  0  0  0  0  0  0
  1  2  1  0
  1 24  1  0
  1 25  1  0
  1 26  1  0
  2 23  1  0
  2  3  1  0
  2 27  1  1
  3  4  2  0
  3  5  1  0
  5  6  1  0
  5 28  1  0
  5 29  1  0
  6 18  1  0
  6  7  1  0
  6 30  1  1
  7  8  1  0
  7 31  1  0
  7 32  1  0
  8  9  1  0
  8 33  1  0
  8 34  1  0
  9 23  1  0
  9 10  1  6
  9 11  1  0
 10 35  1  0
 10 36  1  0
 10 37  1  0
 11 12  1  0
 12 18  1  0
 12 13  1  0
 12 38  1  6
 13 14  1  0
 13 15  1  0
 13 16  1  0
 14 39  1  0
 14 40  1  0
 14 41  1  0
 15 42  1  0
 15 43  1  0
 15 44  1  0
 16 17  1  0
 18 17  1  1
 18 19  1  0
 19 20  1  0
 19 21  1  0
 19 45  1  6
 20 46  1  0
 20 47  1  0
 20 48  1  0
 21 22  1  0
 21 49  1  0
 21 50  1  0
 22 23  1  0
 22 51  1  0
 22 52  1  0
 23 53  1  6
M  END
>  <i_m_ct_stereo_status>  (370) 
1

>  <s_m_source_file>  (370) 
/var/tmp/pbs.5076255.sched01/tmp6w_bron9/120d4r_aq7a.sdf

>  <i_m_source_file_index>  (370) 
21

>  <i_lp_mmshare_version>  (370) 
48012

>  <i_f3d_flags>  (370) 
0

>  <s_epik_input>  (370) 
W0NAQF0xMjNbQ0BIXTRbQ0gyXUMoPU8pW0NAQEhdKFtDSDNdKVtDQEBIXShbQ0gyXVtDSDJdW0NAQEhdM1tDSDNdKVtDQF0oW0NIM10pKFtDSDJdW0NIMl00KU9bQ0BASF0xQyhbQ0gzXSkoW0NIM10pT08y

>  <s_epik_cmdline>  (370) 
J2VwaWtfcHl0aG9uJywgJy1waHQnLCAnMi4wJywgJy1waCcsICc3LjAnLCAnLXRuJywgJzgnLCAnLW1hJywgJzIwMCcsICctaW1hZScsICc8aW5maWxlLm1hZT4nLCAnLW9tYWUnLCAnPG91dGZpbGUubWFlPic=

>  <r_lp_tautomer_probability>  (370) 
1

>  <r_epik_Ionization_Penalty>  (370) 
1.20823e-12

>  <r_epik_Ionization_Penalty_Charging>  (370) 
0

>  <r_epik_Ionization_Penalty_Neutral>  (370) 
1.20823e-12

>  <r_epik_State_Penalty>  (370) 
-0

>  <r_epik_Charging_Adjusted_Penalty>  (370) 
0

>  <i_epik_Tot_Q>  (370) 
0

>  <i_epik_Tot_abs_Q>  (370) 
0

>  <s_lp_Force_Field>  (370) 
OPLS3e

>  <r_lp_Energy>  (370) 
73.5546

>  <b_lp_Chiralities_Consistent>  (370) 
1

>  <s_lp_Variant>  (370) 
95:0-1

>  <s_i_glide_gridfile>  (370) 
pfpi4k_grid

>  <i_i_glide_lignum>  (370) 
21

>  <i_i_glide_rotatable_bonds>  (370) 
0

>  <r_i_docking_score>  (370) 
-2.99352

>  <r_i_glide_ligand_efficiency>  (370) 
-0.130153

>  <r_i_glide_ligand_efficiency_sa>  (370) 
-0.370138

>  <r_i_glide_ligand_efficiency_ln>  (370) 
-0.723861

>  <r_i_glide_gscore>  (370) 
-2.99352

>  <r_i_glide_lipo>  (370) 
-0.622936

>  <r_i_glide_hbond>  (370) 
0

>  <r_i_glide_metal>  (370) 
-0

>  <r_i_glide_rewards>  (370) 
-1.21064

>  <r_i_glide_evdw>  (370) 
-22.2079

>  <r_i_glide_ecoul>  (370) 
-0.093124

>  <r_i_glide_erotb>  (370) 
0

>  <r_i_glide_esite>  (370) 
-0.0355836

>  <r_i_glide_emodel>  (370) 
-25.984

>  <r_i_glide_energy>  (370) 
-22.301

>  <r_i_glide_einternal>  (370) 
0

>  <r_i_glide_intrahb_reward>  (370) 
-0

>  <i_i_glide_confnum>  (370) 
1

>  <i_i_glide_posenum>  (370) 
18

>  <r_i_glide_eff_state_penalty>  (370) 
0

>  <ligand_id>  (370) 
95

>  <original_smiles>  (370) 
CC1C(=O)CC2CCC3(C)OC4C(C)(C)OOC24C(C)CCC13

>  <smiles>  (370) 
[H]C([H])([H])C1([H])C(=O)C([H])([H])C2([H])C([H])([H])C([H])([H])C3(C([H])([H])[H])OC4([H])C(C([H])([H])[H])(C([H])([H])[H])OOC42C([H])(C([H])([H])[H])C([H])([H])C([H])([H])C13[H]

$$$$
95:0:1
     RDKit          3D

 53 56  0  0  1  0  0  0  0  0999 V2000
    3.7208   -1.0187   -3.1466 C   0  0  0  0  0  0  0  0  0  0  0  0
    4.5891   -1.3745   -1.9120 C   0  0  2  0  0  0  0  0  0  0  0  0
    5.5218   -2.5481   -2.2298 C   0  0  0  0  0  0  0  0  0  0  0  0
    5.3823   -3.1918   -3.2763 O   0  0  0  0  0  0  0  0  0  0  0  0
    6.6950   -2.8975   -1.3184 C   0  0  0  0  0  0  0  0  0  0  0  0
    6.4714   -3.0061    0.2145 C   0  0  1  0  0  0  0  0  0  0  0  0
    6.7603   -1.6864    0.9320 C   0  0  0  0  0  0  0  0  0  0  0  0
    5.7247   -0.5885    0.7966 C   0  0  0  0  0  0  0  0  0  0  0  0
    4.2663   -1.0626    0.7827 C   0  0  2  0  0  0  0  0  0  0  0  0
    3.4191    0.1256    1.2739 C   0  0  0  0  0  0  0  0  0  0  0  0
    4.0651   -1.9043    1.9074 O   0  0  0  0  0  0  0  0  0  0  0  0
    4.3745   -3.3011    1.9157 C   0  0  2  0  0  0  0  0  0  0  0  0
    4.9221   -3.7001    3.2896 C   0  0  0  0  0  0  0  0  0  0  0  0
    5.1267   -2.5302    4.2744 C   0  0  0  0  0  0  0  0  0  0  0  0
    4.1224   -4.8045    3.9921 C   0  0  0  0  0  0  0  0  0  0  0  0
    6.1714   -4.2565    2.9209 O   0  0  0  0  0  0  0  0  0  0  0  0
    6.0055   -4.8524    1.5882 O   0  0  0  0  0  0  0  0  0  0  0  0
    5.3071   -3.8915    0.8206 C   0  0  2  0  0  0  0  0  0  0  0  0
    4.5444   -4.7921   -0.1651 C   0  0  1  0  0  0  0  0  0  0  0  0
    4.1357   -6.1510    0.4143 C   0  0  0  0  0  0  0  0  0  0  0  0
    3.3084   -4.1719   -0.8351 C   0  0  0  0  0  0  0  0  0  0  0  0
    2.7924   -2.7737   -0.5457 C   0  0  0  0  0  0  0  0  0  0  0  0
    3.7278   -1.5476   -0.6173 C   0  0  2  0  0  0  0  0  0  0  0  0
    4.3403   -0.8084   -4.0197 H   0  0  0  0  0  0  0  0  0  0  0  0
    3.1190   -0.1282   -2.9780 H   0  0  0  0  0  0  0  0  0  0  0  0
    3.0370   -1.8271   -3.4175 H   0  0  0  0  0  0  0  0  0  0  0  0
    5.2223   -0.4968   -1.7979 H   0  0  0  0  0  0  0  0  0  0  0  0
    7.0811   -3.8477   -1.6712 H   0  0  0  0  0  0  0  0  0  0  0  0
    7.4981   -2.1847   -1.5214 H   0  0  0  0  0  0  0  0  0  0  0  0
    7.3638   -3.5747    0.4776 H   0  0  0  0  0  0  0  0  0  0  0  0
    6.8663   -1.9025    1.9845 H   0  0  0  0  0  0  0  0  0  0  0  0
    7.7262   -1.2903    0.6231 H   0  0  0  0  0  0  0  0  0  0  0  0
    5.8615    0.0665    1.6566 H   0  0  0  0  0  0  0  0  0  0  0  0
    5.9584    0.0609   -0.0416 H   0  0  0  0  0  0  0  0  0  0  0  0
    3.5472    0.9481    0.5896 H   0  0  0  0  0  0  0  0  0  0  0  0
    3.7112    0.4818    2.2621 H   0  0  0  0  0  0  0  0  0  0  0  0
    2.3528   -0.1152    1.3150 H   0  0  0  0  0  0  0  0  0  0  0  0
    3.4071   -3.8037    1.8503 H   0  0  0  0  0  0  0  0  0  0  0  0
    4.1753   -2.0864    4.5753 H   0  0  0  0  0  0  0  0  0  0  0  0
    5.7248   -1.7219    3.8442 H   0  0  0  0  0  0  0  0  0  0  0  0
    5.6371   -2.8530    5.1820 H   0  0  0  0  0  0  0  0  0  0  0  0
    3.1169   -4.4540    4.2504 H   0  0  0  0  0  0  0  0  0  0  0  0
    4.6121   -5.1032    4.9139 H   0  0  0  0  0  0  0  0  0  0  0  0
    4.0246   -5.6924    3.3700 H   0  0  0  0  0  0  0  0  0  0  0  0
    5.2345   -5.0598   -0.9653 H   0  0  0  0  0  0  0  0  0  0  0  0
    3.4025   -6.0804    1.2143 H   0  0  0  0  0  0  0  0  0  0  0  0
    4.9740   -6.7674    0.7444 H   0  0  0  0  0  0  0  0  0  0  0  0
    3.6826   -6.7103   -0.3882 H   0  0  0  0  0  0  0  0  0  0  0  0
    3.4819   -4.1988   -1.9049 H   0  0  0  0  0  0  0  0  0  0  0  0
    2.4446   -4.8273   -0.6906 H   0  0  0  0  0  0  0  0  0  0  0  0
    2.0469   -2.6659   -1.3328 H   0  0  0  0  0  0  0  0  0  0  0  0
    2.2127   -2.7515    0.3670 H   0  0  0  0  0  0  0  0  0  0  0  0
    3.0015   -0.7640   -0.8221 H   0  0  0  0  0  0  0  0  0  0  0  0
  1  2  1  0
  1 24  1  0
  1 25  1  0
  1 26  1  0
  2 23  1  0
  2  3  1  0
  2 27  1  1
  3  4  2  0
  3  5  1  0
  5  6  1  0
  5 28  1  0
  5 29  1  0
  6 18  1  0
  6  7  1  0
  6 30  1  1
  7  8  1  0
  7 31  1  0
  7 32  1  0
  8  9  1  0
  8 33  1  0
  8 34  1  0
  9 23  1  0
  9 10  1  1
  9 11  1  0
 10 35  1  0
 10 36  1  0
 10 37  1  0
 11 12  1  0
 12 18  1  0
 12 13  1  0
 12 38  1  6
 13 14  1  0
 13 15  1  0
 13 16  1  0
 14 39  1  0
 14 40  1  0
 14 41  1  0
 15 42  1  0
 15 43  1  0
 15 44  1  0
 16 17  1  0
 18 17  1  1
 18 19  1  0
 19 20  1  0
 19 21  1  0
 19 45  1  6
 20 46  1  0
 20 47  1  0
 20 48  1  0
 21 22  1  0
 21 49  1  0
 21 50  1  0
 22 23  1  0
 22 51  1  0
 22 52  1  0
 23 53  1  6
M  END
>  <i_m_ct_stereo_status>  (371) 
1

>  <s_m_source_file>  (371) 
/var/tmp/pbs.5076255.sched01/tmp6w_bron9/120d4r_aq7a.sdf

>  <i_m_source_file_index>  (371) 
21

>  <i_lp_mmshare_version>  (371) 
48012

>  <i_f3d_flags>  (371) 
0

>  <s_epik_input>  (371) 
W0NAQF0xMjNbQ0BIXTRbQ0gyXUMoPU8pW0NAQEhdKFtDSDNdKVtDQEBIXShbQ0gyXVtDSDJdW0NAQEhdM1tDSDNdKVtDQF0oW0NIM10pKFtDSDJdW0NIMl00KU9bQ0BASF0xQyhbQ0gzXSkoW0NIM10pT08y

>  <s_epik_cmdline>  (371) 
J2VwaWtfcHl0aG9uJywgJy1waHQnLCAnMi4wJywgJy1waCcsICc3LjAnLCAnLXRuJywgJzgnLCAnLW1hJywgJzIwMCcsICctaW1hZScsICc8aW5maWxlLm1hZT4nLCAnLW9tYWUnLCAnPG91dGZpbGUubWFlPic=

>  <r_lp_tautomer_probability>  (371) 
1

>  <r_epik_Ionization_Penalty>  (371) 
1.20823e-12

>  <r_epik_Ionization_Penalty_Charging>  (371) 
0

>  <r_epik_Ionization_Penalty_Neutral>  (371) 
1.20823e-12

>  <r_epik_State_Penalty>  (371) 
-0

>  <r_epik_Charging_Adjusted_Penalty>  (371) 
0

>  <i_epik_Tot_Q>  (371) 
0

>  <i_epik_Tot_abs_Q>  (371) 
0

>  <s_lp_Force_Field>  (371) 
OPLS3e

>  <r_lp_Energy>  (371) 
73.5546

>  <b_lp_Chiralities_Consistent>  (371) 
1

>  <s_lp_Variant>  (371) 
95:0-1

>  <s_i_glide_gridfile>  (371) 
pfpi4k_grid

>  <i_i_glide_lignum>  (371) 
21

>  <i_i_glide_rotatable_bonds>  (371) 
0

>  <r_i_docking_score>  (371) 
-2.76395

>  <r_i_glide_ligand_efficiency>  (371) 
-0.120172

>  <r_i_glide_ligand_efficiency_sa>  (371) 
-0.341752

>  <r_i_glide_ligand_efficiency_ln>  (371) 
-0.668347

>  <r_i_glide_gscore>  (371) 
-2.76395

>  <r_i_glide_lipo>  (371) 
-0.603346

>  <r_i_glide_hbond>  (371) 
0

>  <r_i_glide_metal>  (371) 
-0

>  <r_i_glide_rewards>  (371) 
-1.26971

>  <r_i_glide_evdw>  (371) 
-16.5261

>  <r_i_glide_ecoul>  (371) 
-0.430601

>  <r_i_glide_erotb>  (371) 
0

>  <r_i_glide_esite>  (371) 
0

>  <r_i_glide_emodel>  (371) 
-19.7393

>  <r_i_glide_energy>  (371) 
-16.9567

>  <r_i_glide_einternal>  (371) 
0

>  <r_i_glide_intrahb_reward>  (371) 
-0

>  <i_i_glide_confnum>  (371) 
2

>  <i_i_glide_posenum>  (371) 
40

>  <r_i_glide_eff_state_penalty>  (371) 
0

>  <ligand_id>  (371) 
95

>  <original_smiles>  (371) 
CC1C(=O)CC2CCC3(C)OC4C(C)(C)OOC24C(C)CCC13

>  <smiles>  (371) 
[H]C([H])([H])C1([H])C(=O)C([H])([H])C2([H])C([H])([H])C([H])([H])C3(C([H])([H])[H])OC4([H])C(C([H])([H])[H])(C([H])([H])[H])OOC42C([H])(C([H])([H])[H])C([H])([H])C([H])([H])C13[H]

$$$$
95:0:2
     RDKit          3D

 53 56  0  0  1  0  0  0  0  0999 V2000
    4.9937   -0.4163    3.9185 C   0  0  0  0  0  0  0  0  0  0  0  0
    5.0690   -1.9034    3.4949 C   0  0  2  0  0  0  0  0  0  0  0  0
    5.7116   -2.0359    2.0987 C   0  0  0  0  0  0  0  0  0  0  0  0
    5.9126   -1.0397    1.4006 O   0  0  0  0  0  0  0  0  0  0  0  0
    6.1922   -3.3900    1.5760 C   0  0  0  0  0  0  0  0  0  0  0  0
    5.2892   -4.6426    1.6878 C   0  0  1  0  0  0  0  0  0  0  0  0
    5.5616   -5.4495    2.9678 C   0  0  0  0  0  0  0  0  0  0  0  0
    5.0417   -4.8514    4.2723 C   0  0  0  0  0  0  0  0  0  0  0  0
    3.6770   -4.1332    4.1780 C   0  0  2  0  0  0  0  0  0  0  0  0
    3.0650   -4.1811    5.5978 C   0  0  0  0  0  0  0  0  0  0  0  0
    2.7610   -5.0099    3.5209 O   0  0  0  0  0  0  0  0  0  0  0  0
    2.6748   -5.1692    2.1035 C   0  0  2  0  0  0  0  0  0  0  0  0
    2.4228   -6.6546    1.7475 C   0  0  0  0  0  0  0  0  0  0  0  0
    2.4524   -7.6413    2.9271 C   0  0  0  0  0  0  0  0  0  0  0  0
    1.1303   -6.8488    0.9334 C   0  0  0  0  0  0  0  0  0  0  0  0
    3.5428   -6.9205    0.9418 O   0  0  0  0  0  0  0  0  0  0  0  0
    3.7863   -5.6476    0.1990 O   0  0  0  0  0  0  0  0  0  0  0  0
    3.7934   -4.6112    1.1731 C   0  0  2  0  0  0  0  0  0  0  0  0
    3.3549   -3.3212    0.4002 C   0  0  1  0  0  0  0  0  0  0  0  0
    2.4127   -3.5840   -0.7901 C   0  0  0  0  0  0  0  0  0  0  0  0
    2.7962   -2.1270    1.2289 C   0  0  0  0  0  0  0  0  0  0  0  0
    2.5554   -2.2046    2.7480 C   0  0  0  0  0  0  0  0  0  0  0  0
    3.6954   -2.6231    3.7016 C   0  0  2  0  0  0  0  0  0  0  0  0
    5.9779    0.0517    3.8761 H   0  0  0  0  0  0  0  0  0  0  0  0
    4.6442   -0.3123    4.9455 H   0  0  0  0  0  0  0  0  0  0  0  0
    4.3263    0.1632    3.2783 H   0  0  0  0  0  0  0  0  0  0  0  0
    5.7877   -2.3256    4.1902 H   0  0  0  0  0  0  0  0  0  0  0  0
    6.4407   -3.2442    0.5257 H   0  0  0  0  0  0  0  0  0  0  0  0
    7.1393   -3.6096    2.0647 H   0  0  0  0  0  0  0  0  0  0  0  0
    5.7896   -5.2729    0.9503 H   0  0  0  0  0  0  0  0  0  0  0  0
    5.1533   -6.4498    2.8472 H   0  0  0  0  0  0  0  0  0  0  0  0
    6.6345   -5.6109    3.0750 H   0  0  0  0  0  0  0  0  0  0  0  0
    4.9560   -5.6915    4.9649 H   0  0  0  0  0  0  0  0  0  0  0  0
    5.8006   -4.2263    4.7388 H   0  0  0  0  0  0  0  0  0  0  0  0
    3.6787   -3.6331    6.3180 H   0  0  0  0  0  0  0  0  0  0  0  0
    2.9660   -5.2098    5.9575 H   0  0  0  0  0  0  0  0  0  0  0  0
    2.0617   -3.7438    5.6052 H   0  0  0  0  0  0  0  0  0  0  0  0
    1.7546   -4.6553    1.8353 H   0  0  0  0  0  0  0  0  0  0  0  0
    1.6163   -7.4701    3.6035 H   0  0  0  0  0  0  0  0  0  0  0  0
    3.3699   -7.5611    3.5122 H   0  0  0  0  0  0  0  0  0  0  0  0
    2.3841   -8.6711    2.5722 H   0  0  0  0  0  0  0  0  0  0  0  0
    0.2522   -6.6131    1.5326 H   0  0  0  0  0  0  0  0  0  0  0  0
    1.0213   -7.8797    0.6132 H   0  0  0  0  0  0  0  0  0  0  0  0
    1.1149   -6.2310    0.0389 H   0  0  0  0  0  0  0  0  0  0  0  0
    4.2474   -2.9673   -0.1132 H   0  0  0  0  0  0  0  0  0  0  0  0
    1.4587   -4.0153   -0.4921 H   0  0  0  0  0  0  0  0  0  0  0  0
    2.8612   -4.2503   -1.5165 H   0  0  0  0  0  0  0  0  0  0  0  0
    2.2185   -2.6525   -1.3271 H   0  0  0  0  0  0  0  0  0  0  0  0
    3.3748   -1.2355    0.9909 H   0  0  0  0  0  0  0  0  0  0  0  0
    1.8055   -1.8778    0.8721 H   0  0  0  0  0  0  0  0  0  0  0  0
    2.2639   -1.1927    3.0327 H   0  0  0  0  0  0  0  0  0  0  0  0
    1.6595   -2.7883    2.9574 H   0  0  0  0  0  0  0  0  0  0  0  0
    3.3502   -2.1137    4.6025 H   0  0  0  0  0  0  0  0  0  0  0  0
  1  2  1  0
  1 24  1  0
  1 25  1  0
  1 26  1  0
  2 23  1  0
  2  3  1  0
  2 27  1  1
  3  4  2  0
  3  5  1  0
  5  6  1  0
  5 28  1  0
  5 29  1  0
  6 18  1  0
  6  7  1  0
  6 30  1  6
  7  8  1  0
  7 31  1  0
  7 32  1  0
  8  9  1  0
  8 33  1  0
  8 34  1  0
  9 23  1  0
  9 10  1  1
  9 11  1  0
 10 35  1  0
 10 36  1  0
 10 37  1  0
 11 12  1  0
 12 18  1  0
 12 13  1  0
 12 38  1  6
 13 14  1  0
 13 15  1  0
 13 16  1  0
 14 39  1  0
 14 40  1  0
 14 41  1  0
 15 42  1  0
 15 43  1  0
 15 44  1  0
 16 17  1  0
 18 17  1  6
 18 19  1  0
 19 20  1  0
 19 21  1  0
 19 45  1  6
 20 46  1  0
 20 47  1  0
 20 48  1  0
 21 22  1  0
 21 49  1  0
 21 50  1  0
 22 23  1  0
 22 51  1  0
 22 52  1  0
 23 53  1  1
M  END
>  <i_m_ct_stereo_status>  (372) 
1

>  <s_m_source_file>  (372) 
/var/tmp/pbs.5076255.sched01/tmp6w_bron9/120d4r_aq7a.sdf

>  <i_m_source_file_index>  (372) 
21

>  <i_lp_mmshare_version>  (372) 
48012

>  <i_f3d_flags>  (372) 
0

>  <s_epik_input>  (372) 
W0NAQF0xMjNbQ0BIXTRbQ0gyXUMoPU8pW0NAQEhdKFtDSDNdKVtDQEBIXShbQ0gyXVtDSDJdW0NAQEhdM1tDSDNdKVtDQF0oW0NIM10pKFtDSDJdW0NIMl00KU9bQ0BASF0xQyhbQ0gzXSkoW0NIM10pT08y

>  <s_epik_cmdline>  (372) 
J2VwaWtfcHl0aG9uJywgJy1waHQnLCAnMi4wJywgJy1waCcsICc3LjAnLCAnLXRuJywgJzgnLCAnLW1hJywgJzIwMCcsICctaW1hZScsICc8aW5maWxlLm1hZT4nLCAnLW9tYWUnLCAnPG91dGZpbGUubWFlPic=

>  <r_lp_tautomer_probability>  (372) 
1

>  <r_epik_Ionization_Penalty>  (372) 
1.20823e-12

>  <r_epik_Ionization_Penalty_Charging>  (372) 
0

>  <r_epik_Ionization_Penalty_Neutral>  (372) 
1.20823e-12

>  <r_epik_State_Penalty>  (372) 
-0

>  <r_epik_Charging_Adjusted_Penalty>  (372) 
0

>  <i_epik_Tot_Q>  (372) 
0

>  <i_epik_Tot_abs_Q>  (372) 
0

>  <s_lp_Force_Field>  (372) 
OPLS3e

>  <r_lp_Energy>  (372) 
73.5546

>  <b_lp_Chiralities_Consistent>  (372) 
1

>  <s_lp_Variant>  (372) 
95:0-1

>  <s_i_glide_gridfile>  (372) 
pfpi4k_grid

>  <i_i_glide_lignum>  (372) 
21

>  <i_i_glide_rotatable_bonds>  (372) 
0

>  <r_i_docking_score>  (372) 
-2.41508

>  <r_i_glide_ligand_efficiency>  (372) 
-0.105003

>  <r_i_glide_ligand_efficiency_sa>  (372) 
-0.298616

>  <r_i_glide_ligand_efficiency_ln>  (372) 
-0.583987

>  <r_i_glide_gscore>  (372) 
-2.41508

>  <r_i_glide_lipo>  (372) 
-0.301849

>  <r_i_glide_hbond>  (372) 
0

>  <r_i_glide_metal>  (372) 
-0

>  <r_i_glide_rewards>  (372) 
-1.31372

>  <r_i_glide_evdw>  (372) 
-17.581

>  <r_i_glide_ecoul>  (372) 
0.530301

>  <r_i_glide_erotb>  (372) 
0

>  <r_i_glide_esite>  (372) 
0

>  <r_i_glide_emodel>  (372) 
-19.9556

>  <r_i_glide_energy>  (372) 
-17.0507

>  <r_i_glide_einternal>  (372) 
0

>  <r_i_glide_intrahb_reward>  (372) 
-0

>  <i_i_glide_confnum>  (372) 
2

>  <i_i_glide_posenum>  (372) 
21

>  <r_i_glide_eff_state_penalty>  (372) 
0

>  <ligand_id>  (372) 
95

>  <original_smiles>  (372) 
CC1C(=O)CC2CCC3(C)OC4C(C)(C)OOC24C(C)CCC13

>  <smiles>  (372) 
[H]C([H])([H])C1([H])C(=O)C([H])([H])C2([H])C([H])([H])C([H])([H])C3(C([H])([H])[H])OC4([H])C(C([H])([H])[H])(C([H])([H])[H])OOC42C([H])(C([H])([H])[H])C([H])([H])C([H])([H])C13[H]

$$$$
96:0:0
     RDKit          3D

 62 67  0  0  1  0  0  0  0  0999 V2000
    3.4861   -9.2494    1.7336 C   0  0  0  0  0  0  0  0  0  0  0  0
    2.4357   -8.4050    1.7489 C   0  0  0  0  0  0  0  0  0  0  0  0
    1.9009   -7.5218    2.8847 C   0  0  1  0  0  0  0  0  0  0  0  0
    0.5248   -8.1681    3.2244 C   0  0  0  0  0  0  0  0  0  0  0  0
    2.7602   -7.6028    4.1650 C   0  0  0  0  0  0  0  0  0  0  0  0
    4.1183   -6.8912    4.0248 C   0  0  0  0  0  0  0  0  0  0  0  0
    4.0423   -5.3668    3.7132 C   0  0  1  0  0  0  0  0  0  0  0  0
    3.5651   -4.8058    5.0917 C   0  0  0  0  0  0  0  0  0  0  0  0
    5.4097   -4.6423    3.4052 C   0  0  1  0  0  0  0  0  0  0  0  0
    6.3257   -5.6895    2.7009 C   0  0  0  0  0  0  0  0  0  0  0  0
    5.7258   -6.1292    1.3120 C   0  0  0  0  0  0  0  0  0  0  0  0
    4.9365   -5.0062    0.6187 C   0  0  2  0  0  0  0  0  0  0  0  0
    5.6271   -3.7767    1.0437 C   0  0  0  0  0  0  0  0  0  0  0  0
    5.0889   -3.3883    2.4777 C   0  0  2  0  0  0  0  0  0  0  0  0
    5.5342   -1.9492    2.4287 C   0  0  0  0  0  0  0  0  0  0  0  0
    4.5417   -1.1554    1.4453 C   0  0  0  0  0  0  0  0  0  0  0  0
    3.6728   -1.8692    0.2735 C   0  0  1  0  0  0  0  0  0  0  0  0
    4.2831   -1.5166   -1.1301 C   0  0  0  0  0  0  0  0  0  0  0  0
    2.9022   -3.3307    0.3337 C   0  0  1  0  0  0  0  0  0  0  0  0
    2.3239   -3.5884   -1.0786 C   0  0  0  0  0  0  0  0  0  0  0  0
    3.4484   -4.7574    0.9894 C   0  0  1  0  0  0  0  0  0  0  0  0
    2.7269   -5.8193    0.3966 O   0  0  0  0  0  0  0  0  0  0  0  0
    1.4088   -5.8957    1.1074 O   0  0  0  0  0  0  0  0  0  0  0  0
    1.7569   -6.0039    2.4780 C   0  0  1  0  0  0  0  0  0  0  0  0
    0.7619   -5.4508    3.3435 O   0  0  0  0  0  0  0  0  0  0  0  0
    3.0248   -5.0800    2.5120 C   0  0  1  0  0  0  0  0  0  0  0  0
    2.6122   -3.7923    2.8922 O   0  0  0  0  0  0  0  0  0  0  0  0
    3.7947   -2.8769    2.9491 O   0  0  0  0  0  0  0  0  0  0  0  0
    4.1244   -9.4192    2.5808 H   0  0  0  0  0  0  0  0  0  0  0  0
    3.7167   -9.8112    0.8432 H   0  0  0  0  0  0  0  0  0  0  0  0
    1.8332   -8.3455    0.8640 H   0  0  0  0  0  0  0  0  0  0  0  0
    0.0428   -7.7321    4.1077 H   0  0  0  0  0  0  0  0  0  0  0  0
    0.6459   -9.2229    3.4496 H   0  0  0  0  0  0  0  0  0  0  0  0
   -0.1859   -8.1038    2.3961 H   0  0  0  0  0  0  0  0  0  0  0  0
    2.1953   -7.1816    4.9995 H   0  0  0  0  0  0  0  0  0  0  0  0
    2.9108   -8.6472    4.4322 H   0  0  0  0  0  0  0  0  0  0  0  0
    4.6944   -7.0830    4.9268 H   0  0  0  0  0  0  0  0  0  0  0  0
    4.6485   -7.4325    3.2715 H   0  0  0  0  0  0  0  0  0  0  0  0
    3.6981   -3.7290    5.2031 H   0  0  0  0  0  0  0  0  0  0  0  0
    4.1457   -5.2491    5.8970 H   0  0  0  0  0  0  0  0  0  0  0  0
    2.5148   -5.0313    5.3139 H   0  0  0  0  0  0  0  0  0  0  0  0
    5.8717   -4.3178    4.3334 H   0  0  0  0  0  0  0  0  0  0  0  0
    7.3101   -5.2459    2.5577 H   0  0  0  0  0  0  0  0  0  0  0  0
    6.5629   -6.5414    3.3303 H   0  0  0  0  0  0  0  0  0  0  0  0
    6.5708   -6.4001    0.6810 H   0  0  0  0  0  0  0  0  0  0  0  0
    5.1145   -7.0247    1.3366 H   0  0  0  0  0  0  0  0  0  0  0  0
    5.0151   -5.1188   -0.4579 H   0  0  0  0  0  0  0  0  0  0  0  0
    6.7110   -3.9144    1.0740 H   0  0  0  0  0  0  0  0  0  0  0  0
    5.6655   -3.0488    0.2647 H   0  0  0  0  0  0  0  0  0  0  0  0
    5.5154   -1.4730    3.4121 H   0  0  0  0  0  0  0  0  0  0  0  0
    6.5610   -1.8345    2.0726 H   0  0  0  0  0  0  0  0  0  0  0  0
    3.8211   -0.6326    2.0815 H   0  0  0  0  0  0  0  0  0  0  0  0
    5.1161   -0.3453    1.0126 H   0  0  0  0  0  0  0  0  0  0  0  0
    2.8191   -1.1837    0.2569 H   0  0  0  0  0  0  0  0  0  0  0  0
    4.9080   -2.3058   -1.5515 H   0  0  0  0  0  0  0  0  0  0  0  0
    4.8805   -0.6038   -1.1062 H   0  0  0  0  0  0  0  0  0  0  0  0
    3.5016   -1.3100   -1.8636 H   0  0  0  0  0  0  0  0  0  0  0  0
    1.9910   -3.0752    0.8751 H   0  0  0  0  0  0  0  0  0  0  0  0
    3.1040   -3.8776   -1.7886 H   0  0  0  0  0  0  0  0  0  0  0  0
    1.8445   -2.6987   -1.4951 H   0  0  0  0  0  0  0  0  0  0  0  0
    1.5494   -4.3614   -1.0834 H   0  0  0  0  0  0  0  0  0  0  0  0
    0.8660   -4.4972    3.2861 H   0  0  0  0  0  0  0  0  0  0  0  0
  1  2  2  0
  1 29  1  0
  1 30  1  0
  2  3  1  0
  2 31  1  0
  3 24  1  0
  3  4  1  1
  3  5  1  0
  4 32  1  0
  4 33  1  0
  4 34  1  0
  5  6  1  0
  5 35  1  0
  5 36  1  0
  6  7  1  0
  6 37  1  0
  6 38  1  0
  7 26  1  0
  7  8  1  1
  7  9  1  0
  8 39  1  0
  8 40  1  0
  8 41  1  0
  9 14  1  0
  9 10  1  0
  9 42  1  1
 10 11  1  0
 10 43  1  0
 10 44  1  0
 11 12  1  0
 11 45  1  0
 11 46  1  0
 12 21  1  0
 12 13  1  0
 12 47  1  6
 13 14  1  0
 13 48  1  0
 13 49  1  0
 14 28  1  0
 14 15  1  1
 15 16  1  0
 15 50  1  0
 15 51  1  0
 16 17  1  0
 16 52  1  0
 16 53  1  0
 17 18  1  0
 17 19  1  0
 17 54  1  6
 18 55  1  0
 18 56  1  0
 18 57  1  0
 19 20  1  0
 19 21  1  0
 19 58  1  1
 20 59  1  0
 20 60  1  0
 20 61  1  0
 21 26  1  0
 21 22  1  6
 22 23  1  0
 23 24  1  0
 24 25  1  1
 24 26  1  0
 25 62  1  0
 26 27  1  1
 27 28  1  0
M  END
>  <i_m_ct_stereo_status>  (373) 
1

>  <s_m_source_file>  (373) 
/var/tmp/pbs.5076255.sched01/tmp6w_bron9/120d4r_aq7a.sdf

>  <i_m_source_file_index>  (373) 
22

>  <i_lp_mmshare_version>  (373) 
48012

>  <i_f3d_flags>  (373) 
0

>  <s_epik_input>  (373) 
W0NIMl09W0NIXVtDQEBdKFtDSDNdKShbQ0gyXVtDSDJdMSlbQ0BdMihbT0hdKU9PW0NAXShbQ0BASF0oW0NIMl0zKVtDSDJdW0NIMl00KShbQ0BdMihPTzUpW0NAXTEoW0NIM10pW0NAQEhdNFtDQEBdMzU2KVtDQEhdKFtDSDNdKVtDQEhdKFtDSDNdKVtDSDJdW0NIMl02

>  <s_epik_cmdline>  (373) 
J2VwaWtfcHl0aG9uJywgJy1waHQnLCAnMi4wJywgJy1waCcsICc3LjAnLCAnLXRuJywgJzgnLCAnLW1hJywgJzIwMCcsICctaW1hZScsICc8aW5maWxlLm1hZT4nLCAnLW9tYWUnLCAnPG91dGZpbGUubWFlPic=

>  <r_lp_tautomer_probability>  (373) 
1

>  <r_epik_Ionization_Penalty>  (373) 
9.47595e-05

>  <r_epik_Ionization_Penalty_Charging>  (373) 
0

>  <r_epik_Ionization_Penalty_Neutral>  (373) 
9.47595e-05

>  <r_epik_State_Penalty>  (373) 
-0

>  <r_epik_Charging_Adjusted_Penalty>  (373) 
0

>  <i_epik_Tot_Q>  (373) 
0

>  <i_epik_Tot_abs_Q>  (373) 
0

>  <s_lp_Force_Field>  (373) 
OPLS3e

>  <r_lp_Energy>  (373) 
207.029

>  <b_lp_Chiralities_Consistent>  (373) 
1

>  <s_lp_Variant>  (373) 
96:0-1

>  <s_i_glide_gridfile>  (373) 
pfpi4k_grid

>  <i_i_glide_lignum>  (373) 
22

>  <i_i_glide_rotatable_bonds>  (373) 
2

>  <r_i_docking_score>  (373) 
-2.80156

>  <r_i_glide_ligand_efficiency>  (373) 
-0.100056

>  <r_i_glide_ligand_efficiency_sa>  (373) 
-0.303828

>  <r_i_glide_ligand_efficiency_ln>  (373) 
-0.646683

>  <r_i_glide_gscore>  (373) 
-2.80156

>  <r_i_glide_lipo>  (373) 
-0.409862

>  <r_i_glide_hbond>  (373) 
-0.151684

>  <r_i_glide_metal>  (373) 
-0

>  <r_i_glide_rewards>  (373) 
-0.746502

>  <r_i_glide_evdw>  (373) 
-23.724

>  <r_i_glide_ecoul>  (373) 
-2.72708

>  <r_i_glide_erotb>  (373) 
0.127903

>  <r_i_glide_esite>  (373) 
-0.0261517

>  <r_i_glide_emodel>  (373) 
-30.6364

>  <r_i_glide_energy>  (373) 
-26.4511

>  <r_i_glide_einternal>  (373) 
0.581656

>  <r_i_glide_intrahb_reward>  (373) 
-0

>  <i_i_glide_confnum>  (373) 
1

>  <i_i_glide_posenum>  (373) 
15

>  <r_i_glide_eff_state_penalty>  (373) 
0

>  <ligand_id>  (373) 
96

>  <original_smiles>  (373) 
C=CC1(C)CCC2(C)C3CCC4CC35CCC(C)C(C)C43OOC1(O)C23OO5

>  <smiles>  (373) 
[H]OC12OOC34C5([H])C([H])([H])C([H])([H])C6([H])C(OOC13C6(C([H])([H])[H])C([H])([H])C([H])([H])C2(C([H])=C([H])[H])C([H])([H])[H])(C([H])([H])C([H])([H])C([H])(C([H])([H])[H])C4([H])C([H])([H])[H])C5([H])[H]

$$$$
96:0:1
     RDKit          3D

 62 67  0  0  1  0  0  0  0  0999 V2000
    2.5604   -9.4426    0.9297 C   0  0  0  0  0  0  0  0  0  0  0  0
    2.9081   -8.2619    1.4422 C   0  0  0  0  0  0  0  0  0  0  0  0
    2.1817   -7.4484    2.5258 C   0  0  1  0  0  0  0  0  0  0  0  0
    0.8120   -8.1330    2.8640 C   0  0  0  0  0  0  0  0  0  0  0  0
    3.0056   -7.5156    3.8147 C   0  0  0  0  0  0  0  0  0  0  0  0
    4.3406   -6.7760    3.7012 C   0  0  0  0  0  0  0  0  0  0  0  0
    4.2036   -5.2379    3.4300 C   0  0  1  0  0  0  0  0  0  0  0  0
    3.6578   -4.7009    4.7964 C   0  0  0  0  0  0  0  0  0  0  0  0
    5.5404   -4.4439    3.2006 C   0  0  1  0  0  0  0  0  0  0  0  0
    6.5571   -5.4380    2.5414 C   0  0  0  0  0  0  0  0  0  0  0  0
    6.0613   -5.8751    1.1203 C   0  0  0  0  0  0  0  0  0  0  0  0
    5.2338   -4.7801    0.4060 C   0  0  2  0  0  0  0  0  0  0  0  0
    5.8522   -3.5200    0.8741 C   0  0  0  0  0  0  0  0  0  0  0  0
    5.2259   -3.1841    2.2754 C   0  0  2  0  0  0  0  0  0  0  0  0
    5.6052   -1.7047    2.2535 C   0  0  0  0  0  0  0  0  0  0  0  0
    4.6163   -0.9634    1.2290 C   0  0  0  0  0  0  0  0  0  0  0  0
    3.8415   -1.7052    0.0117 C   0  0  1  0  0  0  0  0  0  0  0  0
    4.4971   -1.3243   -1.3552 C   0  0  0  0  0  0  0  0  0  0  0  0
    3.1224   -3.1999    0.0324 C   0  0  1  0  0  0  0  0  0  0  0  0
    2.6278   -3.4744   -1.3976 C   0  0  0  0  0  0  0  0  0  0  0  0
    3.7129   -4.6000    0.6970 C   0  0  1  0  0  0  0  0  0  0  0  0
    3.0969   -5.7165    0.0966 O   0  0  0  0  0  0  0  0  0  0  0  0
    1.7455   -5.8470    0.7270 O   0  0  0  0  0  0  0  0  0  0  0  0
    2.0022   -5.9300    2.1078 C   0  0  1  0  0  0  0  0  0  0  0  0
    0.9419   -5.4375    2.8927 O   0  0  0  0  0  0  0  0  0  0  0  0
    3.2363   -4.9560    2.1976 C   0  0  1  0  0  0  0  0  0  0  0  0
    2.7521   -3.7155    2.5925 O   0  0  0  0  0  0  0  0  0  0  0  0
    3.8980   -2.7366    2.7022 O   0  0  0  0  0  0  0  0  0  0  0  0
    1.6909   -9.9771    1.2931 H   0  0  0  0  0  0  0  0  0  0  0  0
    3.1404   -9.8774    0.1245 H   0  0  0  0  0  0  0  0  0  0  0  0
    3.7927   -7.8317    1.0235 H   0  0  0  0  0  0  0  0  0  0  0  0
    0.2738   -7.6605    3.6885 H   0  0  0  0  0  0  0  0  0  0  0  0
    0.9463   -9.1617    3.1923 H   0  0  0  0  0  0  0  0  0  0  0  0
    0.1351   -8.1444    2.0141 H   0  0  0  0  0  0  0  0  0  0  0  0
    2.4249   -7.1216    4.6487 H   0  0  0  0  0  0  0  0  0  0  0  0
    3.2137   -8.5602    4.0473 H   0  0  0  0  0  0  0  0  0  0  0  0
    4.8981   -6.9383    4.6197 H   0  0  0  0  0  0  0  0  0  0  0  0
    4.9068   -7.3339    2.9696 H   0  0  0  0  0  0  0  0  0  0  0  0
    3.7423   -3.6163    4.9000 H   0  0  0  0  0  0  0  0  0  0  0  0
    4.2446   -5.1164    5.6192 H   0  0  0  0  0  0  0  0  0  0  0  0
    2.6113   -4.9635    4.9748 H   0  0  0  0  0  0  0  0  0  0  0  0
    5.9400   -4.1085    4.1563 H   0  0  0  0  0  0  0  0  0  0  0  0
    7.5308   -4.9499    2.4441 H   0  0  0  0  0  0  0  0  0  0  0  0
    6.7866   -6.2951    3.1741 H   0  0  0  0  0  0  0  0  0  0  0  0
    6.9505   -6.0794    0.5198 H   0  0  0  0  0  0  0  0  0  0  0  0
    5.5246   -6.8118    1.1138 H   0  0  0  0  0  0  0  0  0  0  0  0
    5.3565   -4.8790   -0.6686 H   0  0  0  0  0  0  0  0  0  0  0  0
    6.9422   -3.6170    0.9443 H   0  0  0  0  0  0  0  0  0  0  0  0
    5.8952   -2.7937    0.0875 H   0  0  0  0  0  0  0  0  0  0  0  0
    5.5186   -1.2602    3.2506 H   0  0  0  0  0  0  0  0  0  0  0  0
    6.6450   -1.5550    1.9419 H   0  0  0  0  0  0  0  0  0  0  0  0
    3.8452   -0.4905    1.8460 H   0  0  0  0  0  0  0  0  0  0  0  0
    5.1825   -0.1188    0.8280 H   0  0  0  0  0  0  0  0  0  0  0  0
    2.9670   -1.0547   -0.0318 H   0  0  0  0  0  0  0  0  0  0  0  0
    5.1769   -2.0769   -1.7527 H   0  0  0  0  0  0  0  0  0  0  0  0
    5.0404   -0.3800   -1.2972 H   0  0  0  0  0  0  0  0  0  0  0  0
    3.7375   -1.1494   -2.1151 H   0  0  0  0  0  0  0  0  0  0  0  0
    2.1864   -2.9914    0.5534 H   0  0  0  0  0  0  0  0  0  0  0  0
    3.4549   -3.7699   -2.0500 H   0  0  0  0  0  0  0  0  0  0  0  0
    2.1415   -2.6008   -1.8304 H   0  0  0  0  0  0  0  0  0  0  0  0
    1.8831   -4.2725   -1.4088 H   0  0  0  0  0  0  0  0  0  0  0  0
    1.2619   -5.3953    3.7843 H   0  0  0  0  0  0  0  0  0  0  0  0
  1  2  2  0
  1 29  1  0
  1 30  1  0
  2  3  1  0
  2 31  1  0
  3 24  1  0
  3  4  1  1
  3  5  1  0
  4 32  1  0
  4 33  1  0
  4 34  1  0
  5  6  1  0
  5 35  1  0
  5 36  1  0
  6  7  1  0
  6 37  1  0
  6 38  1  0
  7 26  1  0
  7  8  1  1
  7  9  1  0
  8 39  1  0
  8 40  1  0
  8 41  1  0
  9 14  1  0
  9 10  1  0
  9 42  1  1
 10 11  1  0
 10 43  1  0
 10 44  1  0
 11 12  1  0
 11 45  1  0
 11 46  1  0
 12 21  1  0
 12 13  1  0
 12 47  1  6
 13 14  1  0
 13 48  1  0
 13 49  1  0
 14 28  1  0
 14 15  1  1
 15 16  1  0
 15 50  1  0
 15 51  1  0
 16 17  1  0
 16 52  1  0
 16 53  1  0
 17 18  1  0
 17 19  1  0
 17 54  1  6
 18 55  1  0
 18 56  1  0
 18 57  1  0
 19 20  1  0
 19 21  1  0
 19 58  1  1
 20 59  1  0
 20 60  1  0
 20 61  1  0
 21 26  1  0
 21 22  1  6
 22 23  1  0
 23 24  1  0
 24 25  1  1
 24 26  1  0
 25 62  1  0
 26 27  1  1
 27 28  1  0
M  END
>  <i_m_ct_stereo_status>  (374) 
1

>  <s_m_source_file>  (374) 
/var/tmp/pbs.5076255.sched01/tmp6w_bron9/120d4r_aq7a.sdf

>  <i_m_source_file_index>  (374) 
22

>  <i_lp_mmshare_version>  (374) 
48012

>  <i_f3d_flags>  (374) 
0

>  <s_epik_input>  (374) 
W0NIMl09W0NIXVtDQEBdKFtDSDNdKShbQ0gyXVtDSDJdMSlbQ0BdMihbT0hdKU9PW0NAXShbQ0BASF0oW0NIMl0zKVtDSDJdW0NIMl00KShbQ0BdMihPTzUpW0NAXTEoW0NIM10pW0NAQEhdNFtDQEBdMzU2KVtDQEhdKFtDSDNdKVtDQEhdKFtDSDNdKVtDSDJdW0NIMl02

>  <s_epik_cmdline>  (374) 
J2VwaWtfcHl0aG9uJywgJy1waHQnLCAnMi4wJywgJy1waCcsICc3LjAnLCAnLXRuJywgJzgnLCAnLW1hJywgJzIwMCcsICctaW1hZScsICc8aW5maWxlLm1hZT4nLCAnLW9tYWUnLCAnPG91dGZpbGUubWFlPic=

>  <r_lp_tautomer_probability>  (374) 
1

>  <r_epik_Ionization_Penalty>  (374) 
9.47595e-05

>  <r_epik_Ionization_Penalty_Charging>  (374) 
0

>  <r_epik_Ionization_Penalty_Neutral>  (374) 
9.47595e-05

>  <r_epik_State_Penalty>  (374) 
-0

>  <r_epik_Charging_Adjusted_Penalty>  (374) 
0

>  <i_epik_Tot_Q>  (374) 
0

>  <i_epik_Tot_abs_Q>  (374) 
0

>  <s_lp_Force_Field>  (374) 
OPLS3e

>  <r_lp_Energy>  (374) 
207.029

>  <b_lp_Chiralities_Consistent>  (374) 
1

>  <s_lp_Variant>  (374) 
96:0-1

>  <s_i_glide_gridfile>  (374) 
pfpi4k_grid

>  <i_i_glide_lignum>  (374) 
22

>  <i_i_glide_rotatable_bonds>  (374) 
2

>  <r_i_docking_score>  (374) 
-2.63579

>  <r_i_glide_ligand_efficiency>  (374) 
-0.0941354

>  <r_i_glide_ligand_efficiency_sa>  (374) 
-0.28585

>  <r_i_glide_ligand_efficiency_ln>  (374) 
-0.608418

>  <r_i_glide_gscore>  (374) 
-2.63579

>  <r_i_glide_lipo>  (374) 
-0.566025

>  <r_i_glide_hbond>  (374) 
-0.0895008

>  <r_i_glide_metal>  (374) 
-0

>  <r_i_glide_rewards>  (374) 
-0.746502

>  <r_i_glide_evdw>  (374) 
-24.7234

>  <r_i_glide_ecoul>  (374) 
-0.673887

>  <r_i_glide_erotb>  (374) 
0.127903

>  <r_i_glide_esite>  (374) 
-0.0244107

>  <r_i_glide_emodel>  (374) 
-28.4354

>  <r_i_glide_energy>  (374) 
-25.3973

>  <r_i_glide_einternal>  (374) 
2.54524

>  <r_i_glide_intrahb_reward>  (374) 
-0

>  <i_i_glide_confnum>  (374) 
2

>  <i_i_glide_posenum>  (374) 
1

>  <r_i_glide_eff_state_penalty>  (374) 
0

>  <ligand_id>  (374) 
96

>  <original_smiles>  (374) 
C=CC1(C)CCC2(C)C3CCC4CC35CCC(C)C(C)C43OOC1(O)C23OO5

>  <smiles>  (374) 
[H]OC12OOC34C5([H])C([H])([H])C([H])([H])C6([H])C(OOC13C6(C([H])([H])[H])C([H])([H])C([H])([H])C2(C([H])=C([H])[H])C([H])([H])[H])(C([H])([H])C([H])([H])C([H])(C([H])([H])[H])C4([H])C([H])([H])[H])C5([H])[H]

$$$$
96:0:2
     RDKit          3D

 62 67  0  0  1  0  0  0  0  0999 V2000
    3.7123   -9.3853    1.6920 C   0  0  0  0  0  0  0  0  0  0  0  0
    2.5855   -8.6448    1.7348 C   0  0  0  0  0  0  0  0  0  0  0  0
    1.9595   -7.8369    2.8755 C   0  0  1  0  0  0  0  0  0  0  0  0
    0.6050   -8.5643    3.1338 C   0  0  0  0  0  0  0  0  0  0  0  0
    2.7608   -7.9107    4.1772 C   0  0  0  0  0  0  0  0  0  0  0  0
    4.0904   -7.1291    4.1344 C   0  0  0  0  0  0  0  0  0  0  0  0
    3.9339   -5.6065    3.8598 C   0  0  1  0  0  0  0  0  0  0  0  0
    3.3779   -5.1015    5.2344 C   0  0  0  0  0  0  0  0  0  0  0  0
    5.2837   -4.8025    3.6345 C   0  0  1  0  0  0  0  0  0  0  0  0
    6.2933   -5.7774    2.9344 C   0  0  0  0  0  0  0  0  0  0  0  0
    5.7728   -6.2038    1.5116 C   0  0  0  0  0  0  0  0  0  0  0  0
    4.9557   -5.0950    0.8280 C   0  0  2  0  0  0  0  0  0  0  0  0
    5.5618   -3.8465    1.3173 C   0  0  0  0  0  0  0  0  0  0  0  0
    4.9494   -3.5396    2.7369 C   0  0  2  0  0  0  0  0  0  0  0  0
    5.3123   -2.0738    2.7499 C   0  0  0  0  0  0  0  0  0  0  0  0
    4.3145   -1.3050    1.7494 C   0  0  0  0  0  0  0  0  0  0  0  0
    3.5380   -2.0217    0.5200 C   0  0  1  0  0  0  0  0  0  0  0  0
    4.1868   -1.5974   -0.8403 C   0  0  0  0  0  0  0  0  0  0  0  0
    2.8382   -3.5250    0.4981 C   0  0  1  0  0  0  0  0  0  0  0  0
    2.3432   -3.7783   -0.9373 C   0  0  0  0  0  0  0  0  0  0  0  0
    3.4373   -4.9357    1.1305 C   0  0  1  0  0  0  0  0  0  0  0  0
    2.8365   -6.0323    0.4780 O   0  0  0  0  0  0  0  0  0  0  0  0
    1.4893   -6.2122    1.1013 O   0  0  0  0  0  0  0  0  0  0  0  0
    1.7459   -6.3111    2.4882 C   0  0  1  0  0  0  0  0  0  0  0  0
    0.6687   -5.8366    3.2851 O   0  0  0  0  0  0  0  0  0  0  0  0
    2.9633   -5.3281    2.6235 C   0  0  1  0  0  0  0  0  0  0  0  0
    2.4734   -4.0745    3.0354 O   0  0  0  0  0  0  0  0  0  0  0  0
    3.6050   -3.1165    3.1659 O   0  0  0  0  0  0  0  0  0  0  0  0
    4.3701   -9.5337    2.5412 H   0  0  0  0  0  0  0  0  0  0  0  0
    3.9722   -9.8611    0.7585 H   0  0  0  0  0  0  0  0  0  0  0  0
    1.9837   -8.6184    0.8488 H   0  0  0  0  0  0  0  0  0  0  0  0
    0.0630   -8.1885    4.0036 H   0  0  0  0  0  0  0  0  0  0  0  0
    0.7801   -9.6163    3.3226 H   0  0  0  0  0  0  0  0  0  0  0  0
   -0.0684   -8.5062    2.2730 H   0  0  0  0  0  0  0  0  0  0  0  0
    2.1453   -7.5691    5.0084 H   0  0  0  0  0  0  0  0  0  0  0  0
    2.9814   -8.9519    4.4003 H   0  0  0  0  0  0  0  0  0  0  0  0
    4.6222   -7.2981    5.0641 H   0  0  0  0  0  0  0  0  0  0  0  0
    4.6765   -7.6407    3.3773 H   0  0  0  0  0  0  0  0  0  0  0  0
    3.4480   -4.0258    5.3798 H   0  0  0  0  0  0  0  0  0  0  0  0
    3.9536   -5.5427    6.0425 H   0  0  0  0  0  0  0  0  0  0  0  0
    2.3307   -5.3986    5.3989 H   0  0  0  0  0  0  0  0  0  0  0  0
    5.7045   -4.4827    4.5871 H   0  0  0  0  0  0  0  0  0  0  0  0
    7.2570   -5.2827    2.8453 H   0  0  0  0  0  0  0  0  0  0  0  0
    6.5506   -6.6381    3.5485 H   0  0  0  0  0  0  0  0  0  0  0  0
    6.6565   -6.4062    0.8999 H   0  0  0  0  0  0  0  0  0  0  0  0
    5.2067   -7.1245    1.4821 H   0  0  0  0  0  0  0  0  0  0  0  0
    5.0755   -5.1655   -0.2549 H   0  0  0  0  0  0  0  0  0  0  0  0
    6.6550   -3.9370    1.3806 H   0  0  0  0  0  0  0  0  0  0  0  0
    5.5919   -3.0971    0.5563 H   0  0  0  0  0  0  0  0  0  0  0  0
    5.2265   -1.6556    3.7527 H   0  0  0  0  0  0  0  0  0  0  0  0
    6.3480   -1.9081    2.4376 H   0  0  0  0  0  0  0  0  0  0  0  0
    3.5458   -0.8527    2.3799 H   0  0  0  0  0  0  0  0  0  0  0  0
    4.8684   -0.4570    1.3756 H   0  0  0  0  0  0  0  0  0  0  0  0
    2.6491   -1.3862    0.4921 H   0  0  0  0  0  0  0  0  0  0  0  0
    4.8709   -2.3311   -1.2592 H   0  0  0  0  0  0  0  0  0  0  0  0
    4.7345   -0.6522   -0.7577 H   0  0  0  0  0  0  0  0  0  0  0  0
    3.4292   -1.3999   -1.5969 H   0  0  0  0  0  0  0  0  0  0  0  0
    1.9013   -3.3352    1.0242 H   0  0  0  0  0  0  0  0  0  0  0  0
    3.1751   -4.0131   -1.6020 H   0  0  0  0  0  0  0  0  0  0  0  0
    1.8326   -2.9038   -1.3488 H   0  0  0  0  0  0  0  0  0  0  0  0
    1.6160   -4.5907   -0.9919 H   0  0  0  0  0  0  0  0  0  0  0  0
    0.9065   -5.9870    4.1790 H   0  0  0  0  0  0  0  0  0  0  0  0
  1  2  2  0
  1 29  1  0
  1 30  1  0
  2  3  1  0
  2 31  1  0
  3 24  1  0
  3  4  1  1
  3  5  1  0
  4 32  1  0
  4 33  1  0
  4 34  1  0
  5  6  1  0
  5 35  1  0
  5 36  1  0
  6  7  1  0
  6 37  1  0
  6 38  1  0
  7 26  1  0
  7  8  1  1
  7  9  1  0
  8 39  1  0
  8 40  1  0
  8 41  1  0
  9 14  1  0
  9 10  1  0
  9 42  1  1
 10 11  1  0
 10 43  1  0
 10 44  1  0
 11 12  1  0
 11 45  1  0
 11 46  1  0
 12 21  1  0
 12 13  1  0
 12 47  1  6
 13 14  1  0
 13 48  1  0
 13 49  1  0
 14 28  1  0
 14 15  1  1
 15 16  1  0
 15 50  1  0
 15 51  1  0
 16 17  1  0
 16 52  1  0
 16 53  1  0
 17 18  1  0
 17 19  1  0
 17 54  1  6
 18 55  1  0
 18 56  1  0
 18 57  1  0
 19 20  1  0
 19 21  1  0
 19 58  1  1
 20 59  1  0
 20 60  1  0
 20 61  1  0
 21 26  1  0
 21 22  1  6
 22 23  1  0
 23 24  1  0
 24 25  1  1
 24 26  1  0
 25 62  1  0
 26 27  1  1
 27 28  1  0
M  END
>  <i_m_ct_stereo_status>  (375) 
1

>  <s_m_source_file>  (375) 
/var/tmp/pbs.5076255.sched01/tmp6w_bron9/120d4r_aq7a.sdf

>  <i_m_source_file_index>  (375) 
22

>  <i_lp_mmshare_version>  (375) 
48012

>  <i_f3d_flags>  (375) 
0

>  <s_epik_input>  (375) 
W0NIMl09W0NIXVtDQEBdKFtDSDNdKShbQ0gyXVtDSDJdMSlbQ0BdMihbT0hdKU9PW0NAXShbQ0BASF0oW0NIMl0zKVtDSDJdW0NIMl00KShbQ0BdMihPTzUpW0NAXTEoW0NIM10pW0NAQEhdNFtDQEBdMzU2KVtDQEhdKFtDSDNdKVtDQEhdKFtDSDNdKVtDSDJdW0NIMl02

>  <s_epik_cmdline>  (375) 
J2VwaWtfcHl0aG9uJywgJy1waHQnLCAnMi4wJywgJy1waCcsICc3LjAnLCAnLXRuJywgJzgnLCAnLW1hJywgJzIwMCcsICctaW1hZScsICc8aW5maWxlLm1hZT4nLCAnLW9tYWUnLCAnPG91dGZpbGUubWFlPic=

>  <r_lp_tautomer_probability>  (375) 
1

>  <r_epik_Ionization_Penalty>  (375) 
9.47595e-05

>  <r_epik_Ionization_Penalty_Charging>  (375) 
0

>  <r_epik_Ionization_Penalty_Neutral>  (375) 
9.47595e-05

>  <r_epik_State_Penalty>  (375) 
-0

>  <r_epik_Charging_Adjusted_Penalty>  (375) 
0

>  <i_epik_Tot_Q>  (375) 
0

>  <i_epik_Tot_abs_Q>  (375) 
0

>  <s_lp_Force_Field>  (375) 
OPLS3e

>  <r_lp_Energy>  (375) 
207.029

>  <b_lp_Chiralities_Consistent>  (375) 
1

>  <s_lp_Variant>  (375) 
96:0-1

>  <s_i_glide_gridfile>  (375) 
pfpi4k_grid

>  <i_i_glide_lignum>  (375) 
22

>  <i_i_glide_rotatable_bonds>  (375) 
2

>  <r_i_docking_score>  (375) 
-2.42634

>  <r_i_glide_ligand_efficiency>  (375) 
-0.0866551

>  <r_i_glide_ligand_efficiency_sa>  (375) 
-0.263136

>  <r_i_glide_ligand_efficiency_ln>  (375) 
-0.560071

>  <r_i_glide_gscore>  (375) 
-2.42634

>  <r_i_glide_lipo>  (375) 
-0.334793

>  <r_i_glide_hbond>  (375) 
-0.0759136

>  <r_i_glide_metal>  (375) 
-0

>  <r_i_glide_rewards>  (375) 
-0.746502

>  <r_i_glide_evdw>  (375) 
-23.4397

>  <r_i_glide_ecoul>  (375) 
-1.34271

>  <r_i_glide_erotb>  (375) 
0.127903

>  <r_i_glide_esite>  (375) 
-0.0236465

>  <r_i_glide_emodel>  (375) 
-27.5954

>  <r_i_glide_energy>  (375) 
-24.7824

>  <r_i_glide_einternal>  (375) 
2.00723

>  <r_i_glide_intrahb_reward>  (375) 
-0

>  <i_i_glide_confnum>  (375) 
3

>  <i_i_glide_posenum>  (375) 
5

>  <r_i_glide_eff_state_penalty>  (375) 
0

>  <ligand_id>  (375) 
96

>  <original_smiles>  (375) 
C=CC1(C)CCC2(C)C3CCC4CC35CCC(C)C(C)C43OOC1(O)C23OO5

>  <smiles>  (375) 
[H]OC12OOC34C5([H])C([H])([H])C([H])([H])C6([H])C(OOC13C6(C([H])([H])[H])C([H])([H])C([H])([H])C2(C([H])=C([H])[H])C([H])([H])[H])(C([H])([H])C([H])([H])C([H])(C([H])([H])[H])C4([H])C([H])([H])[H])C5([H])[H]

$$$$
97:0:0
     RDKit          3D

 57 62  0  0  1  0  0  0  0  0999 V2000
    6.5788   -3.8088   -0.2962 C   0  0  0  0  0  0  0  0  0  0  0  0
    6.8759   -4.7210    0.8919 C   0  0  2  0  0  0  0  0  0  0  0  0
    7.7589   -5.7221    0.5298 O   0  0  0  0  0  0  0  0  0  0  0  0
    7.5720   -6.7050    1.5395 C   0  0  1  0  0  0  0  0  0  0  0  0
    8.4852   -6.3998    2.7539 C   0  0  0  0  0  0  0  0  0  0  0  0
    6.0624   -6.6115    1.8027 C   0  0  1  0  0  0  0  0  0  0  0  0
    5.6353   -6.8597    3.2721 C   0  0  0  0  0  0  0  0  0  0  0  0
    4.1851   -7.0674    3.5131 N   0  0  2  0  0  0  0  0  0  0  0  0
    3.9437   -7.9678    4.6847 C   0  0  0  0  0  0  0  0  0  0  0  0
    2.4742   -8.4005    4.7384 C   0  0  0  0  0  0  0  0  0  0  0  0
    1.7416   -8.6542    3.3094 C   0  0  1  0  0  0  0  0  0  0  0  0
    0.4072   -9.2720    3.5486 C   0  0  1  0  0  0  0  0  0  0  0  0
    0.7737  -10.6977    4.1257 C   0  0  0  0  0  0  0  0  0  0  0  0
    2.3174  -11.1792    3.9637 C   0  0  0  0  0  0  0  0  0  0  0  0
    3.2068  -10.5675    2.8208 C   0  0  1  0  0  0  0  0  0  0  0  0
    3.7121   -9.1232    2.1708 C   0  0  1  0  0  0  0  0  0  0  0  0
    3.4077   -7.5859    2.3572 C   0  0  1  0  0  0  0  0  0  0  0  0
    1.8631   -7.3846    2.5376 C   0  0  1  0  0  0  0  0  0  0  0  0
    1.1955   -7.3739    1.2791 O   0  0  0  0  0  0  0  0  0  0  0  0
    1.1407   -6.2612    3.3295 C   0  0  0  0  0  0  0  0  0  0  0  0
   -0.2759   -6.7553    3.7867 C   0  0  0  0  0  0  0  0  0  0  0  0
   -0.3946   -8.2206    4.3673 C   0  0  1  0  0  0  0  0  0  0  0  0
   -1.7456   -8.5923    4.3230 O   0  0  0  0  0  0  0  0  0  0  0  0
    2.3829   -9.5727    2.2922 C   0  0  2  0  0  0  0  0  0  0  0  0
    5.7083   -5.3121    1.3626 O   0  0  0  0  0  0  0  0  0  0  0  0
    6.0874   -4.3417   -1.1085 H   0  0  0  0  0  0  0  0  0  0  0  0
    7.5132   -3.3838   -0.6561 H   0  0  0  0  0  0  0  0  0  0  0  0
    5.9307   -2.9975    0.0304 H   0  0  0  0  0  0  0  0  0  0  0  0
    7.3258   -4.1401    1.6982 H   0  0  0  0  0  0  0  0  0  0  0  0
    7.8295   -7.6938    1.1400 H   0  0  0  0  0  0  0  0  0  0  0  0
    8.4138   -7.1824    3.5042 H   0  0  0  0  0  0  0  0  0  0  0  0
    8.2330   -5.4615    3.2385 H   0  0  0  0  0  0  0  0  0  0  0  0
    9.5331   -6.3378    2.4680 H   0  0  0  0  0  0  0  0  0  0  0  0
    5.6009   -7.3202    1.1172 H   0  0  0  0  0  0  0  0  0  0  0  0
    6.1794   -7.7207    3.6466 H   0  0  0  0  0  0  0  0  0  0  0  0
    5.9199   -6.0180    3.9026 H   0  0  0  0  0  0  0  0  0  0  0  0
    4.5682   -8.8594    4.6290 H   0  0  0  0  0  0  0  0  0  0  0  0
    4.2311   -7.4485    5.5950 H   0  0  0  0  0  0  0  0  0  0  0  0
    2.3890   -9.2101    5.4702 H   0  0  0  0  0  0  0  0  0  0  0  0
    1.9707   -7.6175    5.3038 H   0  0  0  0  0  0  0  0  0  0  0  0
   -0.1038   -9.4058    2.5871 H   0  0  0  0  0  0  0  0  0  0  0  0
    0.4885  -10.7559    5.1782 H   0  0  0  0  0  0  0  0  0  0  0  0
    0.1528  -11.4307    3.6082 H   0  0  0  0  0  0  0  0  0  0  0  0
    2.8789  -11.1227    4.9040 H   0  0  0  0  0  0  0  0  0  0  0  0
    2.2870  -12.2549    3.7819 H   0  0  0  0  0  0  0  0  0  0  0  0
    3.5137  -11.3700    2.1588 H   0  0  0  0  0  0  0  0  0  0  0  0
    4.2659   -9.3017    1.2666 H   0  0  0  0  0  0  0  0  0  0  0  0
    3.6643   -7.0462    1.4442 H   0  0  0  0  0  0  0  0  0  0  0  0
    1.1600   -8.2782    0.9674 H   0  0  0  0  0  0  0  0  0  0  0  0
    1.7046   -5.8987    4.1859 H   0  0  0  0  0  0  0  0  0  0  0  0
    1.0299   -5.3900    2.6960 H   0  0  0  0  0  0  0  0  0  0  0  0
   -0.6999   -6.0542    4.5137 H   0  0  0  0  0  0  0  0  0  0  0  0
   -0.9311   -6.7110    2.9152 H   0  0  0  0  0  0  0  0  0  0  0  0
   -0.0689   -8.2413    5.4082 H   0  0  0  0  0  0  0  0  0  0  0  0
   -1.8071   -9.5429    4.5571 H   0  0  0  0  0  0  0  0  0  0  0  0
    1.8413   -9.8127    1.3769 H   0  0  0  0  0  0  0  0  0  0  0  0
    3.7763   -6.1669    3.7300 H   0  0  0  0  0  0  0  0  0  0  0  0
  1  2  1  0
  1 26  1  0
  1 27  1  0
  1 28  1  0
  2 25  1  0
  2  3  1  0
  2 29  1  1
  3  4  1  0
  4  5  1  0
  4  6  1  0
  4 30  1  6
  5 31  1  0
  5 32  1  0
  5 33  1  0
  6  7  1  0
  6 25  1  0
  6 34  1  6
  7  8  1  0
  7 35  1  0
  7 36  1  0
  8 17  1  0
  8  9  1  0
  8 57  1  1
  9 10  1  0
  9 37  1  0
  9 38  1  0
 11 10  1  1
 10 39  1  0
 10 40  1  0
 11 18  1  0
 11 24  1  0
 11 12  1  0
 12 22  1  0
 12 13  1  0
 12 41  1  6
 13 14  1  0
 13 42  1  0
 13 43  1  0
 14 15  1  0
 14 44  1  0
 14 45  1  0
 15 24  1  0
 15 16  1  0
 15 46  1  6
 16 17  1  0
 16 24  1  0
 16 47  1  6
 17 18  1  0
 17 48  1  6
 18 19  1  6
 18 20  1  0
 19 49  1  0
 20 21  1  0
 20 50  1  0
 20 51  1  0
 21 22  1  0
 21 52  1  0
 21 53  1  0
 22 23  1  0
 22 54  1  1
 23 55  1  0
 24 56  1  6
M  CHG  1   8   1
M  END
>  <i_m_ct_stereo_status>  (376) 
1

>  <s_m_source_file>  (376) 
/var/tmp/pbs.5076255.sched01/tmp6w_bron9/120d4r_aq7a.sdf

>  <i_m_source_file_index>  (376) 
23

>  <i_lp_mmshare_version>  (376) 
48012

>  <i_f3d_flags>  (376) 
0

>  <s_epik_input>  (376) 
W0NIM11bQ0BASF0xT1tDQEBIXShbQ0gzXSlbQ0BIXShPMSlbQ0gyXU4oW0NIMl1bQ0gyXTIpW0NAQEhdKFtDQEhdKFtDQEhdMzQpW0NASF00W0NIMl1bQ0gyXVtDQEBIXTVbQ0BAXTIzNilbQ0BdNihbT0hdKVtDSDJdW0NIMl1bQ0BIXTVbT0hd

>  <s_epik_cmdline>  (376) 
J2VwaWtfcHl0aG9uJywgJy1waHQnLCAnMi4wJywgJy1waCcsICc3LjAnLCAnLXRuJywgJzgnLCAnLW1hJywgJzIwMCcsICctaW1hZScsICc8aW5maWxlLm1hZT4nLCAnLW9tYWUnLCAnPG91dGZpbGUubWFlPic=

>  <r_epik_Ionization_Penalty>  (376) 
0.0173199

>  <r_epik_Ionization_Penalty_Charging>  (376) 
0.0173195

>  <r_epik_Ionization_Penalty_Neutral>  (376) 
3.60408e-07

>  <r_epik_State_Penalty>  (376) 
0.0137207

>  <r_epik_Charging_Adjusted_Penalty>  (376) 
0.0310402

>  <i_epik_Tot_Q>  (376) 
1

>  <i_epik_Tot_abs_Q>  (376) 
1

>  <s_epik_Chemistry_Notes>  (376) 
This compound contains an acetal/aminal-like group ( X-CH(R)-Y where X, Y are N, S, or O) that may be acid/base labile, releasing an aldehyde.

>  <s_lp_Force_Field>  (376) 
OPLS3e

>  <r_lp_Energy>  (376) 
134.582

>  <b_lp_Chiralities_Consistent>  (376) 
1

>  <s_lp_Variant>  (376) 
97:0-1

>  <s_i_glide_gridfile>  (376) 
pfpi4k_grid

>  <i_i_glide_lignum>  (376) 
23

>  <i_i_glide_rotatable_bonds>  (376) 
4

>  <r_i_docking_score>  (376) 
-3.62436

>  <r_i_glide_ligand_efficiency>  (376) 
-0.144974

>  <r_i_glide_ligand_efficiency_sa>  (376) 
-0.423908

>  <r_i_glide_ligand_efficiency_ln>  (376) 
-0.859082

>  <r_i_glide_gscore>  (376) 
-3.62436

>  <r_i_glide_lipo>  (376) 
-0.173057

>  <r_i_glide_hbond>  (376) 
-0.258722

>  <r_i_glide_metal>  (376) 
-0

>  <r_i_glide_rewards>  (376) 
-1.17507

>  <r_i_glide_evdw>  (376) 
-18.085

>  <r_i_glide_ecoul>  (376) 
-9.49089

>  <r_i_glide_erotb>  (376) 
0.310366

>  <r_i_glide_esite>  (376) 
0

>  <r_i_glide_emodel>  (376) 
-29.3537

>  <r_i_glide_energy>  (376) 
-27.5758

>  <r_i_glide_einternal>  (376) 
10.2022

>  <r_i_glide_intrahb_reward>  (376) 
-0

>  <i_i_glide_confnum>  (376) 
2

>  <i_i_glide_posenum>  (376) 
21

>  <r_i_glide_eff_state_penalty>  (376) 
0

>  <ligand_id>  (376) 
97

>  <original_smiles>  (376) 
CC1OC(C)C(CN2CCC34C5CCC6C(C2C3(O)CCC5O)C64)O1

>  <smiles>  (376) 
[H]OC1([H])C([H])([H])C([H])([H])C2(O[H])C34C([H])([H])C([H])([H])[N+]([H])(C([H])([H])C5([H])OC([H])(C([H])([H])[H])OC5([H])C([H])([H])[H])C2([H])C2([H])C([H])(C([H])([H])C([H])([H])C13[H])C24[H]

$$$$
97:0:1
     RDKit          3D

 57 62  0  0  1  0  0  0  0  0999 V2000
   -1.3055   -7.9377    2.7610 C   0  0  0  0  0  0  0  0  0  0  0  0
   -0.2493   -7.4038    3.7226 C   0  0  2  0  0  0  0  0  0  0  0  0
   -0.8496   -6.7134    4.7588 O   0  0  0  0  0  0  0  0  0  0  0  0
    0.2035   -5.9290    5.2930 C   0  0  1  0  0  0  0  0  0  0  0  0
    1.0227   -6.7333    6.3263 C   0  0  0  0  0  0  0  0  0  0  0  0
    0.9659   -5.5322    4.0154 C   0  0  1  0  0  0  0  0  0  0  0  0
    2.5135   -5.4186    4.1705 C   0  0  0  0  0  0  0  0  0  0  0  0
    3.2441   -4.7644    3.0509 N   0  0  2  0  0  0  0  0  0  0  0  0
    4.3485   -3.9062    3.5345 C   0  0  0  0  0  0  0  0  0  0  0  0
    4.9080   -3.0417    2.3850 C   0  0  0  0  0  0  0  0  0  0  0  0
    3.8212   -2.5016    1.2897 C   0  0  1  0  0  0  0  0  0  0  0  0
    4.4797   -1.5311    0.3767 C   0  0  1  0  0  0  0  0  0  0  0  0
    4.7693   -0.3066    1.3347 C   0  0  0  0  0  0  0  0  0  0  0  0
    4.0267   -0.2956    2.7788 C   0  0  0  0  0  0  0  0  0  0  0  0
    2.6767   -1.0919    2.9704 C   0  0  1  0  0  0  0  0  0  0  0  0
    2.0101   -2.6061    2.7486 C   0  0  1  0  0  0  0  0  0  0  0  0
    2.4105   -3.9996    2.0892 C   0  0  1  0  0  0  0  0  0  0  0  0
    3.1597   -3.7112    0.7270 C   0  0  1  0  0  0  0  0  0  0  0  0
    2.2293   -3.4443   -0.3326 O   0  0  0  0  0  0  0  0  0  0  0  0
    4.2330   -4.6010    0.0494 C   0  0  0  0  0  0  0  0  0  0  0  0
    5.1278   -3.7204   -0.8983 C   0  0  0  0  0  0  0  0  0  0  0  0
    5.6019   -2.3155   -0.3527 C   0  0  1  0  0  0  0  0  0  0  0  0
    6.0670   -1.5417   -1.4361 O   0  0  0  0  0  0  0  0  0  0  0  0
    2.5736   -1.7870    1.7549 C   0  0  2  0  0  0  0  0  0  0  0  0
    0.6012   -6.5287    3.0635 O   0  0  0  0  0  0  0  0  0  0  0  0
   -1.8834   -7.1249    2.3302 H   0  0  0  0  0  0  0  0  0  0  0  0
   -1.9725   -8.6101    3.3003 H   0  0  0  0  0  0  0  0  0  0  0  0
   -0.8163   -8.4990    1.9656 H   0  0  0  0  0  0  0  0  0  0  0  0
    0.3338   -8.2289    4.1333 H   0  0  0  0  0  0  0  0  0  0  0  0
   -0.1992   -5.0368    5.7712 H   0  0  0  0  0  0  0  0  0  0  0  0
    1.7944   -6.1149    6.7817 H   0  0  0  0  0  0  0  0  0  0  0  0
    1.5218   -7.5881    5.8737 H   0  0  0  0  0  0  0  0  0  0  0  0
    0.3888   -7.1052    7.1304 H   0  0  0  0  0  0  0  0  0  0  0  0
    0.5263   -4.5922    3.6952 H   0  0  0  0  0  0  0  0  0  0  0  0
    2.7107   -4.8647    5.0911 H   0  0  0  0  0  0  0  0  0  0  0  0
    2.9610   -6.4028    4.3080 H   0  0  0  0  0  0  0  0  0  0  0  0
    4.0031   -3.2349    4.3328 H   0  0  0  0  0  0  0  0  0  0  0  0
    5.1391   -4.5215    3.9645 H   0  0  0  0  0  0  0  0  0  0  0  0
    5.5591   -2.2738    2.8115 H   0  0  0  0  0  0  0  0  0  0  0  0
    5.6661   -3.6642    1.9086 H   0  0  0  0  0  0  0  0  0  0  0  0
    3.7519   -1.2135   -0.3737 H   0  0  0  0  0  0  0  0  0  0  0  0
    5.8502   -0.2309    1.4888 H   0  0  0  0  0  0  0  0  0  0  0  0
    4.4749    0.5949    0.7872 H   0  0  0  0  0  0  0  0  0  0  0  0
    4.6982   -0.5779    3.5899 H   0  0  0  0  0  0  0  0  0  0  0  0
    3.8057    0.7481    3.0122 H   0  0  0  0  0  0  0  0  0  0  0  0
    1.8852   -0.4000    3.2424 H   0  0  0  0  0  0  0  0  0  0  0  0
    0.9447   -2.5657    2.9477 H   0  0  0  0  0  0  0  0  0  0  0  0
    1.5201   -4.5671    1.8269 H   0  0  0  0  0  0  0  0  0  0  0  0
    2.0396   -2.5174   -0.3502 H   0  0  0  0  0  0  0  0  0  0  0  0
    4.8474   -5.1675    0.7525 H   0  0  0  0  0  0  0  0  0  0  0  0
    3.7461   -5.3793   -0.5316 H   0  0  0  0  0  0  0  0  0  0  0  0
    6.0066   -4.2895   -1.1958 H   0  0  0  0  0  0  0  0  0  0  0  0
    4.5557   -3.5612   -1.8138 H   0  0  0  0  0  0  0  0  0  0  0  0
    6.4447   -2.4579    0.3178 H   0  0  0  0  0  0  0  0  0  0  0  0
    5.3292   -1.3833   -2.0012 H   0  0  0  0  0  0  0  0  0  0  0  0
    1.9024   -1.3618    1.0075 H   0  0  0  0  0  0  0  0  0  0  0  0
    3.6565   -5.5148    2.4997 H   0  0  0  0  0  0  0  0  0  0  0  0
  1  2  1  0
  1 26  1  0
  1 27  1  0
  1 28  1  0
  2 25  1  0
  2  3  1  0
  2 29  1  1
  3  4  1  0
  4  5  1  0
  4  6  1  0
  4 30  1  1
  5 31  1  0
  5 32  1  0
  5 33  1  0
  6  7  1  0
  6 25  1  0
  6 34  1  6
  7  8  1  0
  7 35  1  0
  7 36  1  0
  8 17  1  0
  8  9  1  0
  8 57  1  6
  9 10  1  0
  9 37  1  0
  9 38  1  0
 11 10  1  1
 10 39  1  0
 10 40  1  0
 11 18  1  0
 11 24  1  0
 11 12  1  0
 12 22  1  0
 12 13  1  0
 12 41  1  6
 13 14  1  0
 13 42  1  0
 13 43  1  0
 14 15  1  0
 14 44  1  0
 14 45  1  0
 15 24  1  0
 15 16  1  0
 15 46  1  6
 16 17  1  0
 16 24  1  0
 16 47  1  6
 17 18  1  0
 17 48  1  6
 18 19  1  6
 18 20  1  0
 19 49  1  0
 20 21  1  0
 20 50  1  0
 20 51  1  0
 21 22  1  0
 21 52  1  0
 21 53  1  0
 22 23  1  0
 22 54  1  1
 23 55  1  0
 24 56  1  6
M  CHG  1   8   1
M  END
>  <i_m_ct_stereo_status>  (377) 
1

>  <s_m_source_file>  (377) 
/var/tmp/pbs.5076255.sched01/tmp6w_bron9/120d4r_aq7a.sdf

>  <i_m_source_file_index>  (377) 
23

>  <i_lp_mmshare_version>  (377) 
48012

>  <i_f3d_flags>  (377) 
0

>  <s_epik_input>  (377) 
W0NIM11bQ0BASF0xT1tDQEBIXShbQ0gzXSlbQ0BIXShPMSlbQ0gyXU4oW0NIMl1bQ0gyXTIpW0NAQEhdKFtDQEhdKFtDQEhdMzQpW0NASF00W0NIMl1bQ0gyXVtDQEBIXTVbQ0BAXTIzNilbQ0BdNihbT0hdKVtDSDJdW0NIMl1bQ0BIXTVbT0hd

>  <s_epik_cmdline>  (377) 
J2VwaWtfcHl0aG9uJywgJy1waHQnLCAnMi4wJywgJy1waCcsICc3LjAnLCAnLXRuJywgJzgnLCAnLW1hJywgJzIwMCcsICctaW1hZScsICc8aW5maWxlLm1hZT4nLCAnLW9tYWUnLCAnPG91dGZpbGUubWFlPic=

>  <r_epik_Ionization_Penalty>  (377) 
0.0173199

>  <r_epik_Ionization_Penalty_Charging>  (377) 
0.0173195

>  <r_epik_Ionization_Penalty_Neutral>  (377) 
3.60408e-07

>  <r_epik_State_Penalty>  (377) 
0.0137207

>  <r_epik_Charging_Adjusted_Penalty>  (377) 
0.0310402

>  <i_epik_Tot_Q>  (377) 
1

>  <i_epik_Tot_abs_Q>  (377) 
1

>  <s_epik_Chemistry_Notes>  (377) 
This compound contains an acetal/aminal-like group ( X-CH(R)-Y where X, Y are N, S, or O) that may be acid/base labile, releasing an aldehyde.

>  <s_lp_Force_Field>  (377) 
OPLS3e

>  <r_lp_Energy>  (377) 
134.582

>  <b_lp_Chiralities_Consistent>  (377) 
1

>  <s_lp_Variant>  (377) 
97:0-1

>  <s_i_glide_gridfile>  (377) 
pfpi4k_grid

>  <i_i_glide_lignum>  (377) 
23

>  <i_i_glide_rotatable_bonds>  (377) 
4

>  <r_i_docking_score>  (377) 
-3.33759

>  <r_i_glide_ligand_efficiency>  (377) 
-0.133504

>  <r_i_glide_ligand_efficiency_sa>  (377) 
-0.390367

>  <r_i_glide_ligand_efficiency_ln>  (377) 
-0.791109

>  <r_i_glide_gscore>  (377) 
-3.33759

>  <r_i_glide_lipo>  (377) 
-0.284829

>  <r_i_glide_hbond>  (377) 
-0.271717

>  <r_i_glide_metal>  (377) 
-0

>  <r_i_glide_rewards>  (377) 
-1.01951

>  <r_i_glide_evdw>  (377) 
-16.479

>  <r_i_glide_ecoul>  (377) 
-8.01679

>  <r_i_glide_erotb>  (377) 
0.310366

>  <r_i_glide_esite>  (377) 
-0.045438

>  <r_i_glide_emodel>  (377) 
-26.0631

>  <r_i_glide_energy>  (377) 
-24.4958

>  <r_i_glide_einternal>  (377) 
9.78723

>  <r_i_glide_intrahb_reward>  (377) 
-0

>  <i_i_glide_confnum>  (377) 
2

>  <i_i_glide_posenum>  (377) 
4

>  <r_i_glide_eff_state_penalty>  (377) 
0

>  <ligand_id>  (377) 
97

>  <original_smiles>  (377) 
CC1OC(C)C(CN2CCC34C5CCC6C(C2C3(O)CCC5O)C64)O1

>  <smiles>  (377) 
[H]OC1([H])C([H])([H])C([H])([H])C2(O[H])C34C([H])([H])C([H])([H])[N+]([H])(C([H])([H])C5([H])OC([H])(C([H])([H])[H])OC5([H])C([H])([H])[H])C2([H])C2([H])C([H])(C([H])([H])C([H])([H])C13[H])C24[H]

$$$$
97:0:2
     RDKit          3D

 57 62  0  0  1  0  0  0  0  0999 V2000
   -1.6603   -7.4420    3.6084 C   0  0  0  0  0  0  0  0  0  0  0  0
   -0.3863   -8.1293    3.1357 C   0  0  2  0  0  0  0  0  0  0  0  0
    0.2617   -8.7058    4.2112 O   0  0  0  0  0  0  0  0  0  0  0  0
    1.5827   -8.9024    3.7386 C   0  0  1  0  0  0  0  0  0  0  0  0
    1.7007  -10.2540    2.9947 C   0  0  0  0  0  0  0  0  0  0  0  0
    1.7850   -7.6285    2.8882 C   0  0  1  0  0  0  0  0  0  0  0  0
    2.6673   -7.8552    1.6491 C   0  0  0  0  0  0  0  0  0  0  0  0
    3.1799   -6.6019    0.9694 N   0  0  2  0  0  0  0  0  0  0  0  0
    4.5228   -6.8142    0.3291 C   0  0  0  0  0  0  0  0  0  0  0  0
    5.1307   -5.4802   -0.0889 C   0  0  0  0  0  0  0  0  0  0  0  0
    4.8710   -4.2212    0.8947 C   0  0  1  0  0  0  0  0  0  0  0  0
    5.7181   -3.0683    0.4652 C   0  0  1  0  0  0  0  0  0  0  0  0
    7.1834   -3.5733    0.7690 C   0  0  0  0  0  0  0  0  0  0  0  0
    7.3329   -4.8940    1.7088 C   0  0  0  0  0  0  0  0  0  0  0  0
    6.1617   -5.2652    2.7226 C   0  0  1  0  0  0  0  0  0  0  0  0
    4.5400   -5.5393    2.7893 C   0  0  1  0  0  0  0  0  0  0  0  0
    3.2694   -5.3821    1.8543 C   0  0  1  0  0  0  0  0  0  0  0  0
    3.3886   -4.0695    1.0144 C   0  0  1  0  0  0  0  0  0  0  0  0
    2.9323   -2.9880    1.8104 O   0  0  0  0  0  0  0  0  0  0  0  0
    2.8354   -3.7512   -0.4069 C   0  0  0  0  0  0  0  0  0  0  0  0
    3.6675   -2.6208   -1.0962 C   0  0  0  0  0  0  0  0  0  0  0  0
    5.2431   -2.6945   -0.9704 C   0  0  1  0  0  0  0  0  0  0  0  0
    5.7972   -1.4530   -1.3276 O   0  0  0  0  0  0  0  0  0  0  0  0
    5.1688   -4.3407    2.3831 C   0  0  2  0  0  0  0  0  0  0  0  0
    0.4748   -7.2172    2.5377 O   0  0  0  0  0  0  0  0  0  0  0  0
   -1.4441   -6.6400    4.3184 H   0  0  0  0  0  0  0  0  0  0  0  0
   -2.2951   -8.1793    4.0906 H   0  0  0  0  0  0  0  0  0  0  0  0
   -2.1867   -7.0413    2.7453 H   0  0  0  0  0  0  0  0  0  0  0  0
   -0.6280   -8.9134    2.4111 H   0  0  0  0  0  0  0  0  0  0  0  0
    2.2740   -8.8987    4.5885 H   0  0  0  0  0  0  0  0  0  0  0  0
    2.7233  -10.4622    2.6938 H   0  0  0  0  0  0  0  0  0  0  0  0
    1.0953  -10.2997    2.0950 H   0  0  0  0  0  0  0  0  0  0  0  0
    1.3924  -11.0949    3.6286 H   0  0  0  0  0  0  0  0  0  0  0  0
    2.1790   -6.8797    3.5576 H   0  0  0  0  0  0  0  0  0  0  0  0
    3.5399   -8.4450    1.9225 H   0  0  0  0  0  0  0  0  0  0  0  0
    2.1432   -8.3915    0.8850 H   0  0  0  0  0  0  0  0  0  0  0  0
    5.1967   -7.3200    1.0134 H   0  0  0  0  0  0  0  0  0  0  0  0
    4.3803   -7.4667   -0.5160 H   0  0  0  0  0  0  0  0  0  0  0  0
    6.1696   -5.6743   -0.3362 H   0  0  0  0  0  0  0  0  0  0  0  0
    4.7466   -5.2837   -1.0805 H   0  0  0  0  0  0  0  0  0  0  0  0
    5.5047   -2.2057    1.1180 H   0  0  0  0  0  0  0  0  0  0  0  0
    7.7052   -3.7424   -0.1754 H   0  0  0  0  0  0  0  0  0  0  0  0
    7.6964   -2.7524    1.2574 H   0  0  0  0  0  0  0  0  0  0  0  0
    7.5771   -5.8014    1.1506 H   0  0  0  0  0  0  0  0  0  0  0  0
    8.2437   -4.7697    2.3041 H   0  0  0  0  0  0  0  0  0  0  0  0
    6.5475   -5.2500    3.7347 H   0  0  0  0  0  0  0  0  0  0  0  0
    4.2200   -5.6541    3.8095 H   0  0  0  0  0  0  0  0  0  0  0  0
    2.3859   -5.2909    2.4594 H   0  0  0  0  0  0  0  0  0  0  0  0
    3.0621   -2.1879    1.3163 H   0  0  0  0  0  0  0  0  0  0  0  0
    2.7788   -4.6041   -1.0734 H   0  0  0  0  0  0  0  0  0  0  0  0
    1.8092   -3.4193   -0.3210 H   0  0  0  0  0  0  0  0  0  0  0  0
    3.3941   -2.5851   -2.1549 H   0  0  0  0  0  0  0  0  0  0  0  0
    3.3269   -1.6713   -0.6779 H   0  0  0  0  0  0  0  0  0  0  0  0
    5.6308   -3.4336   -1.6739 H   0  0  0  0  0  0  0  0  0  0  0  0
    5.3569   -0.7925   -0.8024 H   0  0  0  0  0  0  0  0  0  0  0  0
    5.0516   -3.4714    3.0094 H   0  0  0  0  0  0  0  0  0  0  0  0
    2.5269   -6.3502    0.2387 H   0  0  0  0  0  0  0  0  0  0  0  0
  1  2  1  0
  1 26  1  0
  1 27  1  0
  1 28  1  0
  2 25  1  0
  2  3  1  0
  2 29  1  6
  3  4  1  0
  4  5  1  0
  4  6  1  0
  4 30  1  1
  5 31  1  0
  5 32  1  0
  5 33  1  0
  6  7  1  0
  6 25  1  0
  6 34  1  1
  7  8  1  0
  7 35  1  0
  7 36  1  0
  8 17  1  0
  8  9  1  0
  8 57  1  6
  9 10  1  0
  9 37  1  0
  9 38  1  0
 11 10  1  6
 10 39  1  0
 10 40  1  0
 11 18  1  0
 11 24  1  0
 11 12  1  0
 12 22  1  0
 12 13  1  0
 12 41  1  1
 13 14  1  0
 13 42  1  0
 13 43  1  0
 14 15  1  0
 14 44  1  0
 14 45  1  0
 15 24  1  0
 15 16  1  0
 15 46  1  1
 16 17  1  0
 16 24  1  0
 16 47  1  1
 17 18  1  0
 17 48  1  1
 18 19  1  1
 18 20  1  0
 19 49  1  0
 20 21  1  0
 20 50  1  0
 20 51  1  0
 21 22  1  0
 21 52  1  0
 21 53  1  0
 22 23  1  0
 22 54  1  6
 23 55  1  0
 24 56  1  1
M  CHG  1   8   1
M  END
>  <i_m_ct_stereo_status>  (378) 
1

>  <s_m_source_file>  (378) 
/var/tmp/pbs.5076255.sched01/tmp6w_bron9/120d4r_aq7a.sdf

>  <i_m_source_file_index>  (378) 
23

>  <i_lp_mmshare_version>  (378) 
48012

>  <i_f3d_flags>  (378) 
0

>  <s_epik_input>  (378) 
W0NIM11bQ0BASF0xT1tDQEBIXShbQ0gzXSlbQ0BIXShPMSlbQ0gyXU4oW0NIMl1bQ0gyXTIpW0NAQEhdKFtDQEhdKFtDQEhdMzQpW0NASF00W0NIMl1bQ0gyXVtDQEBIXTVbQ0BAXTIzNilbQ0BdNihbT0hdKVtDSDJdW0NIMl1bQ0BIXTVbT0hd

>  <s_epik_cmdline>  (378) 
J2VwaWtfcHl0aG9uJywgJy1waHQnLCAnMi4wJywgJy1waCcsICc3LjAnLCAnLXRuJywgJzgnLCAnLW1hJywgJzIwMCcsICctaW1hZScsICc8aW5maWxlLm1hZT4nLCAnLW9tYWUnLCAnPG91dGZpbGUubWFlPic=

>  <r_epik_Ionization_Penalty>  (378) 
0.0173199

>  <r_epik_Ionization_Penalty_Charging>  (378) 
0.0173195

>  <r_epik_Ionization_Penalty_Neutral>  (378) 
3.60408e-07

>  <r_epik_State_Penalty>  (378) 
0.0137207

>  <r_epik_Charging_Adjusted_Penalty>  (378) 
0.0310402

>  <i_epik_Tot_Q>  (378) 
1

>  <i_epik_Tot_abs_Q>  (378) 
1

>  <s_epik_Chemistry_Notes>  (378) 
This compound contains an acetal/aminal-like group ( X-CH(R)-Y where X, Y are N, S, or O) that may be acid/base labile, releasing an aldehyde.

>  <s_lp_Force_Field>  (378) 
OPLS3e

>  <r_lp_Energy>  (378) 
134.582

>  <b_lp_Chiralities_Consistent>  (378) 
1

>  <s_lp_Variant>  (378) 
97:0-1

>  <s_i_glide_gridfile>  (378) 
pfpi4k_grid

>  <i_i_glide_lignum>  (378) 
23

>  <i_i_glide_rotatable_bonds>  (378) 
4

>  <r_i_docking_score>  (378) 
-3.16954

>  <r_i_glide_ligand_efficiency>  (378) 
-0.126782

>  <r_i_glide_ligand_efficiency_sa>  (378) 
-0.370712

>  <r_i_glide_ligand_efficiency_ln>  (378) 
-0.751276

>  <r_i_glide_gscore>  (378) 
-3.16954

>  <r_i_glide_lipo>  (378) 
-0.574416

>  <r_i_glide_hbond>  (378) 
-0.0685497

>  <r_i_glide_metal>  (378) 
-0

>  <r_i_glide_rewards>  (378) 
-1.01951

>  <r_i_glide_evdw>  (378) 
-20.2998

>  <r_i_glide_ecoul>  (378) 
-5.02751

>  <r_i_glide_erotb>  (378) 
0.310366

>  <r_i_glide_esite>  (378) 
-0.0483159

>  <r_i_glide_emodel>  (378) 
-26.3949

>  <r_i_glide_energy>  (378) 
-25.3273

>  <r_i_glide_einternal>  (378) 
9.60749

>  <r_i_glide_intrahb_reward>  (378) 
-0

>  <i_i_glide_confnum>  (378) 
2

>  <i_i_glide_posenum>  (378) 
28

>  <r_i_glide_eff_state_penalty>  (378) 
0

>  <ligand_id>  (378) 
97

>  <original_smiles>  (378) 
CC1OC(C)C(CN2CCC34C5CCC6C(C2C3(O)CCC5O)C64)O1

>  <smiles>  (378) 
[H]OC1([H])C([H])([H])C([H])([H])C2(O[H])C34C([H])([H])C([H])([H])[N+]([H])(C([H])([H])C5([H])OC([H])(C([H])([H])[H])OC5([H])C([H])([H])[H])C2([H])C2([H])C([H])(C([H])([H])C([H])([H])C13[H])C24[H]

$$$$
97:1:0
     RDKit          3D

 56 61  0  0  1  0  0  0  0  0999 V2000
    4.0635   -2.0355    0.5760 C   0  0  0  0  0  0  0  0  0  0  0  0
    3.1692   -2.1127    1.8315 C   0  0  2  0  0  0  0  0  0  0  0  0
    3.7740   -1.4283    2.8724 O   0  0  0  0  0  0  0  0  0  0  0  0
    4.4350   -2.3893    3.6810 C   0  0  1  0  0  0  0  0  0  0  0  0
    3.9021   -2.2765    5.1227 C   0  0  0  0  0  0  0  0  0  0  0  0
    4.1470   -3.7428    2.9822 C   0  0  1  0  0  0  0  0  0  0  0  0
    3.9485   -4.9451    3.9203 C   0  0  0  0  0  0  0  0  0  0  0  0
    3.9787   -6.2601    3.2944 N   0  0  0  0  0  0  0  0  0  0  0  0
    3.8724   -7.3410    4.2650 C   0  0  0  0  0  0  0  0  0  0  0  0
    2.4403   -7.9030    4.3892 C   0  0  0  0  0  0  0  0  0  0  0  0
    1.5483   -7.9497    3.0457 C   0  0  1  0  0  0  0  0  0  0  0  0
    0.3323   -8.7716    3.2810 C   0  0  1  0  0  0  0  0  0  0  0  0
    0.9251  -10.2132    3.4825 C   0  0  0  0  0  0  0  0  0  0  0  0
    2.4571  -10.4622    3.0324 C   0  0  0  0  0  0  0  0  0  0  0  0
    3.1019   -9.5143    1.9536 C   0  0  1  0  0  0  0  0  0  0  0  0
    3.3875   -7.8988    1.6135 C   0  0  1  0  0  0  0  0  0  0  0  0
    3.0179   -6.4945    2.2161 C   0  0  1  0  0  0  0  0  0  0  0  0
    1.4540   -6.5318    2.5779 C   0  0  1  0  0  0  0  0  0  0  0  0
    0.6822   -6.3228    1.3873 O   0  0  0  0  0  0  0  0  0  0  0  0
    0.6655   -5.7309    3.6580 C   0  0  0  0  0  0  0  0  0  0  0  0
   -0.6191   -6.5176    4.0893 C   0  0  0  0  0  0  0  0  0  0  0  0
   -0.4799   -8.0638    4.3797 C   0  0  1  0  0  0  0  0  0  0  0  0
   -1.7679   -8.6480    4.4051 O   0  0  0  0  0  0  0  0  0  0  0  0
    2.1334   -8.5169    1.7918 C   0  0  2  0  0  0  0  0  0  0  0  0
    3.0007   -3.4349    2.2140 O   0  0  0  0  0  0  0  0  0  0  0  0
    5.0617   -2.4371    0.7568 H   0  0  0  0  0  0  0  0  0  0  0  0
    4.1819   -0.9996    0.2670 H   0  0  0  0  0  0  0  0  0  0  0  0
    3.6052   -2.6049   -0.2307 H   0  0  0  0  0  0  0  0  0  0  0  0
    2.1891   -1.6674    1.6442 H   0  0  0  0  0  0  0  0  0  0  0  0
    5.5049   -2.1814    3.6521 H   0  0  0  0  0  0  0  0  0  0  0  0
    4.4314   -2.9541    5.7901 H   0  0  0  0  0  0  0  0  0  0  0  0
    2.8427   -2.5233    5.1661 H   0  0  0  0  0  0  0  0  0  0  0  0
    4.0242   -1.2721    5.5333 H   0  0  0  0  0  0  0  0  0  0  0  0
    4.9726   -3.9833    2.3105 H   0  0  0  0  0  0  0  0  0  0  0  0
    4.7925   -4.9149    4.6011 H   0  0  0  0  0  0  0  0  0  0  0  0
    3.0710   -4.8088    4.5399 H   0  0  0  0  0  0  0  0  0  0  0  0
    4.5494   -8.1387    3.9598 H   0  0  0  0  0  0  0  0  0  0  0  0
    4.2230   -7.0081    5.2388 H   0  0  0  0  0  0  0  0  0  0  0  0
    2.5201   -8.8446    4.9263 H   0  0  0  0  0  0  0  0  0  0  0  0
    1.9775   -7.3126    5.1730 H   0  0  0  0  0  0  0  0  0  0  0  0
   -0.2748   -8.7681    2.3737 H   0  0  0  0  0  0  0  0  0  0  0  0
    0.7977  -10.5016    4.5305 H   0  0  0  0  0  0  0  0  0  0  0  0
    0.2829  -10.8985    2.9365 H   0  0  0  0  0  0  0  0  0  0  0  0
    3.1356  -10.5162    3.8839 H   0  0  0  0  0  0  0  0  0  0  0  0
    2.5131  -11.4754    2.6274 H   0  0  0  0  0  0  0  0  0  0  0  0
    3.3959  -10.0945    1.0916 H   0  0  0  0  0  0  0  0  0  0  0  0
    3.8103   -7.8178    0.6238 H   0  0  0  0  0  0  0  0  0  0  0  0
    3.1883   -5.7531    1.4252 H   0  0  0  0  0  0  0  0  0  0  0  0
    0.7359   -7.1331    0.8894 H   0  0  0  0  0  0  0  0  0  0  0  0
    1.2317   -5.5193    4.5588 H   0  0  0  0  0  0  0  0  0  0  0  0
    0.4233   -4.7388    3.2805 H   0  0  0  0  0  0  0  0  0  0  0  0
   -1.0530   -6.0312    4.9592 H   0  0  0  0  0  0  0  0  0  0  0  0
   -1.3593   -6.4267    3.2945 H   0  0  0  0  0  0  0  0  0  0  0  0
   -0.0118   -8.2072    5.3556 H   0  0  0  0  0  0  0  0  0  0  0  0
   -1.7578   -9.5751    4.7154 H   0  0  0  0  0  0  0  0  0  0  0  0
    1.5010   -8.6326    0.9407 H   0  0  0  0  0  0  0  0  0  0  0  0
  1  2  1  0
  1 26  1  0
  1 27  1  0
  1 28  1  0
  2 25  1  0
  2  3  1  0
  2 29  1  6
  3  4  1  0
  4  5  1  0
  4  6  1  0
  4 30  1  1
  5 31  1  0
  5 32  1  0
  5 33  1  0
  6  7  1  0
  6 25  1  0
  6 34  1  6
  7  8  1  0
  7 35  1  0
  7 36  1  0
  8 17  1  0
  8  9  1  0
  9 10  1  0
  9 37  1  0
  9 38  1  0
 11 10  1  1
 10 39  1  0
 10 40  1  0
 11 18  1  0
 11 24  1  0
 11 12  1  0
 12 22  1  0
 12 13  1  0
 12 41  1  6
 13 14  1  0
 13 42  1  0
 13 43  1  0
 14 15  1  0
 14 44  1  0
 14 45  1  0
 15 24  1  0
 15 16  1  0
 15 46  1  6
 16 17  1  0
 16 24  1  0
 16 47  1  6
 17 18  1  0
 17 48  1  6
 18 19  1  6
 18 20  1  0
 19 49  1  0
 20 21  1  0
 20 50  1  0
 20 51  1  0
 21 22  1  0
 21 52  1  0
 21 53  1  0
 22 23  1  0
 22 54  1  1
 23 55  1  0
 24 56  1  6
M  END
>  <i_m_ct_stereo_status>  (379) 
1

>  <s_m_source_file>  (379) 
/var/tmp/pbs.5076255.sched01/tmp6w_bron9/120d4r_aq7a.sdf

>  <i_m_source_file_index>  (379) 
24

>  <i_lp_mmshare_version>  (379) 
48012

>  <i_f3d_flags>  (379) 
0

>  <s_epik_input>  (379) 
W0NIM11bQ0BASF0xT1tDQEBIXShbQ0gzXSlbQ0BIXShPMSlbQ0gyXU4oW0NIMl1bQ0gyXTIpW0NAQEhdKFtDQEhdKFtDQEhdMzQpW0NASF00W0NIMl1bQ0gyXVtDQEBIXTVbQ0BAXTIzNilbQ0BdNihbT0hdKVtDSDJdW0NIMl1bQ0BIXTVbT0hd

>  <s_epik_cmdline>  (379) 
J2VwaWtfcHl0aG9uJywgJy1waHQnLCAnMi4wJywgJy1waCcsICc3LjAnLCAnLXRuJywgJzgnLCAnLW1hJywgJzIwMCcsICctaW1hZScsICc8aW5maWxlLm1hZT4nLCAnLW9tYWUnLCAnPG91dGZpbGUubWFlPic=

>  <r_epik_Ionization_Penalty>  (379) 
2.10159

>  <r_epik_Ionization_Penalty_Charging>  (379) 
0

>  <r_epik_Ionization_Penalty_Neutral>  (379) 
2.10159

>  <r_epik_State_Penalty>  (379) 
2.23781

>  <r_epik_Charging_Adjusted_Penalty>  (379) 
2.23781

>  <i_epik_Tot_Q>  (379) 
0

>  <i_epik_Tot_abs_Q>  (379) 
0

>  <s_epik_Chemistry_Notes>  (379) 
This compound contains an acetal/aminal-like group ( X-CH(R)-Y where X, Y are N, S, or O) that may be acid/base labile, releasing an aldehyde.

>  <s_lp_Force_Field>  (379) 
OPLS3e

>  <r_lp_Energy>  (379) 
130.491

>  <b_lp_Chiralities_Consistent>  (379) 
1

>  <s_lp_Variant>  (379) 
97:0-2

>  <s_i_glide_gridfile>  (379) 
pfpi4k_grid

>  <i_i_glide_lignum>  (379) 
24

>  <i_i_glide_rotatable_bonds>  (379) 
4

>  <r_i_docking_score>  (379) 
-3.25174

>  <r_i_glide_ligand_efficiency>  (379) 
-0.13007

>  <r_i_glide_ligand_efficiency_sa>  (379) 
-0.380326

>  <r_i_glide_ligand_efficiency_ln>  (379) 
-0.77076

>  <r_i_glide_gscore>  (379) 
-3.25174

>  <r_i_glide_lipo>  (379) 
-0.0707265

>  <r_i_glide_hbond>  (379) 
-0.32

>  <r_i_glide_metal>  (379) 
-0

>  <r_i_glide_rewards>  (379) 
-1.02638

>  <r_i_glide_evdw>  (379) 
-14.7397

>  <r_i_glide_ecoul>  (379) 
-9.32506

>  <r_i_glide_erotb>  (379) 
0.311959

>  <r_i_glide_esite>  (379) 
-0.0108511

>  <r_i_glide_emodel>  (379) 
-29.0015

>  <r_i_glide_energy>  (379) 
-24.0648

>  <r_i_glide_einternal>  (379) 
0.857277

>  <r_i_glide_intrahb_reward>  (379) 
-0

>  <i_i_glide_confnum>  (379) 
5

>  <i_i_glide_posenum>  (379) 
13

>  <r_i_glide_eff_state_penalty>  (379) 
0

>  <ligand_id>  (379) 
97

>  <original_smiles>  (379) 
CC1OC(C)C(CN2CCC34C5CCC6C(C2C3(O)CCC5O)C64)O1

>  <smiles>  (379) 
[H]OC1([H])C([H])([H])C([H])([H])C2(O[H])C3([H])N(C([H])([H])C4([H])OC([H])(C([H])([H])[H])OC4([H])C([H])([H])[H])C([H])([H])C([H])([H])C24C1([H])C([H])([H])C([H])([H])C1([H])C3([H])C14[H]

$$$$
97:1:1
     RDKit          3D

 56 61  0  0  1  0  0  0  0  0999 V2000
    3.8037   -1.3879   -2.2423 C   0  0  0  0  0  0  0  0  0  0  0  0
    5.0152   -1.3278   -1.2888 C   0  0  2  0  0  0  0  0  0  0  0  0
    6.0321   -2.1291   -1.7797 O   0  0  0  0  0  0  0  0  0  0  0  0
    5.9527   -3.3630   -1.0866 C   0  0  1  0  0  0  0  0  0  0  0  0
    7.3237   -3.6219   -0.4244 C   0  0  0  0  0  0  0  0  0  0  0  0
    4.7692   -3.1787   -0.1064 C   0  0  1  0  0  0  0  0  0  0  0  0
    4.9227   -3.8483    1.2718 C   0  0  0  0  0  0  0  0  0  0  0  0
    4.9860   -5.3160    1.1974 N   0  0  0  0  0  0  0  0  0  0  0  0
    5.4695   -5.9617    2.4046 C   0  0  0  0  0  0  0  0  0  0  0  0
    4.3285   -6.5152    3.2734 C   0  0  0  0  0  0  0  0  0  0  0  0
    3.0343   -7.1201    2.4978 C   0  0  1  0  0  0  0  0  0  0  0  0
    2.1704   -7.8286    3.4764 C   0  0  1  0  0  0  0  0  0  0  0  0
    3.0683   -9.0593    3.9017 C   0  0  0  0  0  0  0  0  0  0  0  0
    4.3558   -9.3979    2.9758 C   0  0  0  0  0  0  0  0  0  0  0  0
    4.3705   -8.9227    1.4743 C   0  0  1  0  0  0  0  0  0  0  0  0
    4.2063   -7.5549    0.5289 C   0  0  1  0  0  0  0  0  0  0  0  0
    3.8025   -6.0295    0.7177 C   0  0  1  0  0  0  0  0  0  0  0  0
    2.5056   -5.9945    1.6596 C   0  0  1  0  0  0  0  0  0  0  0  0
    1.3330   -6.2865    0.8946 O   0  0  0  0  0  0  0  0  0  0  0  0
    2.0131   -4.8734    2.6314 C   0  0  0  0  0  0  0  0  0  0  0  0
    1.1375   -5.4733    3.7777 C   0  0  0  0  0  0  0  0  0  0  0  0
    1.6830   -6.7685    4.4888 C   0  0  1  0  0  0  0  0  0  0  0  0
    0.6530   -7.3183    5.2727 O   0  0  0  0  0  0  0  0  0  0  0  0
    3.2270   -8.1154    1.3830 C   0  0  2  0  0  0  0  0  0  0  0  0
    4.6701   -1.7757   -0.0237 O   0  0  0  0  0  0  0  0  0  0  0  0
    3.4253   -2.4046   -2.3580 H   0  0  0  0  0  0  0  0  0  0  0  0
    4.0839   -1.0190   -3.2279 H   0  0  0  0  0  0  0  0  0  0  0  0
    3.0005   -0.7653   -1.8528 H   0  0  0  0  0  0  0  0  0  0  0  0
    5.3831   -0.3065   -1.2001 H   0  0  0  0  0  0  0  0  0  0  0  0
    5.7213   -4.1558   -1.8001 H   0  0  0  0  0  0  0  0  0  0  0  0
    7.3413   -4.5851    0.0825 H   0  0  0  0  0  0  0  0  0  0  0  0
    7.5603   -2.8552    0.3113 H   0  0  0  0  0  0  0  0  0  0  0  0
    8.1418   -3.6351   -1.1516 H   0  0  0  0  0  0  0  0  0  0  0  0
    3.8430   -3.5279   -0.5567 H   0  0  0  0  0  0  0  0  0  0  0  0
    5.8317   -3.4719    1.7442 H   0  0  0  0  0  0  0  0  0  0  0  0
    4.1191   -3.4991    1.9124 H   0  0  0  0  0  0  0  0  0  0  0  0
    6.1131   -6.7882    2.1031 H   0  0  0  0  0  0  0  0  0  0  0  0
    6.0979   -5.2878    2.9813 H   0  0  0  0  0  0  0  0  0  0  0  0
    4.7751   -7.1732    4.0093 H   0  0  0  0  0  0  0  0  0  0  0  0
    4.0686   -5.6938    3.9300 H   0  0  0  0  0  0  0  0  0  0  0  0
    1.2904   -8.2097    2.9624 H   0  0  0  0  0  0  0  0  0  0  0  0
    3.3996   -8.9102    4.9337 H   0  0  0  0  0  0  0  0  0  0  0  0
    2.4205   -9.9353    3.9382 H   0  0  0  0  0  0  0  0  0  0  0  0
    5.2919   -9.0928    3.4390 H   0  0  0  0  0  0  0  0  0  0  0  0
    4.4456  -10.4832    2.9561 H   0  0  0  0  0  0  0  0  0  0  0  0
    4.4417   -9.7949    0.8256 H   0  0  0  0  0  0  0  0  0  0  0  0
    4.2367   -7.8277   -0.5152 H   0  0  0  0  0  0  0  0  0  0  0  0
    3.5223   -5.6558   -0.2685 H   0  0  0  0  0  0  0  0  0  0  0  0
    1.3977   -7.1986    0.6105 H   0  0  0  0  0  0  0  0  0  0  0  0
    2.8059   -4.3224    3.1153 H   0  0  0  0  0  0  0  0  0  0  0  0
    1.4556   -4.1158    2.0855 H   0  0  0  0  0  0  0  0  0  0  0  0
    0.9583   -4.7065    4.5318 H   0  0  0  0  0  0  0  0  0  0  0  0
    0.1631   -5.7202    3.3589 H   0  0  0  0  0  0  0  0  0  0  0  0
    2.4895   -6.5071    5.1714 H   0  0  0  0  0  0  0  0  0  0  0  0
    0.9736   -8.1302    5.6516 H   0  0  0  0  0  0  0  0  0  0  0  0
    2.3526   -8.5878    0.9545 H   0  0  0  0  0  0  0  0  0  0  0  0
  1  2  1  0
  1 26  1  0
  1 27  1  0
  1 28  1  0
  2 25  1  0
  2  3  1  0
  2 29  1  1
  3  4  1  0
  4  5  1  0
  4  6  1  0
  4 30  1  6
  5 31  1  0
  5 32  1  0
  5 33  1  0
  6  7  1  0
  6 25  1  0
  6 34  1  6
  7  8  1  0
  7 35  1  0
  7 36  1  0
  8 17  1  0
  8  9  1  0
  9 10  1  0
  9 37  1  0
  9 38  1  0
 11 10  1  1
 10 39  1  0
 10 40  1  0
 11 18  1  0
 11 24  1  0
 11 12  1  0
 12 22  1  0
 12 13  1  0
 12 41  1  6
 13 14  1  0
 13 42  1  0
 13 43  1  0
 14 15  1  0
 14 44  1  0
 14 45  1  0
 15 24  1  0
 15 16  1  0
 15 46  1  6
 16 17  1  0
 16 24  1  0
 16 47  1  6
 17 18  1  0
 17 48  1  6
 18 19  1  6
 18 20  1  0
 19 49  1  0
 20 21  1  0
 20 50  1  0
 20 51  1  0
 21 22  1  0
 21 52  1  0
 21 53  1  0
 22 23  1  0
 22 54  1  1
 23 55  1  0
 24 56  1  6
M  END
>  <i_m_ct_stereo_status>  (380) 
1

>  <s_m_source_file>  (380) 
/var/tmp/pbs.5076255.sched01/tmp6w_bron9/120d4r_aq7a.sdf

>  <i_m_source_file_index>  (380) 
24

>  <i_lp_mmshare_version>  (380) 
48012

>  <i_f3d_flags>  (380) 
0

>  <s_epik_input>  (380) 
W0NIM11bQ0BASF0xT1tDQEBIXShbQ0gzXSlbQ0BIXShPMSlbQ0gyXU4oW0NIMl1bQ0gyXTIpW0NAQEhdKFtDQEhdKFtDQEhdMzQpW0NASF00W0NIMl1bQ0gyXVtDQEBIXTVbQ0BAXTIzNilbQ0BdNihbT0hdKVtDSDJdW0NIMl1bQ0BIXTVbT0hd

>  <s_epik_cmdline>  (380) 
J2VwaWtfcHl0aG9uJywgJy1waHQnLCAnMi4wJywgJy1waCcsICc3LjAnLCAnLXRuJywgJzgnLCAnLW1hJywgJzIwMCcsICctaW1hZScsICc8aW5maWxlLm1hZT4nLCAnLW9tYWUnLCAnPG91dGZpbGUubWFlPic=

>  <r_epik_Ionization_Penalty>  (380) 
2.10159

>  <r_epik_Ionization_Penalty_Charging>  (380) 
0

>  <r_epik_Ionization_Penalty_Neutral>  (380) 
2.10159

>  <r_epik_State_Penalty>  (380) 
2.23781

>  <r_epik_Charging_Adjusted_Penalty>  (380) 
2.23781

>  <i_epik_Tot_Q>  (380) 
0

>  <i_epik_Tot_abs_Q>  (380) 
0

>  <s_epik_Chemistry_Notes>  (380) 
This compound contains an acetal/aminal-like group ( X-CH(R)-Y where X, Y are N, S, or O) that may be acid/base labile, releasing an aldehyde.

>  <s_lp_Force_Field>  (380) 
OPLS3e

>  <r_lp_Energy>  (380) 
130.491

>  <b_lp_Chiralities_Consistent>  (380) 
1

>  <s_lp_Variant>  (380) 
97:0-2

>  <s_i_glide_gridfile>  (380) 
pfpi4k_grid

>  <i_i_glide_lignum>  (380) 
24

>  <i_i_glide_rotatable_bonds>  (380) 
4

>  <r_i_docking_score>  (380) 
-3.08695

>  <r_i_glide_ligand_efficiency>  (380) 
-0.123478

>  <r_i_glide_ligand_efficiency_sa>  (380) 
-0.361052

>  <r_i_glide_ligand_efficiency_ln>  (380) 
-0.731699

>  <r_i_glide_gscore>  (380) 
-3.08695

>  <r_i_glide_lipo>  (380) 
-0.505923

>  <r_i_glide_hbond>  (380) 
-0.156088

>  <r_i_glide_metal>  (380) 
-0

>  <r_i_glide_rewards>  (380) 
-1.02638

>  <r_i_glide_evdw>  (380) 
-19.9392

>  <r_i_glide_ecoul>  (380) 
-4.46771

>  <r_i_glide_erotb>  (380) 
0.311959

>  <r_i_glide_esite>  (380) 
-0.0434013

>  <r_i_glide_emodel>  (380) 
-28.3225

>  <r_i_glide_energy>  (380) 
-24.4069

>  <r_i_glide_einternal>  (380) 
2.50735

>  <r_i_glide_intrahb_reward>  (380) 
-0

>  <i_i_glide_confnum>  (380) 
3

>  <i_i_glide_posenum>  (380) 
21

>  <r_i_glide_eff_state_penalty>  (380) 
0

>  <ligand_id>  (380) 
97

>  <original_smiles>  (380) 
CC1OC(C)C(CN2CCC34C5CCC6C(C2C3(O)CCC5O)C64)O1

>  <smiles>  (380) 
[H]OC1([H])C([H])([H])C([H])([H])C2(O[H])C3([H])N(C([H])([H])C4([H])OC([H])(C([H])([H])[H])OC4([H])C([H])([H])[H])C([H])([H])C([H])([H])C24C1([H])C([H])([H])C([H])([H])C1([H])C3([H])C14[H]

$$$$
97:1:2
     RDKit          3D

 56 61  0  0  1  0  0  0  0  0999 V2000
    3.8236   -1.2539   -1.0509 C   0  0  0  0  0  0  0  0  0  0  0  0
    4.9299   -1.3704    0.0153 C   0  0  2  0  0  0  0  0  0  0  0  0
    5.9531   -2.1637   -0.4778 O   0  0  0  0  0  0  0  0  0  0  0  0
    5.7552   -3.4611    0.0546 C   0  0  1  0  0  0  0  0  0  0  0  0
    7.0476   -3.8483    0.8076 C   0  0  0  0  0  0  0  0  0  0  0  0
    4.4819   -3.3333    0.9313 C   0  0  1  0  0  0  0  0  0  0  0  0
    4.4672   -4.1591    2.2323 C   0  0  0  0  0  0  0  0  0  0  0  0
    4.5799   -5.6044    1.9948 N   0  0  0  0  0  0  0  0  0  0  0  0
    4.9203   -6.3906    3.1649 C   0  0  0  0  0  0  0  0  0  0  0  0
    3.6936   -7.0745    3.7886 C   0  0  0  0  0  0  0  0  0  0  0  0
    2.5419   -7.6027    2.7693 C   0  0  1  0  0  0  0  0  0  0  0  0
    1.5790   -8.4461    3.5187 C   0  0  1  0  0  0  0  0  0  0  0  0
    2.4621   -9.6991    3.9147 C   0  0  0  0  0  0  0  0  0  0  0  0
    3.8770   -9.8872    3.1451 C   0  0  0  0  0  0  0  0  0  0  0  0
    4.0835   -9.2135    1.7380 C   0  0  1  0  0  0  0  0  0  0  0  0
    3.9875   -7.7439    0.9502 C   0  0  1  0  0  0  0  0  0  0  0  0
    3.5030   -6.2687    1.2639 C   0  0  1  0  0  0  0  0  0  0  0  0
    2.0926   -6.3921    2.0113 C   0  0  1  0  0  0  0  0  0  0  0  0
    1.0516   -6.6080    1.0565 O   0  0  0  0  0  0  0  0  0  0  0  0
    1.4368   -5.4114    3.0292 C   0  0  0  0  0  0  0  0  0  0  0  0
    0.4309   -6.1673    3.9574 C   0  0  0  0  0  0  0  0  0  0  0  0
    0.9193   -7.5337    4.5738 C   0  0  1  0  0  0  0  0  0  0  0  0
   -0.1964   -8.1929    5.1206 O   0  0  0  0  0  0  0  0  0  0  0  0
    2.9270   -8.4368    1.5791 C   0  0  2  0  0  0  0  0  0  0  0  0
    4.4268   -1.9459    1.1710 O   0  0  0  0  0  0  0  0  0  0  0  0
    3.4110   -2.2270   -1.3304 H   0  0  0  0  0  0  0  0  0  0  0  0
    4.2091   -0.7741   -1.9512 H   0  0  0  0  0  0  0  0  0  0  0  0
    3.0161   -0.6619   -0.6426 H   0  0  0  0  0  0  0  0  0  0  0  0
    5.3298   -0.3887    0.2660 H   0  0  0  0  0  0  0  0  0  0  0  0
    5.5686   -4.1546   -0.7693 H   0  0  0  0  0  0  0  0  0  0  0  0
    6.9980   -4.8626    1.2001 H   0  0  0  0  0  0  0  0  0  0  0  0
    7.2156   -3.1749    1.6433 H   0  0  0  0  0  0  0  0  0  0  0  0
    7.9349   -3.8021    0.1700 H   0  0  0  0  0  0  0  0  0  0  0  0
    3.5941   -3.5901    0.3566 H   0  0  0  0  0  0  0  0  0  0  0  0
    5.2968   -3.8316    2.8594 H   0  0  0  0  0  0  0  0  0  0  0  0
    3.5800   -3.8953    2.8013 H   0  0  0  0  0  0  0  0  0  0  0  0
    5.6293   -7.1577    2.8542 H   0  0  0  0  0  0  0  0  0  0  0  0
    5.4357   -5.7849    3.9054 H   0  0  0  0  0  0  0  0  0  0  0  0
    4.0613   -7.8104    4.4951 H   0  0  0  0  0  0  0  0  0  0  0  0
    3.3171   -6.3495    4.4999 H   0  0  0  0  0  0  0  0  0  0  0  0
    0.7962   -8.7802    2.8429 H   0  0  0  0  0  0  0  0  0  0  0  0
    2.6379   -9.6780    4.9960 H   0  0  0  0  0  0  0  0  0  0  0  0
    1.8507  -10.5880    3.7517 H   0  0  0  0  0  0  0  0  0  0  0  0
    4.7285   -9.6332    3.7722 H   0  0  0  0  0  0  0  0  0  0  0  0
    4.0064  -10.9575    2.9939 H   0  0  0  0  0  0  0  0  0  0  0  0
    4.3069   -9.9680    0.9948 H   0  0  0  0  0  0  0  0  0  0  0  0
    4.2302   -7.8902   -0.0949 H   0  0  0  0  0  0  0  0  0  0  0  0
    3.3453   -5.7745    0.3027 H   0  0  0  0  0  0  0  0  0  0  0  0
    1.1124   -7.5196    0.7675 H   0  0  0  0  0  0  0  0  0  0  0  0
    2.1356   -4.9097    3.6826 H   0  0  0  0  0  0  0  0  0  0  0  0
    0.9447   -4.6001    2.4998 H   0  0  0  0  0  0  0  0  0  0  0  0
    0.1227   -5.5067    4.7681 H   0  0  0  0  0  0  0  0  0  0  0  0
   -0.4689   -6.3796    3.3800 H   0  0  0  0  0  0  0  0  0  0  0  0
    1.6127   -7.3514    5.3921 H   0  0  0  0  0  0  0  0  0  0  0  0
    0.0543   -9.0868    5.3322 H   0  0  0  0  0  0  0  0  0  0  0  0
    2.1444   -8.8759    0.9765 H   0  0  0  0  0  0  0  0  0  0  0  0
  1  2  1  0
  1 26  1  0
  1 27  1  0
  1 28  1  0
  2 25  1  0
  2  3  1  0
  2 29  1  1
  3  4  1  0
  4  5  1  0
  4  6  1  0
  4 30  1  6
  5 31  1  0
  5 32  1  0
  5 33  1  0
  6  7  1  0
  6 25  1  0
  6 34  1  6
  7  8  1  0
  7 35  1  0
  7 36  1  0
  8 17  1  0
  8  9  1  0
  9 10  1  0
  9 37  1  0
  9 38  1  0
 11 10  1  1
 10 39  1  0
 10 40  1  0
 11 18  1  0
 11 24  1  0
 11 12  1  0
 12 22  1  0
 12 13  1  0
 12 41  1  6
 13 14  1  0
 13 42  1  0
 13 43  1  0
 14 15  1  0
 14 44  1  0
 14 45  1  0
 15 24  1  0
 15 16  1  0
 15 46  1  6
 16 17  1  0
 16 24  1  0
 16 47  1  6
 17 18  1  0
 17 48  1  6
 18 19  1  6
 18 20  1  0
 19 49  1  0
 20 21  1  0
 20 50  1  0
 20 51  1  0
 21 22  1  0
 21 52  1  0
 21 53  1  0
 22 23  1  0
 22 54  1  1
 23 55  1  0
 24 56  1  6
M  END
>  <i_m_ct_stereo_status>  (381) 
1

>  <s_m_source_file>  (381) 
/var/tmp/pbs.5076255.sched01/tmp6w_bron9/120d4r_aq7a.sdf

>  <i_m_source_file_index>  (381) 
24

>  <i_lp_mmshare_version>  (381) 
48012

>  <i_f3d_flags>  (381) 
0

>  <s_epik_input>  (381) 
W0NIM11bQ0BASF0xT1tDQEBIXShbQ0gzXSlbQ0BIXShPMSlbQ0gyXU4oW0NIMl1bQ0gyXTIpW0NAQEhdKFtDQEhdKFtDQEhdMzQpW0NASF00W0NIMl1bQ0gyXVtDQEBIXTVbQ0BAXTIzNilbQ0BdNihbT0hdKVtDSDJdW0NIMl1bQ0BIXTVbT0hd

>  <s_epik_cmdline>  (381) 
J2VwaWtfcHl0aG9uJywgJy1waHQnLCAnMi4wJywgJy1waCcsICc3LjAnLCAnLXRuJywgJzgnLCAnLW1hJywgJzIwMCcsICctaW1hZScsICc8aW5maWxlLm1hZT4nLCAnLW9tYWUnLCAnPG91dGZpbGUubWFlPic=

>  <r_epik_Ionization_Penalty>  (381) 
2.10159

>  <r_epik_Ionization_Penalty_Charging>  (381) 
0

>  <r_epik_Ionization_Penalty_Neutral>  (381) 
2.10159

>  <r_epik_State_Penalty>  (381) 
2.23781

>  <r_epik_Charging_Adjusted_Penalty>  (381) 
2.23781

>  <i_epik_Tot_Q>  (381) 
0

>  <i_epik_Tot_abs_Q>  (381) 
0

>  <s_epik_Chemistry_Notes>  (381) 
This compound contains an acetal/aminal-like group ( X-CH(R)-Y where X, Y are N, S, or O) that may be acid/base labile, releasing an aldehyde.

>  <s_lp_Force_Field>  (381) 
OPLS3e

>  <r_lp_Energy>  (381) 
130.491

>  <b_lp_Chiralities_Consistent>  (381) 
1

>  <s_lp_Variant>  (381) 
97:0-2

>  <s_i_glide_gridfile>  (381) 
pfpi4k_grid

>  <i_i_glide_lignum>  (381) 
24

>  <i_i_glide_rotatable_bonds>  (381) 
4

>  <r_i_docking_score>  (381) 
-2.74065

>  <r_i_glide_ligand_efficiency>  (381) 
-0.109626

>  <r_i_glide_ligand_efficiency_sa>  (381) 
-0.320549

>  <r_i_glide_ligand_efficiency_ln>  (381) 
-0.649617

>  <r_i_glide_gscore>  (381) 
-2.74065

>  <r_i_glide_lipo>  (381) 
-0.311123

>  <r_i_glide_hbond>  (381) 
-0.0593016

>  <r_i_glide_metal>  (381) 
-0

>  <r_i_glide_rewards>  (381) 
-1.02638

>  <r_i_glide_evdw>  (381) 
-18.871

>  <r_i_glide_ecoul>  (381) 
-4.71432

>  <r_i_glide_erotb>  (381) 
0.311959

>  <r_i_glide_esite>  (381) 
-0.00511455

>  <r_i_glide_emodel>  (381) 
-26.6497

>  <r_i_glide_energy>  (381) 
-23.5853

>  <r_i_glide_einternal>  (381) 
2.76625

>  <r_i_glide_intrahb_reward>  (381) 
-0

>  <i_i_glide_confnum>  (381) 
3

>  <i_i_glide_posenum>  (381) 
27

>  <r_i_glide_eff_state_penalty>  (381) 
0

>  <ligand_id>  (381) 
97

>  <original_smiles>  (381) 
CC1OC(C)C(CN2CCC34C5CCC6C(C2C3(O)CCC5O)C64)O1

>  <smiles>  (381) 
[H]OC1([H])C([H])([H])C([H])([H])C2(O[H])C3([H])N(C([H])([H])C4([H])OC([H])(C([H])([H])[H])OC4([H])C([H])([H])[H])C([H])([H])C([H])([H])C24C1([H])C([H])([H])C([H])([H])C1([H])C3([H])C14[H]

$$$$
98:0:0
     RDKit          3D

 26 31  0  0  1  0  0  0  0  0999 V2000
    3.0344   -1.6258    0.0028 N   0  0  0  0  0  0  0  0  0  0  0  0
    4.0837   -2.4403   -0.6451 C   0  0  1  0  0  0  0  0  0  0  0  0
    3.7176   -3.2477   -1.9139 C   0  0  2  0  0  0  0  0  0  0  0  0
    4.6251   -2.6427   -3.5031 C   0  0  2  0  0  0  0  0  0  0  0  0
    4.9592   -3.0876   -2.4798 C   0  0  1  0  0  0  0  0  0  0  0  0
    4.9758   -1.7761   -1.5731 C   0  0  1  0  0  0  0  0  0  0  0  0
    4.2607   -0.6619   -2.3743 C   0  0  1  0  0  0  0  0  0  0  0  0
    4.3919   -1.1748   -3.7047 C   0  0  2  0  0  0  0  0  0  0  0  0
    3.0144   -0.9020   -3.2974 C   0  0  1  0  0  0  0  0  0  0  0  0
    2.2513   -2.2506   -3.3774 C   0  0  2  0  0  0  0  0  0  0  0  0
    2.3600   -3.1824   -2.2700 C   0  0  2  0  0  0  0  0  0  0  0  0
    3.3600   -3.4395   -3.2177 C   0  0  2  0  0  0  0  0  0  0  0  0
    2.4441   -1.1056   -0.6559 H   0  0  0  0  0  0  0  0  0  0  0  0
    3.4597   -0.9955    0.6636 H   0  0  0  0  0  0  0  0  0  0  0  0
    4.6447   -3.0469    0.0720 H   0  0  0  0  0  0  0  0  0  0  0  0
    3.7518   -4.2968   -1.3832 H   0  0  0  0  0  0  0  0  0  0  0  0
    5.1550   -3.1949   -4.3190 H   0  0  0  0  0  0  0  0  0  0  0  0
    5.8136   -3.7768   -2.5836 H   0  0  0  0  0  0  0  0  0  0  0  0
    5.9457   -1.4790   -1.1855 H   0  0  0  0  0  0  0  0  0  0  0  0
    4.5909    0.3575   -2.2399 H   0  0  0  0  0  0  0  0  0  0  0  0
    4.8414   -0.6267   -4.5212 H   0  0  0  0  0  0  0  0  0  0  0  0
    2.5471    0.0026   -3.6779 H   0  0  0  0  0  0  0  0  0  0  0  0
    1.4543   -2.4093   -4.0999 H   0  0  0  0  0  0  0  0  0  0  0  0
    1.6912   -4.0234   -2.1404 H   0  0  0  0  0  0  0  0  0  0  0  0
    3.2273   -4.2779   -3.9336 H   0  0  0  0  0  0  0  0  0  0  0  0
    2.3943   -2.2331    0.4844 H   0  0  0  0  0  0  0  0  0  0  0  0
  1  2  1  0
  1 13  1  0
  1 14  1  0
  1 26  1  0
  2  6  1  0
  2  3  1  0
  2 15  1  1
  3 11  1  0
  3  4  1  0
  3 16  1  1
  4  8  1  0
  4  5  1  0
  4 17  1  6
  5 12  1  0
  5  6  1  0
  5 18  1  6
  6  7  1  0
  6 19  1  1
  7  9  1  0
  7  8  1  0
  7 20  1  6
  8  9  1  0
  8 21  1  6
  9 10  1  0
  9 22  1  6
 10 12  1  0
 10 11  1  0
 10 23  1  6
 11 12  1  0
 11 24  1  1
 12 25  1  6
M  CHG  1   1   1
M  END
>  <i_m_ct_stereo_status>  (382) 
1

>  <s_m_source_file>  (382) 
/var/tmp/pbs.5076255.sched01/tmp6w_bron9/120d4r_aq7a.sdf

>  <i_m_source_file_index>  (382) 
25

>  <i_lp_mmshare_version>  (382) 
48012

>  <i_f3d_flags>  (382) 
0

>  <s_epik_input>  (382) 
W0NIXTEyW0NAQEhdM1tDQEhdNFtDQEhdKFtDQEBIXTFbTkgyXSlbQ0BIXTVbQ0BASF0zW0NASF01W0NAQEhdNltDQEhdMltDQEhdNDY=

>  <s_epik_cmdline>  (382) 
J2VwaWtfcHl0aG9uJywgJy1waHQnLCAnMi4wJywgJy1waCcsICc3LjAnLCAnLXRuJywgJzgnLCAnLW1hJywgJzIwMCcsICctaW1hZScsICc8aW5maWxlLm1hZT4nLCAnLW9tYWUnLCAnPG91dGZpbGUubWFlPic=

>  <r_lp_tautomer_probability>  (382) 
1

>  <r_epik_Ionization_Penalty>  (382) 
0.000137299

>  <r_epik_Ionization_Penalty_Charging>  (382) 
0.000137299

>  <r_epik_Ionization_Penalty_Neutral>  (382) 
0

>  <r_epik_State_Penalty>  (382) 
-0

>  <r_epik_Charging_Adjusted_Penalty>  (382) 
0.000137299

>  <i_epik_Tot_Q>  (382) 
1

>  <i_epik_Tot_abs_Q>  (382) 
1

>  <s_lp_Force_Field>  (382) 
OPLS3e

>  <r_lp_Energy>  (382) 
464.614

>  <b_lp_Chiralities_Consistent>  (382) 
1

>  <s_lp_Variant>  (382) 
98:0-1

>  <s_i_glide_gridfile>  (382) 
pfpi4k_grid

>  <i_i_glide_lignum>  (382) 
25

>  <i_i_glide_rotatable_bonds>  (382) 
0

>  <r_i_docking_score>  (382) 
-4.84379

>  <r_i_glide_ligand_efficiency>  (382) 
-0.403649

>  <r_i_glide_ligand_efficiency_sa>  (382) 
-0.924125

>  <r_i_glide_ligand_efficiency_ln>  (382) 
-1.38993

>  <r_i_glide_gscore>  (382) 
-4.84379

>  <r_i_glide_lipo>  (382) 
-0.849438

>  <r_i_glide_hbond>  (382) 
-0.127498

>  <r_i_glide_metal>  (382) 
-0

>  <r_i_glide_rewards>  (382) 
-2.25

>  <r_i_glide_evdw>  (382) 
-11.8843

>  <r_i_glide_ecoul>  (382) 
-6.15534

>  <r_i_glide_erotb>  (382) 
0

>  <r_i_glide_esite>  (382) 
-0.0993329

>  <r_i_glide_emodel>  (382) 
-25.3623

>  <r_i_glide_energy>  (382) 
-18.0397

>  <r_i_glide_einternal>  (382) 
0

>  <r_i_glide_intrahb_reward>  (382) 
-0

>  <i_i_glide_confnum>  (382) 
1

>  <i_i_glide_posenum>  (382) 
20

>  <r_i_glide_eff_state_penalty>  (382) 
0

>  <ligand_id>  (382) 
98

>  <original_smiles>  (382) 
NC1C2C3C4C1C1C3C1C1C2C41

>  <smiles>  (382) 
[H]C12C3([H])C4([H])C3([H])C3([H])C5([H])C1([H])C2([H])C([H])(C45[H])C3([H])[N+]([H])([H])[H]

$$$$
98:0:1
     RDKit          3D

 26 31  0  0  1  0  0  0  0  0999 V2000
    2.0686   -3.4494   -1.6118 N   0  0  0  0  0  0  0  0  0  0  0  0
    3.3936   -3.8569   -1.1023 C   0  0  1  0  0  0  0  0  0  0  0  0
    4.6128   -3.7316   -2.0447 C   0  0  2  0  0  0  0  0  0  0  0  0
    5.9026   -2.4295   -1.4225 C   0  0  2  0  0  0  0  0  0  0  0  0
    5.4647   -3.4344   -1.0116 C   0  0  1  0  0  0  0  0  0  0  0  0
    4.1316   -2.9224   -0.2941 C   0  0  1  0  0  0  0  0  0  0  0  0
    3.8900   -1.4634   -0.7366 C   0  0  1  0  0  0  0  0  0  0  0  0
    5.2223   -1.1092   -1.1366 C   0  0  2  0  0  0  0  0  0  0  0  0
    4.1935   -0.9376   -2.1944 C   0  0  1  0  0  0  0  0  0  0  0  0
    4.5906   -1.8650   -3.3760 C   0  0  2  0  0  0  0  0  0  0  0  0
    4.2750   -3.2851   -3.3274 C   0  0  2  0  0  0  0  0  0  0  0  0
    5.5420   -3.0624   -2.7630 C   0  0  2  0  0  0  0  0  0  0  0  0
    2.1084   -2.5217   -2.0187 H   0  0  0  0  0  0  0  0  0  0  0  0
    1.4469   -3.3875   -0.8284 H   0  0  0  0  0  0  0  0  0  0  0  0
    3.3421   -4.8428   -0.6302 H   0  0  0  0  0  0  0  0  0  0  0  0
    4.7434   -4.8926   -2.2437 H   0  0  0  0  0  0  0  0  0  0  0  0
    7.0055   -2.4666   -1.2742 H   0  0  0  0  0  0  0  0  0  0  0  0
    6.2200   -4.0798   -0.5144 H   0  0  0  0  0  0  0  0  0  0  0  0
    4.0829   -3.0700    0.7861 H   0  0  0  0  0  0  0  0  0  0  0  0
    3.3778   -0.7965   -0.0417 H   0  0  0  0  0  0  0  0  0  0  0  0
    5.7519   -0.2692   -0.6877 H   0  0  0  0  0  0  0  0  0  0  0  0
    3.8837    0.0809   -2.4266 H   0  0  0  0  0  0  0  0  0  0  0  0
    4.8805   -1.4249   -4.3239 H   0  0  0  0  0  0  0  0  0  0  0  0
    4.3016   -3.9362   -4.1975 H   0  0  0  0  0  0  0  0  0  0  0  0
    6.4132   -3.3915   -3.3734 H   0  0  0  0  0  0  0  0  0  0  0  0
    1.7298   -4.1131   -2.2947 H   0  0  0  0  0  0  0  0  0  0  0  0
  1  2  1  0
  1 13  1  0
  1 14  1  0
  1 26  1  0
  2  6  1  0
  2  3  1  0
  2 15  1  1
  3 11  1  0
  3  4  1  0
  3 16  1  6
  4  8  1  0
  4  5  1  0
  4 17  1  6
  5 12  1  0
  5  6  1  0
  5 18  1  6
  6  7  1  0
  6 19  1  1
  7  9  1  0
  7  8  1  0
  7 20  1  1
  8  9  1  0
  8 21  1  1
  9 10  1  0
  9 22  1  6
 10 12  1  0
 10 11  1  0
 10 23  1  6
 11 12  1  0
 11 24  1  6
 12 25  1  6
M  CHG  1   1   1
M  END
>  <i_m_ct_stereo_status>  (383) 
1

>  <s_m_source_file>  (383) 
/var/tmp/pbs.5076255.sched01/tmp6w_bron9/120d4r_aq7a.sdf

>  <i_m_source_file_index>  (383) 
25

>  <i_lp_mmshare_version>  (383) 
48012

>  <i_f3d_flags>  (383) 
0

>  <s_epik_input>  (383) 
W0NIXTEyW0NAQEhdM1tDQEhdNFtDQEhdKFtDQEBIXTFbTkgyXSlbQ0BIXTVbQ0BASF0zW0NASF01W0NAQEhdNltDQEhdMltDQEhdNDY=

>  <s_epik_cmdline>  (383) 
J2VwaWtfcHl0aG9uJywgJy1waHQnLCAnMi4wJywgJy1waCcsICc3LjAnLCAnLXRuJywgJzgnLCAnLW1hJywgJzIwMCcsICctaW1hZScsICc8aW5maWxlLm1hZT4nLCAnLW9tYWUnLCAnPG91dGZpbGUubWFlPic=

>  <r_lp_tautomer_probability>  (383) 
1

>  <r_epik_Ionization_Penalty>  (383) 
0.000137299

>  <r_epik_Ionization_Penalty_Charging>  (383) 
0.000137299

>  <r_epik_Ionization_Penalty_Neutral>  (383) 
0

>  <r_epik_State_Penalty>  (383) 
-0

>  <r_epik_Charging_Adjusted_Penalty>  (383) 
0.000137299

>  <i_epik_Tot_Q>  (383) 
1

>  <i_epik_Tot_abs_Q>  (383) 
1

>  <s_lp_Force_Field>  (383) 
OPLS3e

>  <r_lp_Energy>  (383) 
464.614

>  <b_lp_Chiralities_Consistent>  (383) 
1

>  <s_lp_Variant>  (383) 
98:0-1

>  <s_i_glide_gridfile>  (383) 
pfpi4k_grid

>  <i_i_glide_lignum>  (383) 
25

>  <i_i_glide_rotatable_bonds>  (383) 
0

>  <r_i_docking_score>  (383) 
-4.28651

>  <r_i_glide_ligand_efficiency>  (383) 
-0.357209

>  <r_i_glide_ligand_efficiency_sa>  (383) 
-0.817804

>  <r_i_glide_ligand_efficiency_ln>  (383) 
-1.23002

>  <r_i_glide_gscore>  (383) 
-4.28651

>  <r_i_glide_lipo>  (383) 
-0.488274

>  <r_i_glide_hbond>  (383) 
-0.00792625

>  <r_i_glide_metal>  (383) 
-0

>  <r_i_glide_rewards>  (383) 
-2.25

>  <r_i_glide_evdw>  (383) 
-15.6066

>  <r_i_glide_ecoul>  (383) 
-5.0665

>  <r_i_glide_erotb>  (383) 
0

>  <r_i_glide_esite>  (383) 
0

>  <r_i_glide_emodel>  (383) 
-27.2204

>  <r_i_glide_energy>  (383) 
-20.6731

>  <r_i_glide_einternal>  (383) 
0

>  <r_i_glide_intrahb_reward>  (383) 
-0

>  <i_i_glide_confnum>  (383) 
2

>  <i_i_glide_posenum>  (383) 
36

>  <r_i_glide_eff_state_penalty>  (383) 
0

>  <ligand_id>  (383) 
98

>  <original_smiles>  (383) 
NC1C2C3C4C1C1C3C1C1C2C41

>  <smiles>  (383) 
[H]C12C3([H])C4([H])C3([H])C3([H])C5([H])C1([H])C2([H])C([H])(C45[H])C3([H])[N+]([H])([H])[H]

$$$$
98:0:2
     RDKit          3D

 26 31  0  0  1  0  0  0  0  0999 V2000
    3.0274   -0.7003    0.4791 N   0  0  0  0  0  0  0  0  0  0  0  0
    4.4070   -1.0430    0.0450 C   0  0  1  0  0  0  0  0  0  0  0  0
    4.8248   -2.5348   -0.0114 C   0  0  2  0  0  0  0  0  0  0  0  0
    5.1693   -3.1634   -1.8171 C   0  0  2  0  0  0  0  0  0  0  0  0
    5.6368   -2.3611   -1.1043 C   0  0  1  0  0  0  0  0  0  0  0  0
    4.6689   -1.1207   -1.3818 C   0  0  1  0  0  0  0  0  0  0  0  0
    3.4489   -1.6366   -2.1744 C   0  0  1  0  0  0  0  0  0  0  0  0
    4.0055   -2.8372   -2.7272 C   0  0  2  0  0  0  0  0  0  0  0  0
    2.7798   -3.0416   -1.9135 C   0  0  1  0  0  0  0  0  0  0  0  0
    3.1672   -3.9597   -0.7124 C   0  0  2  0  0  0  0  0  0  0  0  0
    3.8319   -3.4037    0.4551 C   0  0  2  0  0  0  0  0  0  0  0  0
    4.7931   -3.8137   -0.4842 C   0  0  2  0  0  0  0  0  0  0  0  0
    2.3131   -1.2092   -0.0421 H   0  0  0  0  0  0  0  0  0  0  0  0
    2.8624    0.2729    0.2832 H   0  0  0  0  0  0  0  0  0  0  0  0
    5.1526   -0.4283    0.5554 H   0  0  0  0  0  0  0  0  0  0  0  0
    5.5358   -2.5005    0.9308 H   0  0  0  0  0  0  0  0  0  0  0  0
    6.0114   -3.7263   -2.2834 H   0  0  0  0  0  0  0  0  0  0  0  0
    6.7463   -2.3043   -1.1797 H   0  0  0  0  0  0  0  0  0  0  0  0
    5.1428   -0.2518   -1.8348 H   0  0  0  0  0  0  0  0  0  0  0  0
    2.9510   -0.9480   -2.8560 H   0  0  0  0  0  0  0  0  0  0  0  0
    4.0313   -3.0448   -3.7978 H   0  0  0  0  0  0  0  0  0  0  0  0
    1.8497   -3.2462   -2.4430 H   0  0  0  0  0  0  0  0  0  0  0  0
    2.7501   -4.9620   -0.6502 H   0  0  0  0  0  0  0  0  0  0  0  0
    3.9130   -3.9292    1.4059 H   0  0  0  0  0  0  0  0  0  0  0  0
    5.3628   -4.7437   -0.2478 H   0  0  0  0  0  0  0  0  0  0  0  0
    2.9188   -0.8600    1.4687 H   0  0  0  0  0  0  0  0  0  0  0  0
  1  2  1  0
  1 13  1  0
  1 14  1  0
  1 26  1  0
  2  6  1  0
  2  3  1  0
  2 15  1  1
  3 11  1  0
  3  4  1  0
  3 16  1  1
  4  8  1  0
  4  5  1  0
  4 17  1  1
  5 12  1  0
  5  6  1  0
  5 18  1  6
  6  7  1  0
  6 19  1  6
  7  9  1  0
  7  8  1  0
  7 20  1  6
  8  9  1  0
  8 21  1  6
  9 10  1  0
  9 22  1  6
 10 12  1  0
 10 11  1  0
 10 23  1  1
 11 12  1  0
 11 24  1  1
 12 25  1  1
M  CHG  1   1   1
M  END
>  <i_m_ct_stereo_status>  (384) 
1

>  <s_m_source_file>  (384) 
/var/tmp/pbs.5076255.sched01/tmp6w_bron9/120d4r_aq7a.sdf

>  <i_m_source_file_index>  (384) 
25

>  <i_lp_mmshare_version>  (384) 
48012

>  <i_f3d_flags>  (384) 
0

>  <s_epik_input>  (384) 
W0NIXTEyW0NAQEhdM1tDQEhdNFtDQEhdKFtDQEBIXTFbTkgyXSlbQ0BIXTVbQ0BASF0zW0NASF01W0NAQEhdNltDQEhdMltDQEhdNDY=

>  <s_epik_cmdline>  (384) 
J2VwaWtfcHl0aG9uJywgJy1waHQnLCAnMi4wJywgJy1waCcsICc3LjAnLCAnLXRuJywgJzgnLCAnLW1hJywgJzIwMCcsICctaW1hZScsICc8aW5maWxlLm1hZT4nLCAnLW9tYWUnLCAnPG91dGZpbGUubWFlPic=

>  <r_lp_tautomer_probability>  (384) 
1

>  <r_epik_Ionization_Penalty>  (384) 
0.000137299

>  <r_epik_Ionization_Penalty_Charging>  (384) 
0.000137299

>  <r_epik_Ionization_Penalty_Neutral>  (384) 
0

>  <r_epik_State_Penalty>  (384) 
-0

>  <r_epik_Charging_Adjusted_Penalty>  (384) 
0.000137299

>  <i_epik_Tot_Q>  (384) 
1

>  <i_epik_Tot_abs_Q>  (384) 
1

>  <s_lp_Force_Field>  (384) 
OPLS3e

>  <r_lp_Energy>  (384) 
464.614

>  <b_lp_Chiralities_Consistent>  (384) 
1

>  <s_lp_Variant>  (384) 
98:0-1

>  <s_i_glide_gridfile>  (384) 
pfpi4k_grid

>  <i_i_glide_lignum>  (384) 
25

>  <i_i_glide_rotatable_bonds>  (384) 
0

>  <r_i_docking_score>  (384) 
-4.08707

>  <r_i_glide_ligand_efficiency>  (384) 
-0.34059

>  <r_i_glide_ligand_efficiency_sa>  (384) 
-0.779755

>  <r_i_glide_ligand_efficiency_ln>  (384) 
-1.17279

>  <r_i_glide_gscore>  (384) 
-4.08707

>  <r_i_glide_lipo>  (384) 
-0.140112

>  <r_i_glide_hbond>  (384) 
-0.165873

>  <r_i_glide_metal>  (384) 
-0

>  <r_i_glide_rewards>  (384) 
-2.25

>  <r_i_glide_evdw>  (384) 
-15.8049

>  <r_i_glide_ecoul>  (384) 
-4.39029

>  <r_i_glide_erotb>  (384) 
0

>  <r_i_glide_esite>  (384) 
-0.0823048

>  <r_i_glide_emodel>  (384) 
-26.4475

>  <r_i_glide_energy>  (384) 
-20.1951

>  <r_i_glide_einternal>  (384) 
0

>  <r_i_glide_intrahb_reward>  (384) 
-0

>  <i_i_glide_confnum>  (384) 
2

>  <i_i_glide_posenum>  (384) 
32

>  <r_i_glide_eff_state_penalty>  (384) 
0

>  <ligand_id>  (384) 
98

>  <original_smiles>  (384) 
NC1C2C3C4C1C1C3C1C1C2C41

>  <smiles>  (384) 
[H]C12C3([H])C4([H])C3([H])C3([H])C5([H])C1([H])C2([H])C([H])(C45[H])C3([H])[N+]([H])([H])[H]

$$$$
100:0:0
     RDKit          3D

 43 46  0  0  1  0  0  0  0  0999 V2000
   -6.6156   -4.6731   -3.9554 C   0  0  0  0  0  0  0  0  0  0  0  0
   -7.6263   -4.7516   -5.0714 C   0  0  0  0  0  0  0  0  0  0  0  0
   -8.7468   -4.1011   -5.1544 N   0  0  0  0  0  0  0  0  0  0  0  0
   -9.4962   -4.4770   -6.2668 N   0  0  0  0  0  0  0  0  0  0  0  0
   -8.9178   -5.3650   -6.9900 C   0  0  0  0  0  0  0  0  0  0  0  0
   -9.4604   -6.0276   -8.1356 N   0  0  0  0  0  0  0  0  0  0  0  0
  -10.8994   -6.2402   -8.2789 C   0  0  0  0  0  0  0  0  0  0  0  0
  -11.3921   -7.7098   -8.2982 C   0  0  0  0  0  0  0  0  0  0  0  0
  -10.8239   -8.6427   -9.3840 C   0  0  2  0  0  0  0  0  0  0  0  0
   -9.9722   -9.8386   -8.8642 C   0  0  0  0  0  0  0  0  0  0  0  0
   -8.5410   -9.4924   -8.5811 N   0  0  2  0  0  0  0  0  0  0  0  0
   -8.2733   -8.9855   -7.1939 C   0  0  0  0  0  0  0  0  0  0  0  0
   -6.8026   -9.2263   -6.7835 C   0  0  0  0  0  0  0  0  0  0  0  0
   -6.2100   -8.4427   -5.6375 C   0  0  0  0  0  0  0  0  0  0  0  0
   -5.7531   -8.1796   -7.0709 C   0  0  0  0  0  0  0  0  0  0  0  0
   -7.9435   -8.6747   -9.6883 C   0  0  0  0  0  0  0  0  0  0  0  0
   -8.8549   -7.5176  -10.1813 C   0  0  2  0  0  0  0  0  0  0  0  0
   -8.7601   -6.1706   -9.4018 C   0  0  0  0  0  0  0  0  0  0  0  0
  -10.1738   -7.9668  -10.4525 O   0  0  0  0  0  0  0  0  0  0  0  0
   -7.3671   -5.6906   -6.4464 S   0  0  0  0  0  0  0  0  0  0  0  0
   -6.8445   -3.8560   -3.2588 H   0  0  0  0  0  0  0  0  0  0  0  0
   -5.6168   -4.4948   -4.3507 H   0  0  0  0  0  0  0  0  0  0  0  0
   -6.5431   -5.5978   -3.3697 H   0  0  0  0  0  0  0  0  0  0  0  0
  -11.3911   -5.7721   -7.4374 H   0  0  0  0  0  0  0  0  0  0  0  0
  -11.2771   -5.7153   -9.1673 H   0  0  0  0  0  0  0  0  0  0  0  0
  -11.3235   -8.1712   -7.3137 H   0  0  0  0  0  0  0  0  0  0  0  0
  -12.4672   -7.6512   -8.4671 H   0  0  0  0  0  0  0  0  0  0  0  0
  -11.6892   -9.1098   -9.8562 H   0  0  0  0  0  0  0  0  0  0  0  0
  -10.4290  -10.3024   -7.9800 H   0  0  0  0  0  0  0  0  0  0  0  0
   -9.9447  -10.6263   -9.6347 H   0  0  0  0  0  0  0  0  0  0  0  0
   -8.5455   -7.9328   -7.1336 H   0  0  0  0  0  0  0  0  0  0  0  0
   -8.9333   -9.5216   -6.4862 H   0  0  0  0  0  0  0  0  0  0  0  0
   -6.4853  -10.2723   -6.8827 H   0  0  0  0  0  0  0  0  0  0  0  0
   -6.9087   -7.7841   -5.1109 H   0  0  0  0  0  0  0  0  0  0  0  0
   -5.4626   -8.9215   -5.0143 H   0  0  0  0  0  0  0  0  0  0  0  0
   -4.7516   -8.4903   -7.3376 H   0  0  0  0  0  0  0  0  0  0  0  0
   -6.1120   -7.3553   -7.6774 H   0  0  0  0  0  0  0  0  0  0  0  0
   -6.9519   -8.3048   -9.4154 H   0  0  0  0  0  0  0  0  0  0  0  0
   -7.7649   -9.3818  -10.5133 H   0  0  0  0  0  0  0  0  0  0  0  0
   -8.4591   -7.2956  -11.1808 H   0  0  0  0  0  0  0  0  0  0  0  0
   -9.1081   -5.3963  -10.0851 H   0  0  0  0  0  0  0  0  0  0  0  0
   -7.6983   -5.9697   -9.2836 H   0  0  0  0  0  0  0  0  0  0  0  0
   -8.0427  -10.3802   -8.6042 H   0  0  0  0  0  0  0  0  0  0  0  0
  1  2  1  0
  1 21  1  0
  1 22  1  0
  1 23  1  0
  2 20  1  0
  2  3  2  0
  3  4  1  0
  4  5  2  0
  5  6  1  0
  5 20  1  0
  6 18  1  0
  6  7  1  0
  7  8  1  0
  7 24  1  0
  7 25  1  0
  8  9  1  0
  8 26  1  0
  8 27  1  0
  9 19  1  0
  9 10  1  0
  9 28  1  6
 10 11  1  0
 10 29  1  0
 10 30  1  0
 11 12  1  0
 11 16  1  0
 11 43  1  1
 12 13  1  0
 12 31  1  0
 12 32  1  0
 13 15  1  0
 13 14  1  0
 13 33  1  0
 14 15  1  0
 14 34  1  0
 14 35  1  0
 15 36  1  0
 15 37  1  0
 16 17  1  0
 16 38  1  0
 16 39  1  0
 17 18  1  0
 17 19  1  0
 17 40  1  6
 18 41  1  0
 18 42  1  0
M  CHG  1  11   1
M  END
>  <i_m_ct_stereo_status>  (385) 
1

>  <s_m_source_file>  (385) 
/var/tmp/pbs.5076255.sched01/tmp6w_bron9/120d4r_aq7a.sdf

>  <i_m_source_file_index>  (385) 
27

>  <i_lp_mmshare_version>  (385) 
48012

>  <i_f3d_flags>  (385) 
0

>  <s_epik_input>  (385) 
W0NIM11jMW5uYyhzMSlOKFtDSDJdW0NIMl1bQ0BIXTIzKVtDSDJdW0NASF0oTzMpW0NIMl1OKFtDSDJdMilbQ0gyXVtDSF00W0NIMl1bQ0gyXTQ=

>  <s_epik_cmdline>  (385) 
J2VwaWtfcHl0aG9uJywgJy1waHQnLCAnMi4wJywgJy1waCcsICc3LjAnLCAnLXRuJywgJzgnLCAnLW1hJywgJzIwMCcsICctaW1hZScsICc8aW5maWxlLm1hZT4nLCAnLW9tYWUnLCAnPG91dGZpbGUubWFlPic=

>  <r_lp_tautomer_probability>  (385) 
1

>  <r_epik_Ionization_Penalty>  (385) 
0.0965101

>  <r_epik_Ionization_Penalty_Charging>  (385) 
0.0964037

>  <r_epik_Ionization_Penalty_Neutral>  (385) 
0.00010646

>  <r_epik_State_Penalty>  (385) 
0.0865564

>  <r_epik_Charging_Adjusted_Penalty>  (385) 
0.18296

>  <i_epik_Tot_Q>  (385) 
1

>  <i_epik_Tot_abs_Q>  (385) 
1

>  <s_lp_Force_Field>  (385) 
OPLS3e

>  <r_lp_Energy>  (385) 
40.4568

>  <b_lp_Chiralities_Consistent>  (385) 
1

>  <s_lp_Variant>  (385) 
100:0-1

>  <s_i_glide_gridfile>  (385) 
pfpi4k_grid

>  <i_i_glide_lignum>  (385) 
27

>  <i_i_glide_rotatable_bonds>  (385) 
3

>  <r_i_docking_score>  (385) 
-4.55947

>  <r_i_glide_ligand_efficiency>  (385) 
-0.227974

>  <r_i_glide_ligand_efficiency_sa>  (385) 
-0.618816

>  <r_i_glide_ligand_efficiency_ln>  (385) 
-1.14109

>  <r_i_glide_gscore>  (385) 
-4.55947

>  <r_i_glide_lipo>  (385) 
-2.26451

>  <r_i_glide_hbond>  (385) 
0

>  <r_i_glide_metal>  (385) 
-0

>  <r_i_glide_rewards>  (385) 
-1.75029

>  <r_i_glide_evdw>  (385) 
-26.8247

>  <r_i_glide_ecoul>  (385) 
-2.33496

>  <r_i_glide_erotb>  (385) 
0.629183

>  <r_i_glide_esite>  (385) 
0

>  <r_i_glide_emodel>  (385) 
-31.2153

>  <r_i_glide_energy>  (385) 
-29.1597

>  <r_i_glide_einternal>  (385) 
4.53159

>  <r_i_glide_intrahb_reward>  (385) 
-0

>  <i_i_glide_confnum>  (385) 
6

>  <i_i_glide_posenum>  (385) 
5

>  <r_i_glide_eff_state_penalty>  (385) 
0

>  <ligand_id>  (385) 
100

>  <original_smiles>  (385) 
Cc1nnc(N2CCC3CN(CC4CC4)CC(C2)O3)s1

>  <smiles>  (385) 
[H]C([H])([H])c1nnc(N2C([H])([H])C([H])([H])C3([H])OC([H])(C2([H])[H])C([H])([H])[N+]([H])(C([H])([H])C2([H])C([H])([H])C2([H])[H])C3([H])[H])s1

$$$$
100:0:1
     RDKit          3D

 43 46  0  0  1  0  0  0  0  0999 V2000
   -2.5400    3.1104    9.0317 C   0  0  0  0  0  0  0  0  0  0  0  0
   -1.8982    2.2664    7.9781 C   0  0  0  0  0  0  0  0  0  0  0  0
   -2.5808    1.3552    7.2763 N   0  0  0  0  0  0  0  0  0  0  0  0
   -1.7887    0.6667    6.3813 N   0  0  0  0  0  0  0  0  0  0  0  0
   -0.5055    1.0519    6.4367 C   0  0  0  0  0  0  0  0  0  0  0  0
    0.5001    0.4587    5.6702 N   0  0  0  0  0  0  0  0  0  0  0  0
    1.9196    0.5019    6.0279 C   0  0  0  0  0  0  0  0  0  0  0  0
    2.7935    1.4085    5.1449 C   0  0  0  0  0  0  0  0  0  0  0  0
    2.8785    1.0890    3.6414 C   0  0  2  0  0  0  0  0  0  0  0  0
    2.3480    2.1857    2.6839 C   0  0  0  0  0  0  0  0  0  0  0  0
    0.8821    2.1740    2.4847 N   0  0  2  0  0  0  0  0  0  0  0  0
    0.1174    2.9765    3.4657 C   0  0  0  0  0  0  0  0  0  0  0  0
   -1.2229    3.4411    2.9258 C   0  0  0  0  0  0  0  0  0  0  0  0
   -1.5716    4.9109    2.9468 C   0  0  0  0  0  0  0  0  0  0  0  0
   -2.2655    3.9660    3.8834 C   0  0  0  0  0  0  0  0  0  0  0  0
    0.3712    0.8013    2.2615 C   0  0  0  0  0  0  0  0  0  0  0  0
    0.9684   -0.2546    3.2267 C   0  0  2  0  0  0  0  0  0  0  0  0
    0.2541   -0.5001    4.5816 C   0  0  0  0  0  0  0  0  0  0  0  0
    2.3812   -0.1985    3.3218 O   0  0  0  0  0  0  0  0  0  0  0  0
   -0.1885    2.3685    7.5753 S   0  0  0  0  0  0  0  0  0  0  0  0
   -3.6037    2.8868    9.1086 H   0  0  0  0  0  0  0  0  0  0  0  0
   -2.4160    4.1645    8.7843 H   0  0  0  0  0  0  0  0  0  0  0  0
   -2.0718    2.9114    9.9967 H   0  0  0  0  0  0  0  0  0  0  0  0
    1.9967    0.8834    7.0440 H   0  0  0  0  0  0  0  0  0  0  0  0
    2.3218   -0.5091    6.0664 H   0  0  0  0  0  0  0  0  0  0  0  0
    2.5649    2.4627    5.2914 H   0  0  0  0  0  0  0  0  0  0  0  0
    3.8025    1.2896    5.5412 H   0  0  0  0  0  0  0  0  0  0  0  0
    3.9454    1.0281    3.4253 H   0  0  0  0  0  0  0  0  0  0  0  0
    2.7064    3.1701    2.9920 H   0  0  0  0  0  0  0  0  0  0  0  0
    2.7894    1.9880    1.7083 H   0  0  0  0  0  0  0  0  0  0  0  0
   -0.0905    2.4249    4.3639 H   0  0  0  0  0  0  0  0  0  0  0  0
    0.6993    3.8576    3.7620 H   0  0  0  0  0  0  0  0  0  0  0  0
   -1.6342    2.8414    2.1063 H   0  0  0  0  0  0  0  0  0  0  0  0
   -0.8102    5.5852    3.3422 H   0  0  0  0  0  0  0  0  0  0  0  0
   -2.1119    5.2762    2.0812 H   0  0  0  0  0  0  0  0  0  0  0  0
   -3.2981    3.7090    3.6618 H   0  0  0  0  0  0  0  0  0  0  0  0
   -2.0157    4.0254    4.9435 H   0  0  0  0  0  0  0  0  0  0  0  0
   -0.7155    0.7453    2.2707 H   0  0  0  0  0  0  0  0  0  0  0  0
    0.6730    0.5275    1.2479 H   0  0  0  0  0  0  0  0  0  0  0  0
    0.8096   -1.1916    2.6956 H   0  0  0  0  0  0  0  0  0  0  0  0
    0.5107   -1.4984    4.9450 H   0  0  0  0  0  0  0  0  0  0  0  0
   -0.8166   -0.5371    4.3714 H   0  0  0  0  0  0  0  0  0  0  0  0
    0.7280    2.7026    1.6240 H   0  0  0  0  0  0  0  0  0  0  0  0
  1  2  1  0
  1 21  1  0
  1 22  1  0
  1 23  1  0
  2 20  1  0
  2  3  2  0
  3  4  1  0
  4  5  2  0
  5  6  1  0
  5 20  1  0
  6 18  1  0
  6  7  1  0
  7  8  1  0
  7 24  1  0
  7 25  1  0
  8  9  1  0
  8 26  1  0
  8 27  1  0
  9 19  1  0
  9 10  1  0
  9 28  1  6
 10 11  1  0
 10 29  1  0
 10 30  1  0
 11 12  1  0
 11 16  1  0
 11 43  1  6
 12 13  1  0
 12 31  1  0
 12 32  1  0
 13 15  1  0
 13 14  1  0
 13 33  1  0
 14 15  1  0
 14 34  1  0
 14 35  1  0
 15 36  1  0
 15 37  1  0
 16 17  1  0
 16 38  1  0
 16 39  1  0
 17 18  1  0
 17 19  1  0
 17 40  1  6
 18 41  1  0
 18 42  1  0
M  CHG  1  11   1
M  END
>  <i_m_ct_stereo_status>  (386) 
1

>  <s_m_source_file>  (386) 
/var/tmp/pbs.5076255.sched01/tmp6w_bron9/120d4r_aq7a.sdf

>  <i_m_source_file_index>  (386) 
27

>  <i_lp_mmshare_version>  (386) 
48012

>  <i_f3d_flags>  (386) 
0

>  <s_epik_input>  (386) 
W0NIM11jMW5uYyhzMSlOKFtDSDJdW0NIMl1bQ0BIXTIzKVtDSDJdW0NASF0oTzMpW0NIMl1OKFtDSDJdMilbQ0gyXVtDSF00W0NIMl1bQ0gyXTQ=

>  <s_epik_cmdline>  (386) 
J2VwaWtfcHl0aG9uJywgJy1waHQnLCAnMi4wJywgJy1waCcsICc3LjAnLCAnLXRuJywgJzgnLCAnLW1hJywgJzIwMCcsICctaW1hZScsICc8aW5maWxlLm1hZT4nLCAnLW9tYWUnLCAnPG91dGZpbGUubWFlPic=

>  <r_lp_tautomer_probability>  (386) 
1

>  <r_epik_Ionization_Penalty>  (386) 
0.0965101

>  <r_epik_Ionization_Penalty_Charging>  (386) 
0.0964037

>  <r_epik_Ionization_Penalty_Neutral>  (386) 
0.00010646

>  <r_epik_State_Penalty>  (386) 
0.0865564

>  <r_epik_Charging_Adjusted_Penalty>  (386) 
0.18296

>  <i_epik_Tot_Q>  (386) 
1

>  <i_epik_Tot_abs_Q>  (386) 
1

>  <s_lp_Force_Field>  (386) 
OPLS3e

>  <r_lp_Energy>  (386) 
40.4568

>  <b_lp_Chiralities_Consistent>  (386) 
1

>  <s_lp_Variant>  (386) 
100:0-1

>  <s_i_glide_gridfile>  (386) 
pfpi4k_grid

>  <i_i_glide_lignum>  (386) 
27

>  <i_i_glide_rotatable_bonds>  (386) 
3

>  <r_i_docking_score>  (386) 
-3.24745

>  <r_i_glide_ligand_efficiency>  (386) 
-0.162372

>  <r_i_glide_ligand_efficiency_sa>  (386) 
-0.440747

>  <r_i_glide_ligand_efficiency_ln>  (386) 
-0.81273

>  <r_i_glide_gscore>  (386) 
-3.24745

>  <r_i_glide_lipo>  (386) 
0

>  <r_i_glide_hbond>  (386) 
-0.199849

>  <r_i_glide_metal>  (386) 
-0

>  <r_i_glide_rewards>  (386) 
-1.39483

>  <r_i_glide_evdw>  (386) 
-16.8569

>  <r_i_glide_ecoul>  (386) 
-7.87273

>  <r_i_glide_erotb>  (386) 
0.629183

>  <r_i_glide_esite>  (386) 
-0.258195

>  <r_i_glide_emodel>  (386) 
-29.5937

>  <r_i_glide_energy>  (386) 
-24.7297

>  <r_i_glide_einternal>  (386) 
1.5377

>  <r_i_glide_intrahb_reward>  (386) 
-0

>  <i_i_glide_confnum>  (386) 
6

>  <i_i_glide_posenum>  (386) 
4

>  <r_i_glide_eff_state_penalty>  (386) 
0

>  <ligand_id>  (386) 
100

>  <original_smiles>  (386) 
Cc1nnc(N2CCC3CN(CC4CC4)CC(C2)O3)s1

>  <smiles>  (386) 
[H]C([H])([H])c1nnc(N2C([H])([H])C([H])([H])C3([H])OC([H])(C2([H])[H])C([H])([H])[N+]([H])(C([H])([H])C2([H])C([H])([H])C2([H])[H])C3([H])[H])s1

$$$$
100:0:2
     RDKit          3D

 43 46  0  0  1  0  0  0  0  0999 V2000
    3.3736   -8.7572    1.2818 C   0  0  0  0  0  0  0  0  0  0  0  0
    3.6740   -7.2971    1.3333 C   0  0  0  0  0  0  0  0  0  0  0  0
    2.7381   -6.3608    1.5439 N   0  0  0  0  0  0  0  0  0  0  0  0
    3.2759   -5.0774    1.5761 N   0  0  0  0  0  0  0  0  0  0  0  0
    4.5989   -5.0751    1.3600 C   0  0  0  0  0  0  0  0  0  0  0  0
    5.3962   -3.9184    1.3456 N   0  0  0  0  0  0  0  0  0  0  0  0
    5.1042   -2.7332    2.1559 C   0  0  0  0  0  0  0  0  0  0  0  0
    4.6478   -1.4797    1.3855 C   0  0  0  0  0  0  0  0  0  0  0  0
    5.5881   -0.9151    0.3029 C   0  0  2  0  0  0  0  0  0  0  0  0
    5.0292   -0.9580   -1.1353 C   0  0  0  0  0  0  0  0  0  0  0  0
    5.1792   -2.2684   -1.8096 N   0  0  2  0  0  0  0  0  0  0  0  0
    4.0735   -3.2266   -1.5900 C   0  0  0  0  0  0  0  0  0  0  0  0
    2.7788   -2.7545   -2.2138 C   0  0  0  0  0  0  0  0  0  0  0  0
    1.5500   -3.6149   -2.0766 C   0  0  0  0  0  0  0  0  0  0  0  0
    2.2035   -3.4270   -3.4265 C   0  0  0  0  0  0  0  0  0  0  0  0
    6.5377   -2.8330   -1.6267 C   0  0  0  0  0  0  0  0  0  0  0  0
    7.0768   -2.7142   -0.1791 C   0  0  2  0  0  0  0  0  0  0  0  0
    6.7543   -3.8653    0.7977 C   0  0  0  0  0  0  0  0  0  0  0  0
    6.9143   -1.4176    0.3723 O   0  0  0  0  0  0  0  0  0  0  0  0
    5.3021   -6.6755    1.1143 S   0  0  0  0  0  0  0  0  0  0  0  0
    2.3088   -8.9354    1.4438 H   0  0  0  0  0  0  0  0  0  0  0  0
    3.9433   -9.2800    2.0499 H   0  0  0  0  0  0  0  0  0  0  0  0
    3.6628   -9.1620    0.3114 H   0  0  0  0  0  0  0  0  0  0  0  0
    4.3100   -2.9932    2.8573 H   0  0  0  0  0  0  0  0  0  0  0  0
    5.9660   -2.4815    2.7735 H   0  0  0  0  0  0  0  0  0  0  0  0
    3.6404   -1.6063    0.9902 H   0  0  0  0  0  0  0  0  0  0  0  0
    4.5344   -0.6978    2.1373 H   0  0  0  0  0  0  0  0  0  0  0  0
    5.6781    0.1474    0.5297 H   0  0  0  0  0  0  0  0  0  0  0  0
    4.0059   -0.5834   -1.1195 H   0  0  0  0  0  0  0  0  0  0  0  0
    5.5976   -0.2624   -1.7537 H   0  0  0  0  0  0  0  0  0  0  0  0
    4.3366   -4.2049   -2.0077 H   0  0  0  0  0  0  0  0  0  0  0  0
    3.8705   -3.3535   -0.5357 H   0  0  0  0  0  0  0  0  0  0  0  0
    2.5712   -1.6900   -2.1122 H   0  0  0  0  0  0  0  0  0  0  0  0
    1.6362   -4.5747   -1.5642 H   0  0  0  0  0  0  0  0  0  0  0  0
    0.6167   -3.0906   -1.9120 H   0  0  0  0  0  0  0  0  0  0  0  0
    1.7083   -2.7790   -4.1397 H   0  0  0  0  0  0  0  0  0  0  0  0
    2.7606   -4.2553   -3.8660 H   0  0  0  0  0  0  0  0  0  0  0  0
    6.6065   -3.8569   -1.9937 H   0  0  0  0  0  0  0  0  0  0  0  0
    7.2096   -2.2582   -2.2690 H   0  0  0  0  0  0  0  0  0  0  0  0
    8.1577   -2.7852   -0.2933 H   0  0  0  0  0  0  0  0  0  0  0  0
    7.4662   -3.8586    1.6275 H   0  0  0  0  0  0  0  0  0  0  0  0
    6.9500   -4.7842    0.2465 H   0  0  0  0  0  0  0  0  0  0  0  0
    5.1113   -2.0707   -2.7993 H   0  0  0  0  0  0  0  0  0  0  0  0
  1  2  1  0
  1 21  1  0
  1 22  1  0
  1 23  1  0
  2 20  1  0
  2  3  2  0
  3  4  1  0
  4  5  2  0
  5  6  1  0
  5 20  1  0
  6 18  1  0
  6  7  1  0
  7  8  1  0
  7 24  1  0
  7 25  1  0
  8  9  1  0
  8 26  1  0
  8 27  1  0
  9 19  1  0
  9 10  1  0
  9 28  1  1
 10 11  1  0
 10 29  1  0
 10 30  1  0
 11 12  1  0
 11 16  1  0
 11 43  1  6
 12 13  1  0
 12 31  1  0
 12 32  1  0
 13 15  1  0
 13 14  1  0
 13 33  1  0
 14 15  1  0
 14 34  1  0
 14 35  1  0
 15 36  1  0
 15 37  1  0
 16 17  1  0
 16 38  1  0
 16 39  1  0
 17 18  1  0
 17 19  1  0
 17 40  1  6
 18 41  1  0
 18 42  1  0
M  CHG  1  11   1
M  END
>  <i_m_ct_stereo_status>  (387) 
1

>  <s_m_source_file>  (387) 
/var/tmp/pbs.5076255.sched01/tmp6w_bron9/120d4r_aq7a.sdf

>  <i_m_source_file_index>  (387) 
27

>  <i_lp_mmshare_version>  (387) 
48012

>  <i_f3d_flags>  (387) 
0

>  <s_epik_input>  (387) 
W0NIM11jMW5uYyhzMSlOKFtDSDJdW0NIMl1bQ0BIXTIzKVtDSDJdW0NASF0oTzMpW0NIMl1OKFtDSDJdMilbQ0gyXVtDSF00W0NIMl1bQ0gyXTQ=

>  <s_epik_cmdline>  (387) 
J2VwaWtfcHl0aG9uJywgJy1waHQnLCAnMi4wJywgJy1waCcsICc3LjAnLCAnLXRuJywgJzgnLCAnLW1hJywgJzIwMCcsICctaW1hZScsICc8aW5maWxlLm1hZT4nLCAnLW9tYWUnLCAnPG91dGZpbGUubWFlPic=

>  <r_lp_tautomer_probability>  (387) 
1

>  <r_epik_Ionization_Penalty>  (387) 
0.0965101

>  <r_epik_Ionization_Penalty_Charging>  (387) 
0.0964037

>  <r_epik_Ionization_Penalty_Neutral>  (387) 
0.00010646

>  <r_epik_State_Penalty>  (387) 
0.0865564

>  <r_epik_Charging_Adjusted_Penalty>  (387) 
0.18296

>  <i_epik_Tot_Q>  (387) 
1

>  <i_epik_Tot_abs_Q>  (387) 
1

>  <s_lp_Force_Field>  (387) 
OPLS3e

>  <r_lp_Energy>  (387) 
40.4568

>  <b_lp_Chiralities_Consistent>  (387) 
1

>  <s_lp_Variant>  (387) 
100:0-1

>  <s_i_glide_gridfile>  (387) 
pfpi4k_grid

>  <i_i_glide_lignum>  (387) 
27

>  <i_i_glide_rotatable_bonds>  (387) 
3

>  <r_i_docking_score>  (387) 
-3.0466

>  <r_i_glide_ligand_efficiency>  (387) 
-0.15233

>  <r_i_glide_ligand_efficiency_sa>  (387) 
-0.413487

>  <r_i_glide_ligand_efficiency_ln>  (387) 
-0.762463

>  <r_i_glide_gscore>  (387) 
-3.0466

>  <r_i_glide_lipo>  (387) 
-0.73697

>  <r_i_glide_hbond>  (387) 
-0.0181701

>  <r_i_glide_metal>  (387) 
-0

>  <r_i_glide_rewards>  (387) 
-1.4623

>  <r_i_glide_evdw>  (387) 
-22.9327

>  <r_i_glide_ecoul>  (387) 
-1.98844

>  <r_i_glide_erotb>  (387) 
0.629183

>  <r_i_glide_esite>  (387) 
-0.0134457

>  <r_i_glide_emodel>  (387) 
-29.9305

>  <r_i_glide_energy>  (387) 
-24.9211

>  <r_i_glide_einternal>  (387) 
1.40206

>  <r_i_glide_intrahb_reward>  (387) 
-0

>  <i_i_glide_confnum>  (387) 
3

>  <i_i_glide_posenum>  (387) 
20

>  <r_i_glide_eff_state_penalty>  (387) 
0

>  <ligand_id>  (387) 
100

>  <original_smiles>  (387) 
Cc1nnc(N2CCC3CN(CC4CC4)CC(C2)O3)s1

>  <smiles>  (387) 
[H]C([H])([H])c1nnc(N2C([H])([H])C([H])([H])C3([H])OC([H])(C2([H])[H])C([H])([H])[N+]([H])(C([H])([H])C2([H])C([H])([H])C2([H])[H])C3([H])[H])s1

$$$$
100:1:0
     RDKit          3D

 42 45  0  0  1  0  0  0  0  0999 V2000
   -0.9829   -9.0639    2.5434 C   0  0  0  0  0  0  0  0  0  0  0  0
    0.0521   -8.0750    2.1128 C   0  0  0  0  0  0  0  0  0  0  0  0
   -0.2162   -7.0042    1.3629 N   0  0  0  0  0  0  0  0  0  0  0  0
    0.9117   -6.2418    1.1231 N   0  0  0  0  0  0  0  0  0  0  0  0
    2.0167   -6.7496    1.6977 C   0  0  0  0  0  0  0  0  0  0  0  0
    3.2736   -6.1417    1.6610 N   0  0  0  0  0  0  0  0  0  0  0  0
    4.2982   -6.4712    2.6690 C   0  0  0  0  0  0  0  0  0  0  0  0
    5.5240   -5.5334    2.7724 C   0  0  0  0  0  0  0  0  0  0  0  0
    6.5031   -5.6337    1.5766 C   0  0  2  0  0  0  0  0  0  0  0  0
    7.1688   -4.2751    1.1984 C   0  0  0  0  0  0  0  0  0  0  0  0
    6.2043   -3.3106    0.6222 N   0  0  0  0  0  0  0  0  0  0  0  0
    6.8049   -2.0129    0.3381 C   0  0  0  0  0  0  0  0  0  0  0  0
    5.8806   -0.8824   -0.1033 C   0  0  0  0  0  0  0  0  0  0  0  0
    4.3774   -1.0038   -0.1320 C   0  0  0  0  0  0  0  0  0  0  0  0
    5.1527   -0.9517   -1.4204 C   0  0  0  0  0  0  0  0  0  0  0  0
    5.5442   -3.9581   -0.5196 C   0  0  0  0  0  0  0  0  0  0  0  0
    4.8588   -5.2604   -0.1186 C   0  0  2  0  0  0  0  0  0  0  0  0
    3.6287   -5.0152    0.7871 C   0  0  0  0  0  0  0  0  0  0  0  0
    5.7977   -6.1748    0.4651 O   0  0  0  0  0  0  0  0  0  0  0  0
    1.7448   -8.2496    2.5426 S   0  0  0  0  0  0  0  0  0  0  0  0
   -1.9608   -8.7785    2.1477 H   0  0  0  0  0  0  0  0  0  0  0  0
   -1.0510   -9.1184    3.6359 H   0  0  0  0  0  0  0  0  0  0  0  0
   -0.7376  -10.0617    2.1674 H   0  0  0  0  0  0  0  0  0  0  0  0
    3.7893   -6.4322    3.6442 H   0  0  0  0  0  0  0  0  0  0  0  0
    4.6267   -7.5066    2.5244 H   0  0  0  0  0  0  0  0  0  0  0  0
    5.2058   -4.5007    2.9556 H   0  0  0  0  0  0  0  0  0  0  0  0
    6.0974   -5.8125    3.6598 H   0  0  0  0  0  0  0  0  0  0  0  0
    7.2900   -6.3571    1.8117 H   0  0  0  0  0  0  0  0  0  0  0  0
    7.6509   -3.8562    2.0694 H   0  0  0  0  0  0  0  0  0  0  0  0
    7.9654   -4.4716    0.4638 H   0  0  0  0  0  0  0  0  0  0  0  0
    7.3129   -1.6614    1.2326 H   0  0  0  0  0  0  0  0  0  0  0  0
    7.6133   -2.1363   -0.3798 H   0  0  0  0  0  0  0  0  0  0  0  0
    6.2823    0.0966    0.1501 H   0  0  0  0  0  0  0  0  0  0  0  0
    4.0140   -1.9594    0.2449 H   0  0  0  0  0  0  0  0  0  0  0  0
    3.8173   -0.1124    0.1149 H   0  0  0  0  0  0  0  0  0  0  0  0
    5.0243   -0.0563   -1.9895 H   0  0  0  0  0  0  0  0  0  0  0  0
    5.3890   -1.8643   -1.9757 H   0  0  0  0  0  0  0  0  0  0  0  0
    4.7840   -3.2660   -0.9164 H   0  0  0  0  0  0  0  0  0  0  0  0
    6.2823   -4.1441   -1.2813 H   0  0  0  0  0  0  0  0  0  0  0  0
    4.5335   -5.7312   -1.0422 H   0  0  0  0  0  0  0  0  0  0  0  0
    2.7800   -4.7724    0.1574 H   0  0  0  0  0  0  0  0  0  0  0  0
    3.7470   -4.1321    1.4064 H   0  0  0  0  0  0  0  0  0  0  0  0
  1  2  1  0
  1 21  1  0
  1 22  1  0
  1 23  1  0
  2 20  1  0
  2  3  2  0
  3  4  1  0
  4  5  2  0
  5  6  1  0
  5 20  1  0
  6 18  1  0
  6  7  1  0
  7  8  1  0
  7 24  1  0
  7 25  1  0
  8  9  1  0
  8 26  1  0
  8 27  1  0
  9 19  1  0
  9 10  1  0
  9 28  1  1
 10 11  1  0
 10 29  1  0
 10 30  1  0
 11 12  1  0
 11 16  1  0
 12 13  1  0
 12 31  1  0
 12 32  1  0
 13 15  1  0
 13 14  1  0
 13 33  1  0
 14 15  1  0
 14 34  1  0
 14 35  1  0
 15 36  1  0
 15 37  1  0
 16 17  1  0
 16 38  1  0
 16 39  1  0
 17 18  1  0
 17 19  1  0
 17 40  1  6
 18 41  1  0
 18 42  1  0
M  END
>  <i_m_ct_stereo_status>  (388) 
1

>  <s_m_source_file>  (388) 
/var/tmp/pbs.5076255.sched01/tmp6w_bron9/120d4r_aq7a.sdf

>  <i_m_source_file_index>  (388) 
28

>  <i_lp_mmshare_version>  (388) 
48012

>  <i_f3d_flags>  (388) 
0

>  <s_epik_input>  (388) 
W0NIM11jMW5uYyhzMSlOKFtDSDJdW0NIMl1bQ0BIXTIzKVtDSDJdW0NASF0oTzMpW0NIMl1OKFtDSDJdMilbQ0gyXVtDSF00W0NIMl1bQ0gyXTQ=

>  <s_epik_cmdline>  (388) 
J2VwaWtfcHl0aG9uJywgJy1waHQnLCAnMi4wJywgJy1waCcsICc3LjAnLCAnLXRuJywgJzgnLCAnLW1hJywgJzIwMCcsICctaW1hZScsICc8aW5maWxlLm1hZT4nLCAnLW9tYWUnLCAnPG91dGZpbGUubWFlPic=

>  <r_lp_tautomer_probability>  (388) 
1

>  <r_epik_Ionization_Penalty>  (388) 
1.12354

>  <r_epik_Ionization_Penalty_Charging>  (388) 
0

>  <r_epik_Ionization_Penalty_Neutral>  (388) 
1.12354

>  <r_epik_State_Penalty>  (388) 
1.18242

>  <r_epik_Charging_Adjusted_Penalty>  (388) 
1.18242

>  <i_epik_Tot_Q>  (388) 
0

>  <i_epik_Tot_abs_Q>  (388) 
0

>  <s_lp_Force_Field>  (388) 
OPLS3e

>  <r_lp_Energy>  (388) 
37.6969

>  <b_lp_Chiralities_Consistent>  (388) 
1

>  <s_lp_Variant>  (388) 
100:0-2

>  <s_i_glide_gridfile>  (388) 
pfpi4k_grid

>  <i_i_glide_lignum>  (388) 
28

>  <i_i_glide_rotatable_bonds>  (388) 
3

>  <r_i_docking_score>  (388) 
-3.17181

>  <r_i_glide_ligand_efficiency>  (388) 
-0.158591

>  <r_i_glide_ligand_efficiency_sa>  (388) 
-0.430481

>  <r_i_glide_ligand_efficiency_ln>  (388) 
-0.7938

>  <r_i_glide_gscore>  (388) 
-3.17181

>  <r_i_glide_lipo>  (388) 
-0.382068

>  <r_i_glide_hbond>  (388) 
0

>  <r_i_glide_metal>  (388) 
-0

>  <r_i_glide_rewards>  (388) 
-1.44589

>  <r_i_glide_evdw>  (388) 
-21.3406

>  <r_i_glide_ecoul>  (388) 
-4.73182

>  <r_i_glide_erotb>  (388) 
0.63295

>  <r_i_glide_esite>  (388) 
-0.2

>  <r_i_glide_emodel>  (388) 
-24.2623

>  <r_i_glide_energy>  (388) 
-26.0724

>  <r_i_glide_einternal>  (388) 
11.5318

>  <r_i_glide_intrahb_reward>  (388) 
-0

>  <i_i_glide_confnum>  (388) 
4

>  <i_i_glide_posenum>  (388) 
20

>  <r_i_glide_eff_state_penalty>  (388) 
0

>  <ligand_id>  (388) 
100

>  <original_smiles>  (388) 
Cc1nnc(N2CCC3CN(CC4CC4)CC(C2)O3)s1

>  <smiles>  (388) 
[H]C([H])([H])c1nnc(N2C([H])([H])C([H])([H])C3([H])OC([H])(C2([H])[H])C([H])([H])N(C([H])([H])C2([H])C([H])([H])C2([H])[H])C3([H])[H])s1

$$$$
100:1:1
     RDKit          3D

 42 45  0  0  1  0  0  0  0  0999 V2000
   -1.2098   -8.9404    3.5375 C   0  0  0  0  0  0  0  0  0  0  0  0
   -0.2712   -8.0378    2.8180 C   0  0  0  0  0  0  0  0  0  0  0  0
   -0.5637   -7.4660    1.6519 N   0  0  0  0  0  0  0  0  0  0  0  0
    0.4533   -6.6803    1.1617 N   0  0  0  0  0  0  0  0  0  0  0  0
    1.4927   -6.6430    2.0010 C   0  0  0  0  0  0  0  0  0  0  0  0
    2.6384   -5.8278    1.8036 N   0  0  0  0  0  0  0  0  0  0  0  0
    3.4632   -5.4097    2.9397 C   0  0  0  0  0  0  0  0  0  0  0  0
    4.4987   -4.2841    2.6772 C   0  0  0  0  0  0  0  0  0  0  0  0
    5.7027   -4.7142    1.8159 C   0  0  2  0  0  0  0  0  0  0  0  0
    6.2080   -3.5764    0.8875 C   0  0  0  0  0  0  0  0  0  0  0  0
    5.2558   -3.2394   -0.1808 N   0  0  0  0  0  0  0  0  0  0  0  0
    5.7100   -2.1423   -1.0380 C   0  0  0  0  0  0  0  0  0  0  0  0
    4.7411   -1.5536   -2.0648 C   0  0  0  0  0  0  0  0  0  0  0  0
    3.3038   -1.9938   -2.2011 C   0  0  0  0  0  0  0  0  0  0  0  0
    4.3044   -2.3681   -3.2577 C   0  0  0  0  0  0  0  0  0  0  0  0
    4.9000   -4.4461   -0.9240 C   0  0  0  0  0  0  0  0  0  0  0  0
    4.3763   -5.5656   -0.0084 C   0  0  2  0  0  0  0  0  0  0  0  0
    2.9732   -5.2071    0.5322 C   0  0  0  0  0  0  0  0  0  0  0  0
    5.3342   -5.8438    1.0262 O   0  0  0  0  0  0  0  0  0  0  0  0
    1.3339   -7.6496    3.4345 S   0  0  0  0  0  0  0  0  0  0  0  0
   -2.1343   -9.0542    2.9669 H   0  0  0  0  0  0  0  0  0  0  0  0
   -1.4505   -8.5375    4.5233 H   0  0  0  0  0  0  0  0  0  0  0  0
   -0.7473   -9.9207    3.6579 H   0  0  0  0  0  0  0  0  0  0  0  0
    2.7689   -5.0412    3.7022 H   0  0  0  0  0  0  0  0  0  0  0  0
    3.9605   -6.2914    3.3480 H   0  0  0  0  0  0  0  0  0  0  0  0
    3.9993   -3.3986    2.2782 H   0  0  0  0  0  0  0  0  0  0  0  0
    4.8969   -3.9703    3.6367 H   0  0  0  0  0  0  0  0  0  0  0  0
    6.5183   -5.0361    2.4747 H   0  0  0  0  0  0  0  0  0  0  0  0
    6.4149   -2.6850    1.4800 H   0  0  0  0  0  0  0  0  0  0  0  0
    7.1750   -3.8712    0.4733 H   0  0  0  0  0  0  0  0  0  0  0  0
    5.9745   -1.3150   -0.3924 H   0  0  0  0  0  0  0  0  0  0  0  0
    6.6422   -2.4068   -1.5294 H   0  0  0  0  0  0  0  0  0  0  0  0
    4.9464   -0.5187   -2.2848 H   0  0  0  0  0  0  0  0  0  0  0  0
    2.9959   -2.7271   -1.4715 H   0  0  0  0  0  0  0  0  0  0  0  0
    2.5968   -1.2295   -2.4783 H   0  0  0  0  0  0  0  0  0  0  0  0
    4.1821   -1.8648   -4.1977 H   0  0  0  0  0  0  0  0  0  0  0  0
    4.7474   -3.3498   -3.2791 H   0  0  0  0  0  0  0  0  0  0  0  0
    4.1738   -4.2020   -1.6771 H   0  0  0  0  0  0  0  0  0  0  0  0
    5.7563   -4.8273   -1.4456 H   0  0  0  0  0  0  0  0  0  0  0  0
    4.3073   -6.4946   -0.5787 H   0  0  0  0  0  0  0  0  0  0  0  0
    2.2597   -5.4774   -0.2335 H   0  0  0  0  0  0  0  0  0  0  0  0
    2.8651   -4.1308    0.6140 H   0  0  0  0  0  0  0  0  0  0  0  0
  1  2  1  0
  1 21  1  0
  1 22  1  0
  1 23  1  0
  2 20  1  0
  2  3  2  0
  3  4  1  0
  4  5  2  0
  5  6  1  0
  5 20  1  0
  6 18  1  0
  6  7  1  0
  7  8  1  0
  7 24  1  0
  7 25  1  0
  8  9  1  0
  8 26  1  0
  8 27  1  0
  9 19  1  0
  9 10  1  0
  9 28  1  1
 10 11  1  0
 10 29  1  0
 10 30  1  0
 11 12  1  0
 11 16  1  0
 12 13  1  0
 12 31  1  0
 12 32  1  0
 13 15  1  0
 13 14  1  0
 13 33  1  0
 14 15  1  0
 14 34  1  0
 14 35  1  0
 15 36  1  0
 15 37  1  0
 16 17  1  0
 16 38  1  0
 16 39  1  0
 17 18  1  0
 17 19  1  0
 17 40  1  6
 18 41  1  0
 18 42  1  0
M  END
>  <i_m_ct_stereo_status>  (389) 
1

>  <s_m_source_file>  (389) 
/var/tmp/pbs.5076255.sched01/tmp6w_bron9/120d4r_aq7a.sdf

>  <i_m_source_file_index>  (389) 
28

>  <i_lp_mmshare_version>  (389) 
48012

>  <i_f3d_flags>  (389) 
0

>  <s_epik_input>  (389) 
W0NIM11jMW5uYyhzMSlOKFtDSDJdW0NIMl1bQ0BIXTIzKVtDSDJdW0NASF0oTzMpW0NIMl1OKFtDSDJdMilbQ0gyXVtDSF00W0NIMl1bQ0gyXTQ=

>  <s_epik_cmdline>  (389) 
J2VwaWtfcHl0aG9uJywgJy1waHQnLCAnMi4wJywgJy1waCcsICc3LjAnLCAnLXRuJywgJzgnLCAnLW1hJywgJzIwMCcsICctaW1hZScsICc8aW5maWxlLm1hZT4nLCAnLW9tYWUnLCAnPG91dGZpbGUubWFlPic=

>  <r_lp_tautomer_probability>  (389) 
1

>  <r_epik_Ionization_Penalty>  (389) 
1.12354

>  <r_epik_Ionization_Penalty_Charging>  (389) 
0

>  <r_epik_Ionization_Penalty_Neutral>  (389) 
1.12354

>  <r_epik_State_Penalty>  (389) 
1.18242

>  <r_epik_Charging_Adjusted_Penalty>  (389) 
1.18242

>  <i_epik_Tot_Q>  (389) 
0

>  <i_epik_Tot_abs_Q>  (389) 
0

>  <s_lp_Force_Field>  (389) 
OPLS3e

>  <r_lp_Energy>  (389) 
37.6969

>  <b_lp_Chiralities_Consistent>  (389) 
1

>  <s_lp_Variant>  (389) 
100:0-2

>  <s_i_glide_gridfile>  (389) 
pfpi4k_grid

>  <i_i_glide_lignum>  (389) 
28

>  <i_i_glide_rotatable_bonds>  (389) 
3

>  <r_i_docking_score>  (389) 
-2.84534

>  <r_i_glide_ligand_efficiency>  (389) 
-0.142267

>  <r_i_glide_ligand_efficiency_sa>  (389) 
-0.386172

>  <r_i_glide_ligand_efficiency_ln>  (389) 
-0.712095

>  <r_i_glide_gscore>  (389) 
-2.84534

>  <r_i_glide_lipo>  (389) 
-0.28411

>  <r_i_glide_hbond>  (389) 
0

>  <r_i_glide_metal>  (389) 
-0

>  <r_i_glide_rewards>  (389) 
-1.4017

>  <r_i_glide_evdw>  (389) 
-23.961

>  <r_i_glide_ecoul>  (389) 
-2.62666

>  <r_i_glide_erotb>  (389) 
0.63295

>  <r_i_glide_esite>  (389) 
-0.200428

>  <r_i_glide_emodel>  (389) 
-24.3515

>  <r_i_glide_energy>  (389) 
-26.5876

>  <r_i_glide_einternal>  (389) 
11.7454

>  <r_i_glide_intrahb_reward>  (389) 
-0

>  <i_i_glide_confnum>  (389) 
4

>  <i_i_glide_posenum>  (389) 
18

>  <r_i_glide_eff_state_penalty>  (389) 
0

>  <ligand_id>  (389) 
100

>  <original_smiles>  (389) 
Cc1nnc(N2CCC3CN(CC4CC4)CC(C2)O3)s1

>  <smiles>  (389) 
[H]C([H])([H])c1nnc(N2C([H])([H])C([H])([H])C3([H])OC([H])(C2([H])[H])C([H])([H])N(C([H])([H])C2([H])C([H])([H])C2([H])[H])C3([H])[H])s1

$$$$
100:1:2
     RDKit          3D

 42 45  0  0  1  0  0  0  0  0999 V2000
    1.6596    1.9182    2.2839 C   0  0  0  0  0  0  0  0  0  0  0  0
    2.2801    0.5942    1.9879 C   0  0  0  0  0  0  0  0  0  0  0  0
    3.4146    0.4651    1.2962 N   0  0  0  0  0  0  0  0  0  0  0  0
    3.7983   -0.8564    1.1503 N   0  0  0  0  0  0  0  0  0  0  0  0
    2.9229   -1.7082    1.7134 C   0  0  0  0  0  0  0  0  0  0  0  0
    3.0442   -3.1072    1.6465 N   0  0  0  0  0  0  0  0  0  0  0  0
    4.0717   -3.7374    0.7903 C   0  0  0  0  0  0  0  0  0  0  0  0
    3.9634   -5.2636    0.5502 C   0  0  0  0  0  0  0  0  0  0  0  0
    4.2358   -6.1297    1.7989 C   0  0  2  0  0  0  0  0  0  0  0  0
    3.3876   -7.4199    1.8466 C   0  0  0  0  0  0  0  0  0  0  0  0
    1.9735   -7.1547    2.0834 N   0  0  0  0  0  0  0  0  0  0  0  0
    1.2051   -8.3942    2.1386 C   0  0  0  0  0  0  0  0  0  0  0  0
   -0.3044   -8.2112    2.2005 C   0  0  0  0  0  0  0  0  0  0  0  0
   -1.0310   -8.3969    3.5132 C   0  0  0  0  0  0  0  0  0  0  0  0
   -1.1876   -9.4174    2.4186 C   0  0  0  0  0  0  0  0  0  0  0  0
    1.8410   -6.3650    3.3069 C   0  0  0  0  0  0  0  0  0  0  0  0
    2.6690   -5.0630    3.2567 C   0  0  2  0  0  0  0  0  0  0  0  0
    2.0863   -4.0559    2.2356 C   0  0  0  0  0  0  0  0  0  0  0  0
    4.0271   -5.3882    2.9947 O   0  0  0  0  0  0  0  0  0  0  0  0
    1.5785   -0.9167    2.5353 S   0  0  0  0  0  0  0  0  0  0  0  0
    2.2333    2.7397    1.8396 H   0  0  0  0  0  0  0  0  0  0  0  0
    1.6137    2.0677    3.3646 H   0  0  0  0  0  0  0  0  0  0  0  0
    0.6465    1.9508    1.8772 H   0  0  0  0  0  0  0  0  0  0  0  0
    4.0044   -3.2532   -0.1879 H   0  0  0  0  0  0  0  0  0  0  0  0
    5.0576   -3.4905    1.1828 H   0  0  0  0  0  0  0  0  0  0  0  0
    3.0045   -5.5061    0.0949 H   0  0  0  0  0  0  0  0  0  0  0  0
    4.6911   -5.5456   -0.2076 H   0  0  0  0  0  0  0  0  0  0  0  0
    5.2903   -6.4111    1.7958 H   0  0  0  0  0  0  0  0  0  0  0  0
    3.5039   -7.9852    0.9205 H   0  0  0  0  0  0  0  0  0  0  0  0
    3.7697   -8.0541    2.6480 H   0  0  0  0  0  0  0  0  0  0  0  0
    1.4145   -8.9855    1.2459 H   0  0  0  0  0  0  0  0  0  0  0  0
    1.5307   -9.0065    2.9863 H   0  0  0  0  0  0  0  0  0  0  0  0
   -0.6995   -7.4776    1.4981 H   0  0  0  0  0  0  0  0  0  0  0  0
   -0.4441   -8.6826    4.3843 H   0  0  0  0  0  0  0  0  0  0  0  0
   -1.8767   -7.7429    3.7177 H   0  0  0  0  0  0  0  0  0  0  0  0
   -2.1413   -9.4500    1.8950 H   0  0  0  0  0  0  0  0  0  0  0  0
   -0.6929  -10.3784    2.5382 H   0  0  0  0  0  0  0  0  0  0  0  0
    0.7935   -6.1265    3.4801 H   0  0  0  0  0  0  0  0  0  0  0  0
    2.1714   -6.9609    4.1584 H   0  0  0  0  0  0  0  0  0  0  0  0
    2.6498   -4.5926    4.2428 H   0  0  0  0  0  0  0  0  0  0  0  0
    1.2767   -3.5251    2.7368 H   0  0  0  0  0  0  0  0  0  0  0  0
    1.6057   -4.6004    1.4275 H   0  0  0  0  0  0  0  0  0  0  0  0
  1  2  1  0
  1 21  1  0
  1 22  1  0
  1 23  1  0
  2 20  1  0
  2  3  2  0
  3  4  1  0
  4  5  2  0
  5  6  1  0
  5 20  1  0
  6 18  1  0
  6  7  1  0
  7  8  1  0
  7 24  1  0
  7 25  1  0
  8  9  1  0
  8 26  1  0
  8 27  1  0
  9 19  1  0
  9 10  1  0
  9 28  1  6
 10 11  1  0
 10 29  1  0
 10 30  1  0
 11 12  1  0
 11 16  1  0
 12 13  1  0
 12 31  1  0
 12 32  1  0
 13 15  1  0
 13 14  1  0
 13 33  1  0
 14 15  1  0
 14 34  1  0
 14 35  1  0
 15 36  1  0
 15 37  1  0
 16 17  1  0
 16 38  1  0
 16 39  1  0
 17 18  1  0
 17 19  1  0
 17 40  1  1
 18 41  1  0
 18 42  1  0
M  END
>  <i_m_ct_stereo_status>  (390) 
1

>  <s_m_source_file>  (390) 
/var/tmp/pbs.5076255.sched01/tmp6w_bron9/120d4r_aq7a.sdf

>  <i_m_source_file_index>  (390) 
28

>  <i_lp_mmshare_version>  (390) 
48012

>  <i_f3d_flags>  (390) 
0

>  <s_epik_input>  (390) 
W0NIM11jMW5uYyhzMSlOKFtDSDJdW0NIMl1bQ0BIXTIzKVtDSDJdW0NASF0oTzMpW0NIMl1OKFtDSDJdMilbQ0gyXVtDSF00W0NIMl1bQ0gyXTQ=

>  <s_epik_cmdline>  (390) 
J2VwaWtfcHl0aG9uJywgJy1waHQnLCAnMi4wJywgJy1waCcsICc3LjAnLCAnLXRuJywgJzgnLCAnLW1hJywgJzIwMCcsICctaW1hZScsICc8aW5maWxlLm1hZT4nLCAnLW9tYWUnLCAnPG91dGZpbGUubWFlPic=

>  <r_lp_tautomer_probability>  (390) 
1

>  <r_epik_Ionization_Penalty>  (390) 
1.12354

>  <r_epik_Ionization_Penalty_Charging>  (390) 
0

>  <r_epik_Ionization_Penalty_Neutral>  (390) 
1.12354

>  <r_epik_State_Penalty>  (390) 
1.18242

>  <r_epik_Charging_Adjusted_Penalty>  (390) 
1.18242

>  <i_epik_Tot_Q>  (390) 
0

>  <i_epik_Tot_abs_Q>  (390) 
0

>  <s_lp_Force_Field>  (390) 
OPLS3e

>  <r_lp_Energy>  (390) 
37.6969

>  <b_lp_Chiralities_Consistent>  (390) 
1

>  <s_lp_Variant>  (390) 
100:0-2

>  <s_i_glide_gridfile>  (390) 
pfpi4k_grid

>  <i_i_glide_lignum>  (390) 
28

>  <i_i_glide_rotatable_bonds>  (390) 
3

>  <r_i_docking_score>  (390) 
-2.3795

>  <r_i_glide_ligand_efficiency>  (390) 
-0.118975

>  <r_i_glide_ligand_efficiency_sa>  (390) 
-0.322947

>  <r_i_glide_ligand_efficiency_ln>  (390) 
-0.595509

>  <r_i_glide_gscore>  (390) 
-2.3795

>  <r_i_glide_lipo>  (390) 
-0.366984

>  <r_i_glide_hbond>  (390) 
0

>  <r_i_glide_metal>  (390) 
-0

>  <r_i_glide_rewards>  (390) 
-1.4017

>  <r_i_glide_evdw>  (390) 
-21.0243

>  <r_i_glide_ecoul>  (390) 
-1.20837

>  <r_i_glide_erotb>  (390) 
0.63295

>  <r_i_glide_esite>  (390) 
-0.0112881

>  <r_i_glide_emodel>  (390) 
-26.3019

>  <r_i_glide_energy>  (390) 
-22.2326

>  <r_i_glide_einternal>  (390) 
0.154633

>  <r_i_glide_intrahb_reward>  (390) 
-0

>  <i_i_glide_confnum>  (390) 
2

>  <i_i_glide_posenum>  (390) 
2

>  <r_i_glide_eff_state_penalty>  (390) 
0

>  <ligand_id>  (390) 
100

>  <original_smiles>  (390) 
Cc1nnc(N2CCC3CN(CC4CC4)CC(C2)O3)s1

>  <smiles>  (390) 
[H]C([H])([H])c1nnc(N2C([H])([H])C([H])([H])C3([H])OC([H])(C2([H])[H])C([H])([H])N(C([H])([H])C2([H])C([H])([H])C2([H])[H])C3([H])[H])s1

$$$$
101:0:0
     RDKit          3D

 67 72  0  0  1  0  0  0  0  0999 V2000
    3.9131   -1.2983   -4.0775 C   0  0  0  0  0  0  0  0  0  0  0  0
    3.4892   -1.5368   -2.6451 C   0  0  2  0  0  0  0  0  0  0  0  0
    4.4450   -0.8812   -1.6546 C   0  0  0  0  0  0  0  0  0  0  0  0
    4.1345   -1.3403   -0.2139 C   0  0  0  0  0  0  0  0  0  0  0  0
    3.9184   -2.8887   -0.0228 C   0  0  1  0  0  0  0  0  0  0  0  0
    3.0051   -3.2275   -1.0587 O   0  0  0  0  0  0  0  0  0  0  0  0
    3.3354   -3.0515   -2.4030 C   0  0  0  0  0  0  0  0  0  0  0  0
    5.3546   -3.7206   -0.3800 C   0  0  1  0  0  0  0  0  0  0  0  0
    6.4283   -2.9389   -1.1454 C   0  0  0  0  0  0  0  0  0  0  0  0
    6.1591   -4.4327    0.7865 C   0  0  2  0  0  0  0  0  0  0  0  0
    6.6583   -5.9217    0.9028 C   0  0  0  0  0  0  0  0  0  0  0  0
    6.3968   -6.3713    2.4082 C   0  0  0  0  0  0  0  0  0  0  0  0
    5.6922   -5.1660    3.1090 C   0  0  2  0  0  0  0  0  0  0  0  0
    4.4641   -4.8888    4.1364 C   0  0  2  0  0  0  0  0  0  0  0  0
    3.2747   -5.8288    4.4631 C   0  0  0  0  0  0  0  0  0  0  0  0
    1.8472   -5.4215    3.9530 C   0  0  0  0  0  0  0  0  0  0  0  0
    1.5534   -3.9363    3.5250 C   0  0  0  0  0  0  0  0  0  0  0  0
    2.7074   -3.0992    2.8593 C   0  0  1  0  0  0  0  0  0  0  0  0
    2.2834   -1.6097    3.0476 C   0  0  0  0  0  0  0  0  0  0  0  0
    3.8576   -3.4228    3.9553 C   0  0  2  0  0  0  0  0  0  0  0  0
    5.0139   -2.5093    3.7984 C   0  0  0  0  0  0  0  0  0  0  0  0
    5.4791   -2.8931    2.4187 C   0  0  0  0  0  0  0  0  0  0  0  0
    5.2264   -4.4309    1.9248 C   0  0  1  0  0  0  0  0  0  0  0  0
    3.9411   -5.3555    1.3282 C   0  0  1  0  0  0  0  0  0  0  0  0
    3.6579   -6.6642    1.7820 O   0  0  0  0  0  0  0  0  0  0  0  0
    2.6145   -4.7844    0.9418 C   0  0  0  0  0  0  0  0  0  0  0  0
    2.8392   -3.3292    1.1778 C   0  0  2  0  0  0  0  0  0  0  0  0
    4.8544   -1.8114   -4.2859 H   0  0  0  0  0  0  0  0  0  0  0  0
    4.0480   -0.2337   -4.2414 H   0  0  0  0  0  0  0  0  0  0  0  0
    3.1535   -1.6783   -4.7506 H   0  0  0  0  0  0  0  0  0  0  0  0
    2.4948   -1.0910   -2.4685 H   0  0  0  0  0  0  0  0  0  0  0  0
    5.4355   -0.9795   -1.9487 H   0  0  0  0  0  0  0  0  0  0  0  0
    4.4095    0.1840   -1.7124 H   0  0  0  0  0  0  0  0  0  0  0  0
    4.9420   -0.9351    0.3771 H   0  0  0  0  0  0  0  0  0  0  0  0
    3.2080   -0.8284    0.1508 H   0  0  0  0  0  0  0  0  0  0  0  0
    2.5404   -3.4790   -3.0198 H   0  0  0  0  0  0  0  0  0  0  0  0
    4.2363   -3.6146   -2.7023 H   0  0  0  0  0  0  0  0  0  0  0  0
    5.0761   -4.5070   -1.0545 H   0  0  0  0  0  0  0  0  0  0  0  0
    6.6777   -1.9847   -0.6372 H   0  0  0  0  0  0  0  0  0  0  0  0
    6.1156   -2.7304   -2.1855 H   0  0  0  0  0  0  0  0  0  0  0  0
    7.3389   -3.4392   -1.3098 H   0  0  0  0  0  0  0  0  0  0  0  0
    7.0857   -3.8665    0.9533 H   0  0  0  0  0  0  0  0  0  0  0  0
    6.1544   -6.5666    0.1859 H   0  0  0  0  0  0  0  0  0  0  0  0
    7.7181   -5.9705    0.6503 H   0  0  0  0  0  0  0  0  0  0  0  0
    5.8528   -7.3027    2.4794 H   0  0  0  0  0  0  0  0  0  0  0  0
    7.3563   -6.5576    2.8776 H   0  0  0  0  0  0  0  0  0  0  0  0
    6.5544   -4.6650    3.5450 H   0  0  0  0  0  0  0  0  0  0  0  0
    4.9992   -4.8627    5.0925 H   0  0  0  0  0  0  0  0  0  0  0  0
    3.5163   -6.8722    4.2613 H   0  0  0  0  0  0  0  0  0  0  0  0
    3.1821   -5.8142    5.5452 H   0  0  0  0  0  0  0  0  0  0  0  0
    1.5192   -6.1302    3.2005 H   0  0  0  0  0  0  0  0  0  0  0  0
    1.1533   -5.6427    4.7665 H   0  0  0  0  0  0  0  0  0  0  0  0
    0.6438   -3.8800    2.9271 H   0  0  0  0  0  0  0  0  0  0  0  0
    1.2652   -3.4333    4.4425 H   0  0  0  0  0  0  0  0  0  0  0  0
    2.9955   -0.9161    2.6054 H   0  0  0  0  0  0  0  0  0  0  0  0
    2.1993   -1.3445    4.1000 H   0  0  0  0  0  0  0  0  0  0  0  0
    1.3176   -1.3976    2.5979 H   0  0  0  0  0  0  0  0  0  0  0  0
    3.4490   -3.1594    4.9276 H   0  0  0  0  0  0  0  0  0  0  0  0
    4.7816   -1.4515    3.8656 H   0  0  0  0  0  0  0  0  0  0  0  0
    5.7883   -2.6985    4.5512 H   0  0  0  0  0  0  0  0  0  0  0  0
    5.1666   -2.1168    1.8170 H   0  0  0  0  0  0  0  0  0  0  0  0
    6.5544   -2.6815    2.4809 H   0  0  0  0  0  0  0  0  0  0  0  0
    4.2278   -5.7451    0.3583 H   0  0  0  0  0  0  0  0  0  0  0  0
    3.1767   -7.1184    1.1147 H   0  0  0  0  0  0  0  0  0  0  0  0
    2.3767   -5.0641   -0.0856 H   0  0  0  0  0  0  0  0  0  0  0  0
    1.7486   -5.2037    1.4117 H   0  0  0  0  0  0  0  0  0  0  0  0
    1.8683   -2.8819    0.8612 H   0  0  0  0  0  0  0  0  0  0  0  0
  1  2  1  0
  1 28  1  0
  1 29  1  0
  1 30  1  0
  2  7  1  0
  2  3  1  0
  2 31  1  6
  3  4  1  0
  3 32  1  0
  3 33  1  0
  4  5  1  0
  4 34  1  0
  4 35  1  0
  5 27  1  0
  5  6  1  6
  5  8  1  0
  6  7  1  0
  7 36  1  0
  7 37  1  0
  8  9  1  0
  8 10  1  0
  8 38  1  6
  9 39  1  0
  9 40  1  0
  9 41  1  0
 10 23  1  0
 10 11  1  0
 10 42  1  1
 11 12  1  0
 11 43  1  0
 11 44  1  0
 12 13  1  0
 12 45  1  0
 12 46  1  0
 13 23  1  0
 13 14  1  0
 13 47  1  1
 14 20  1  0
 14 15  1  0
 14 48  1  1
 15 16  1  0
 15 49  1  0
 15 50  1  0
 16 17  1  0
 16 51  1  0
 16 52  1  0
 17 18  1  0
 17 53  1  0
 17 54  1  0
 18 27  1  0
 18 19  1  6
 18 20  1  0
 19 55  1  0
 19 56  1  0
 19 57  1  0
 20 21  1  0
 20 58  1  1
 21 22  1  0
 21 59  1  0
 21 60  1  0
 23 22  1  1
 22 61  1  0
 22 62  1  0
 23 24  1  0
 24 25  1  0
 24 26  1  0
 24 63  1  6
 25 64  1  0
 26 27  1  0
 26 65  1  0
 26 66  1  0
 27 67  1  6
M  END
>  <i_m_ct_stereo_status>  (391) 
1

>  <s_m_source_file>  (391) 
/var/tmp/pbs.5076255.sched01/tmp6w_bron9/120d4r_aq7a.sdf

>  <i_m_source_file_index>  (391) 
29

>  <i_lp_mmshare_version>  (391) 
48012

>  <i_f3d_flags>  (391) 
0

>  <s_epik_input>  (391) 
TzFbQ0gyXVtDQEhdKFtDSDNdKVtDSDJdW0NIMl1bQ0BAXTEyW0NAQEhdM1tDQF00KFtDSDNdKVtDQEhdNVtDSF0oW0NIMl1bQ0gyXVtDSDJdNClbQ0BASF02W0NAXShbQ0gyXVtDSDJdNSkoW0NAQEhdKFtPSF0pW0NIMl0zKVtDQEhdKFtDQEBIXTJbQ0gzXSlbQ0gyXVtDSDJdNg==

>  <s_epik_cmdline>  (391) 
J2VwaWtfcHl0aG9uJywgJy1waHQnLCAnMi4wJywgJy1waCcsICc3LjAnLCAnLXRuJywgJzgnLCAnLW1hJywgJzIwMCcsICctaW1hZScsICc8aW5maWxlLm1hZT4nLCAnLW9tYWUnLCAnPG91dGZpbGUubWFlPic=

>  <r_lp_tautomer_probability>  (391) 
1

>  <r_epik_Ionization_Penalty>  (391) 
2.37717e-06

>  <r_epik_Ionization_Penalty_Charging>  (391) 
0

>  <r_epik_Ionization_Penalty_Neutral>  (391) 
2.37717e-06

>  <r_epik_State_Penalty>  (391) 
-0

>  <r_epik_Charging_Adjusted_Penalty>  (391) 
0

>  <i_epik_Tot_Q>  (391) 
0

>  <i_epik_Tot_abs_Q>  (391) 
0

>  <s_lp_Force_Field>  (391) 
OPLS3e

>  <r_lp_Energy>  (391) 
277.974

>  <b_lp_Chiralities_Consistent>  (391) 
1

>  <s_lp_Variant>  (391) 
101:0-1

>  <s_i_glide_gridfile>  (391) 
pfpi4k_grid

>  <i_i_glide_lignum>  (391) 
29

>  <i_i_glide_rotatable_bonds>  (391) 
1

>  <r_i_docking_score>  (391) 
-2.54115

>  <r_i_glide_ligand_efficiency>  (391) 
-0.0941167

>  <r_i_glide_ligand_efficiency_sa>  (391) 
-0.28235

>  <r_i_glide_ligand_efficiency_ln>  (391) 
-0.591538

>  <r_i_glide_gscore>  (391) 
-2.54115

>  <r_i_glide_lipo>  (391) 
-0.434245

>  <r_i_glide_hbond>  (391) 
0

>  <r_i_glide_metal>  (391) 
-0

>  <r_i_glide_rewards>  (391) 
-0.868746

>  <r_i_glide_evdw>  (391) 
-26.2805

>  <r_i_glide_ecoul>  (391) 
0.505775

>  <r_i_glide_erotb>  (391) 
0

>  <r_i_glide_esite>  (391) 
0

>  <r_i_glide_emodel>  (391) 
-27.2818

>  <r_i_glide_energy>  (391) 
-25.7748

>  <r_i_glide_einternal>  (391) 
0.381001

>  <r_i_glide_intrahb_reward>  (391) 
-0

>  <i_i_glide_confnum>  (391) 
2

>  <i_i_glide_posenum>  (391) 
3

>  <r_i_glide_eff_state_penalty>  (391) 
0

>  <ligand_id>  (391) 
101

>  <original_smiles>  (391) 
CC1CCC2(OC1)C(C)C1CCC3C4CCCC5(C)C4CCC31C(O)CC52

>  <smiles>  (391) 
[H]OC1([H])C([H])([H])C2([H])C3(OC([H])([H])C([H])(C([H])([H])[H])C([H])([H])C3([H])[H])C([H])(C([H])([H])[H])C3([H])C([H])([H])C([H])([H])C4([H])C5([H])C([H])([H])C([H])([H])C([H])([H])C2(C([H])([H])[H])C5([H])C([H])([H])C([H])([H])C143

$$$$
101:0:1
     RDKit          3D

 67 72  0  0  1  0  0  0  0  0999 V2000
    3.9216   -1.2984   -4.1120 C   0  0  0  0  0  0  0  0  0  0  0  0
    3.4984   -1.5092   -2.6753 C   0  0  2  0  0  0  0  0  0  0  0  0
    4.4864   -0.8743   -1.6990 C   0  0  0  0  0  0  0  0  0  0  0  0
    4.1649   -1.3053   -0.2498 C   0  0  0  0  0  0  0  0  0  0  0  0
    3.9025   -2.8444   -0.0436 C   0  0  1  0  0  0  0  0  0  0  0  0
    2.9680   -3.1664   -1.0647 O   0  0  0  0  0  0  0  0  0  0  0  0
    3.2968   -3.0191   -2.4162 C   0  0  0  0  0  0  0  0  0  0  0  0
    5.3022   -3.7227   -0.3965 C   0  0  1  0  0  0  0  0  0  0  0  0
    6.3968   -2.9860   -1.1762 C   0  0  0  0  0  0  0  0  0  0  0  0
    6.0923   -4.4519    0.7741 C   0  0  2  0  0  0  0  0  0  0  0  0
    6.5402   -5.9563    0.9036 C   0  0  0  0  0  0  0  0  0  0  0  0
    6.2736   -6.3790    2.4159 C   0  0  0  0  0  0  0  0  0  0  0  0
    5.6146   -5.1433    3.1079 C   0  0  2  0  0  0  0  0  0  0  0  0
    4.4015   -4.8142    4.1384 C   0  0  2  0  0  0  0  0  0  0  0  0
    3.1835   -5.7113    4.4806 C   0  0  0  0  0  0  0  0  0  0  0  0
    1.7681   -5.2627    3.9750 C   0  0  0  0  0  0  0  0  0  0  0  0
    1.5249   -3.7725    3.5330 C   0  0  0  0  0  0  0  0  0  0  0  0
    2.6987   -2.9807    2.8502 C   0  0  1  0  0  0  0  0  0  0  0  0
    2.3238   -1.4771    3.0243 C   0  0  0  0  0  0  0  0  0  0  0  0
    3.8435   -3.3309    3.9440 C   0  0  2  0  0  0  0  0  0  0  0  0
    5.0275   -2.4578    3.7711 C   0  0  0  0  0  0  0  0  0  0  0  0
    5.4724   -2.8708    2.3923 C   0  0  0  0  0  0  0  0  0  0  0  0
    5.1670   -4.4065    1.9173 C   0  0  1  0  0  0  0  0  0  0  0  0
    3.8485   -5.2922    1.3374 C   0  0  1  0  0  0  0  0  0  0  0  0
    3.5262   -6.5853    1.8066 O   0  0  0  0  0  0  0  0  0  0  0  0
    2.5397   -4.6833    0.9530 C   0  0  0  0  0  0  0  0  0  0  0  0
    2.8045   -3.2324    1.1699 C   0  0  2  0  0  0  0  0  0  0  0  0
    4.8442   -1.8442   -4.3202 H   0  0  0  0  0  0  0  0  0  0  0  0
    4.0909   -0.2405   -4.2886 H   0  0  0  0  0  0  0  0  0  0  0  0
    3.1470   -1.6597   -4.7780 H   0  0  0  0  0  0  0  0  0  0  0  0
    2.5211   -1.0274   -2.4985 H   0  0  0  0  0  0  0  0  0  0  0  0
    5.4647   -1.0105   -1.9942 H   0  0  0  0  0  0  0  0  0  0  0  0
    4.4803    0.1944   -1.7673 H   0  0  0  0  0  0  0  0  0  0  0  0
    4.9880   -0.9214    0.3344 H   0  0  0  0  0  0  0  0  0  0  0  0
    3.2560   -0.7583    0.1141 H   0  0  0  0  0  0  0  0  0  0  0  0
    2.4835   -3.4253   -3.0242 H   0  0  0  0  0  0  0  0  0  0  0  0
    4.1792   -3.6124   -2.7135 H   0  0  0  0  0  0  0  0  0  0  0  0
    4.9959   -4.5098   -1.0607 H   0  0  0  0  0  0  0  0  0  0  0  0
    6.6814   -2.0363   -0.6798 H   0  0  0  0  0  0  0  0  0  0  0  0
    6.0855   -2.7769   -2.2158 H   0  0  0  0  0  0  0  0  0  0  0  0
    7.2914   -3.5135   -1.3391 H   0  0  0  0  0  0  0  0  0  0  0  0
    7.0371   -3.9139    0.9293 H   0  0  0  0  0  0  0  0  0  0  0  0
    6.0136   -6.5922    0.1941 H   0  0  0  0  0  0  0  0  0  0  0  0
    7.5970   -6.0403    0.6471 H   0  0  0  0  0  0  0  0  0  0  0  0
    5.7070   -7.2941    2.5058 H   0  0  0  0  0  0  0  0  0  0  0  0
    7.2306   -6.5892    2.8821 H   0  0  0  0  0  0  0  0  0  0  0  0
    6.4945   -4.6646    3.5335 H   0  0  0  0  0  0  0  0  0  0  0  0
    4.9419   -4.7948    5.0907 H   0  0  0  0  0  0  0  0  0  0  0  0
    3.3886   -6.7639    4.2907 H   0  0  0  0  0  0  0  0  0  0  0  0
    3.0972   -5.6809    5.5639 H   0  0  0  0  0  0  0  0  0  0  0  0
    1.4125   -5.9678    3.2307 H   0  0  0  0  0  0  0  0  0  0  0  0
    1.0708   -5.4514    4.7933 H   0  0  0  0  0  0  0  0  0  0  0  0
    0.6213   -3.6916    2.9338 H   0  0  0  0  0  0  0  0  0  0  0  0
    1.2536   -3.2502    4.4452 H   0  0  0  0  0  0  0  0  0  0  0  0
    3.0551   -0.8119    2.5702 H   0  0  0  0  0  0  0  0  0  0  0  0
    2.2536   -1.1976    4.0734 H   0  0  0  0  0  0  0  0  0  0  0  0
    1.3624   -1.2384    2.5767 H   0  0  0  0  0  0  0  0  0  0  0  0
    3.4479   -3.0432    4.9152 H   0  0  0  0  0  0  0  0  0  0  0  0
    4.8298   -1.3924    3.8267 H   0  0  0  0  0  0  0  0  0  0  0  0
    5.7986   -2.6639    4.5211 H   0  0  0  0  0  0  0  0  0  0  0  0
    5.1809   -2.0907    1.7816 H   0  0  0  0  0  0  0  0  0  0  0  0
    6.5548   -2.6950    2.4468 H   0  0  0  0  0  0  0  0  0  0  0  0
    4.1134   -5.7028    0.3707 H   0  0  0  0  0  0  0  0  0  0  0  0
    4.3051   -7.1123    1.7628 H   0  0  0  0  0  0  0  0  0  0  0  0
    2.2872   -4.9673   -0.0692 H   0  0  0  0  0  0  0  0  0  0  0  0
    1.6651   -5.0716    1.4317 H   0  0  0  0  0  0  0  0  0  0  0  0
    1.8599   -2.7604    0.8558 H   0  0  0  0  0  0  0  0  0  0  0  0
  1  2  1  0
  1 28  1  0
  1 29  1  0
  1 30  1  0
  2  7  1  0
  2  3  1  0
  2 31  1  6
  3  4  1  0
  3 32  1  0
  3 33  1  0
  4  5  1  0
  4 34  1  0
  4 35  1  0
  5 27  1  0
  5  6  1  6
  5  8  1  0
  6  7  1  0
  7 36  1  0
  7 37  1  0
  8  9  1  0
  8 10  1  0
  8 38  1  6
  9 39  1  0
  9 40  1  0
  9 41  1  0
 10 23  1  0
 10 11  1  0
 10 42  1  1
 11 12  1  0
 11 43  1  0
 11 44  1  0
 12 13  1  0
 12 45  1  0
 12 46  1  0
 13 23  1  0
 13 14  1  0
 13 47  1  1
 14 20  1  0
 14 15  1  0
 14 48  1  1
 15 16  1  0
 15 49  1  0
 15 50  1  0
 16 17  1  0
 16 51  1  0
 16 52  1  0
 17 18  1  0
 17 53  1  0
 17 54  1  0
 18 27  1  0
 18 19  1  6
 18 20  1  0
 19 55  1  0
 19 56  1  0
 19 57  1  0
 20 21  1  0
 20 58  1  1
 21 22  1  0
 21 59  1  0
 21 60  1  0
 23 22  1  1
 22 61  1  0
 22 62  1  0
 23 24  1  0
 24 25  1  0
 24 26  1  0
 24 63  1  6
 25 64  1  0
 26 27  1  0
 26 65  1  0
 26 66  1  0
 27 67  1  6
M  END
>  <i_m_ct_stereo_status>  (392) 
1

>  <s_m_source_file>  (392) 
/var/tmp/pbs.5076255.sched01/tmp6w_bron9/120d4r_aq7a.sdf

>  <i_m_source_file_index>  (392) 
29

>  <i_lp_mmshare_version>  (392) 
48012

>  <i_f3d_flags>  (392) 
0

>  <s_epik_input>  (392) 
TzFbQ0gyXVtDQEhdKFtDSDNdKVtDSDJdW0NIMl1bQ0BAXTEyW0NAQEhdM1tDQF00KFtDSDNdKVtDQEhdNVtDSF0oW0NIMl1bQ0gyXVtDSDJdNClbQ0BASF02W0NAXShbQ0gyXVtDSDJdNSkoW0NAQEhdKFtPSF0pW0NIMl0zKVtDQEhdKFtDQEBIXTJbQ0gzXSlbQ0gyXVtDSDJdNg==

>  <s_epik_cmdline>  (392) 
J2VwaWtfcHl0aG9uJywgJy1waHQnLCAnMi4wJywgJy1waCcsICc3LjAnLCAnLXRuJywgJzgnLCAnLW1hJywgJzIwMCcsICctaW1hZScsICc8aW5maWxlLm1hZT4nLCAnLW9tYWUnLCAnPG91dGZpbGUubWFlPic=

>  <r_lp_tautomer_probability>  (392) 
1

>  <r_epik_Ionization_Penalty>  (392) 
2.37717e-06

>  <r_epik_Ionization_Penalty_Charging>  (392) 
0

>  <r_epik_Ionization_Penalty_Neutral>  (392) 
2.37717e-06

>  <r_epik_State_Penalty>  (392) 
-0

>  <r_epik_Charging_Adjusted_Penalty>  (392) 
0

>  <i_epik_Tot_Q>  (392) 
0

>  <i_epik_Tot_abs_Q>  (392) 
0

>  <s_lp_Force_Field>  (392) 
OPLS3e

>  <r_lp_Energy>  (392) 
277.974

>  <b_lp_Chiralities_Consistent>  (392) 
1

>  <s_lp_Variant>  (392) 
101:0-1

>  <s_i_glide_gridfile>  (392) 
pfpi4k_grid

>  <i_i_glide_lignum>  (392) 
29

>  <i_i_glide_rotatable_bonds>  (392) 
1

>  <r_i_docking_score>  (392) 
-2.51267

>  <r_i_glide_ligand_efficiency>  (392) 
-0.0930619

>  <r_i_glide_ligand_efficiency_sa>  (392) 
-0.279186

>  <r_i_glide_ligand_efficiency_ln>  (392) 
-0.584908

>  <r_i_glide_gscore>  (392) 
-2.51267

>  <r_i_glide_lipo>  (392) 
-0.435806

>  <r_i_glide_hbond>  (392) 
0

>  <r_i_glide_metal>  (392) 
-0

>  <r_i_glide_rewards>  (392) 
-0.868746

>  <r_i_glide_evdw>  (392) 
-26.3133

>  <r_i_glide_ecoul>  (392) 
0.4977

>  <r_i_glide_erotb>  (392) 
0

>  <r_i_glide_esite>  (392) 
0

>  <r_i_glide_emodel>  (392) 
-25.654

>  <r_i_glide_energy>  (392) 
-25.8156

>  <r_i_glide_einternal>  (392) 
0.314925

>  <r_i_glide_intrahb_reward>  (392) 
-0

>  <i_i_glide_confnum>  (392) 
2

>  <i_i_glide_posenum>  (392) 
23

>  <r_i_glide_eff_state_penalty>  (392) 
0

>  <ligand_id>  (392) 
101

>  <original_smiles>  (392) 
CC1CCC2(OC1)C(C)C1CCC3C4CCCC5(C)C4CCC31C(O)CC52

>  <smiles>  (392) 
[H]OC1([H])C([H])([H])C2([H])C3(OC([H])([H])C([H])(C([H])([H])[H])C([H])([H])C3([H])[H])C([H])(C([H])([H])[H])C3([H])C([H])([H])C([H])([H])C4([H])C5([H])C([H])([H])C([H])([H])C([H])([H])C2(C([H])([H])[H])C5([H])C([H])([H])C([H])([H])C143

$$$$
101:0:2
     RDKit          3D

 67 72  0  0  1  0  0  0  0  0999 V2000
    0.3917   -8.1768    3.4479 C   0  0  0  0  0  0  0  0  0  0  0  0
    0.8143   -6.9942    2.6073 C   0  0  2  0  0  0  0  0  0  0  0  0
    1.4079   -7.4205    1.2849 C   0  0  0  0  0  0  0  0  0  0  0  0
    2.0686   -6.1995    0.5787 C   0  0  0  0  0  0  0  0  0  0  0  0
    3.0190   -5.3240    1.4489 C   0  0  1  0  0  0  0  0  0  0  0  0
    2.1759   -5.0788    2.5746 O   0  0  0  0  0  0  0  0  0  0  0  0
    1.7764   -6.1235    3.4267 C   0  0  0  0  0  0  0  0  0  0  0  0
    4.3596   -6.1873    1.9923 C   0  0  1  0  0  0  0  0  0  0  0  0
    4.2822   -7.7346    1.8935 C   0  0  0  0  0  0  0  0  0  0  0  0
    5.8122   -5.8584    1.4459 C   0  0  2  0  0  0  0  0  0  0  0  0
    7.1173   -5.5346    2.2333 C   0  0  0  0  0  0  0  0  0  0  0  0
    7.8178   -4.3756    1.4058 C   0  0  0  0  0  0  0  0  0  0  0  0
    6.8567   -3.9750    0.2610 C   0  0  2  0  0  0  0  0  0  0  0  0
    6.2951   -2.6470   -0.4760 C   0  0  2  0  0  0  0  0  0  0  0  0
    6.2211   -1.2132    0.0904 C   0  0  0  0  0  0  0  0  0  0  0  0
    4.8155   -0.6248    0.4473 C   0  0  0  0  0  0  0  0  0  0  0  0
    3.5158   -1.2704   -0.1419 C   0  0  0  0  0  0  0  0  0  0  0  0
    3.5061   -2.8281   -0.3775 C   0  0  1  0  0  0  0  0  0  0  0  0
    2.3892   -3.0957   -1.4263 C   0  0  0  0  0  0  0  0  0  0  0  0
    4.8953   -2.9212   -1.1804 C   0  0  2  0  0  0  0  0  0  0  0  0
    5.0251   -4.2286   -1.8359 C   0  0  0  0  0  0  0  0  0  0  0  0
    5.0339   -5.1199   -0.6385 C   0  0  0  0  0  0  0  0  0  0  0  0
    5.6223   -4.5739    0.7572 C   0  0  1  0  0  0  0  0  0  0  0  0
    5.1055   -3.5685    2.0037 C   0  0  1  0  0  0  0  0  0  0  0  0
    5.8974   -2.5260    2.4831 O   0  0  0  0  0  0  0  0  0  0  0  0
    3.7189   -3.0503    2.1459 C   0  0  0  0  0  0  0  0  0  0  0  0
    3.0484   -3.6896    0.9935 C   0  0  2  0  0  0  0  0  0  0  0  0
    1.2604   -8.7532    3.7745 H   0  0  0  0  0  0  0  0  0  0  0  0
   -0.2555   -8.8172    2.8590 H   0  0  0  0  0  0  0  0  0  0  0  0
   -0.1400   -7.8245    4.3257 H   0  0  0  0  0  0  0  0  0  0  0  0
   -0.0436   -6.3655    2.3502 H   0  0  0  0  0  0  0  0  0  0  0  0
    1.9800   -8.3051    1.3603 H   0  0  0  0  0  0  0  0  0  0  0  0
    0.6859   -7.8851    0.6106 H   0  0  0  0  0  0  0  0  0  0  0  0
    2.6187   -6.6235   -0.2346 H   0  0  0  0  0  0  0  0  0  0  0  0
    1.2960   -5.5893    0.0893 H   0  0  0  0  0  0  0  0  0  0  0  0
    1.2820   -5.6653    4.2878 H   0  0  0  0  0  0  0  0  0  0  0  0
    2.6058   -6.6808    3.8659 H   0  0  0  0  0  0  0  0  0  0  0  0
    4.4240   -6.0202    3.0596 H   0  0  0  0  0  0  0  0  0  0  0  0
    4.0483   -8.0593    0.8682 H   0  0  0  0  0  0  0  0  0  0  0  0
    3.5637   -8.1446    2.6060 H   0  0  0  0  0  0  0  0  0  0  0  0
    5.1590   -8.2800    2.1852 H   0  0  0  0  0  0  0  0  0  0  0  0
    6.1222   -6.6913    0.8070 H   0  0  0  0  0  0  0  0  0  0  0  0
    6.9186   -5.2713    3.2748 H   0  0  0  0  0  0  0  0  0  0  0  0
    7.7537   -6.4157    2.2798 H   0  0  0  0  0  0  0  0  0  0  0  0
    8.0488   -3.5429    2.0191 H   0  0  0  0  0  0  0  0  0  0  0  0
    8.7789   -4.7191    1.0402 H   0  0  0  0  0  0  0  0  0  0  0  0
    7.2996   -4.5774   -0.5200 H   0  0  0  0  0  0  0  0  0  0  0  0
    7.0084   -2.5442   -1.2931 H   0  0  0  0  0  0  0  0  0  0  0  0
    6.9664   -1.0391    0.8657 H   0  0  0  0  0  0  0  0  0  0  0  0
    6.5604   -0.5863   -0.7167 H   0  0  0  0  0  0  0  0  0  0  0  0
    4.7462   -0.4662    1.5177 H   0  0  0  0  0  0  0  0  0  0  0  0
    4.8040    0.4050    0.1005 H   0  0  0  0  0  0  0  0  0  0  0  0
    2.6435   -0.9500    0.4216 H   0  0  0  0  0  0  0  0  0  0  0  0
    3.3675   -0.7900   -1.1047 H   0  0  0  0  0  0  0  0  0  0  0  0
    2.2085   -4.1314   -1.6514 H   0  0  0  0  0  0  0  0  0  0  0  0
    2.5376   -2.5471   -2.3622 H   0  0  0  0  0  0  0  0  0  0  0  0
    1.4405   -2.7581   -1.0501 H   0  0  0  0  0  0  0  0  0  0  0  0
    4.8355   -2.2262   -2.0127 H   0  0  0  0  0  0  0  0  0  0  0  0
    4.2275   -4.4678   -2.5417 H   0  0  0  0  0  0  0  0  0  0  0  0
    5.9280   -4.2742   -2.4175 H   0  0  0  0  0  0  0  0  0  0  0  0
    4.1000   -5.5577   -0.6551 H   0  0  0  0  0  0  0  0  0  0  0  0
    5.5871   -5.9731   -0.9765 H   0  0  0  0  0  0  0  0  0  0  0  0
    5.1779   -4.1151    2.9366 H   0  0  0  0  0  0  0  0  0  0  0  0
    5.3645   -1.9273    2.9904 H   0  0  0  0  0  0  0  0  0  0  0  0
    3.3466   -3.2860    3.1420 H   0  0  0  0  0  0  0  0  0  0  0  0
    3.5922   -1.9804    2.2088 H   0  0  0  0  0  0  0  0  0  0  0  0
    2.0095   -3.3665    1.1140 H   0  0  0  0  0  0  0  0  0  0  0  0
  1  2  1  0
  1 28  1  0
  1 29  1  0
  1 30  1  0
  2  7  1  0
  2  3  1  0
  2 31  1  6
  3  4  1  0
  3 32  1  0
  3 33  1  0
  4  5  1  0
  4 34  1  0
  4 35  1  0
  5 27  1  0
  5  6  1  1
  5  8  1  0
  6  7  1  0
  7 36  1  0
  7 37  1  0
  8  9  1  0
  8 10  1  0
  8 38  1  1
  9 39  1  0
  9 40  1  0
  9 41  1  0
 10 23  1  0
 10 11  1  0
 10 42  1  6
 11 12  1  0
 11 43  1  0
 11 44  1  0
 12 13  1  0
 12 45  1  0
 12 46  1  0
 13 23  1  0
 13 14  1  0
 13 47  1  6
 14 20  1  0
 14 15  1  0
 14 48  1  6
 15 16  1  0
 15 49  1  0
 15 50  1  0
 16 17  1  0
 16 51  1  0
 16 52  1  0
 17 18  1  0
 17 53  1  0
 17 54  1  0
 18 27  1  0
 18 19  1  6
 18 20  1  0
 19 55  1  0
 19 56  1  0
 19 57  1  0
 20 21  1  0
 20 58  1  6
 21 22  1  0
 21 59  1  0
 21 60  1  0
 23 22  1  6
 22 61  1  0
 22 62  1  0
 23 24  1  0
 24 25  1  0
 24 26  1  0
 24 63  1  1
 25 64  1  0
 26 27  1  0
 26 65  1  0
 26 66  1  0
 27 67  1  1
M  END
>  <i_m_ct_stereo_status>  (393) 
1

>  <s_m_source_file>  (393) 
/var/tmp/pbs.5076255.sched01/tmp6w_bron9/120d4r_aq7a.sdf

>  <i_m_source_file_index>  (393) 
29

>  <i_lp_mmshare_version>  (393) 
48012

>  <i_f3d_flags>  (393) 
0

>  <s_epik_input>  (393) 
TzFbQ0gyXVtDQEhdKFtDSDNdKVtDSDJdW0NIMl1bQ0BAXTEyW0NAQEhdM1tDQF00KFtDSDNdKVtDQEhdNVtDSF0oW0NIMl1bQ0gyXVtDSDJdNClbQ0BASF02W0NAXShbQ0gyXVtDSDJdNSkoW0NAQEhdKFtPSF0pW0NIMl0zKVtDQEhdKFtDQEBIXTJbQ0gzXSlbQ0gyXVtDSDJdNg==

>  <s_epik_cmdline>  (393) 
J2VwaWtfcHl0aG9uJywgJy1waHQnLCAnMi4wJywgJy1waCcsICc3LjAnLCAnLXRuJywgJzgnLCAnLW1hJywgJzIwMCcsICctaW1hZScsICc8aW5maWxlLm1hZT4nLCAnLW9tYWUnLCAnPG91dGZpbGUubWFlPic=

>  <r_lp_tautomer_probability>  (393) 
1

>  <r_epik_Ionization_Penalty>  (393) 
2.37717e-06

>  <r_epik_Ionization_Penalty_Charging>  (393) 
0

>  <r_epik_Ionization_Penalty_Neutral>  (393) 
2.37717e-06

>  <r_epik_State_Penalty>  (393) 
-0

>  <r_epik_Charging_Adjusted_Penalty>  (393) 
0

>  <i_epik_Tot_Q>  (393) 
0

>  <i_epik_Tot_abs_Q>  (393) 
0

>  <s_lp_Force_Field>  (393) 
OPLS3e

>  <r_lp_Energy>  (393) 
277.974

>  <b_lp_Chiralities_Consistent>  (393) 
1

>  <s_lp_Variant>  (393) 
101:0-1

>  <s_i_glide_gridfile>  (393) 
pfpi4k_grid

>  <i_i_glide_lignum>  (393) 
29

>  <i_i_glide_rotatable_bonds>  (393) 
1

>  <r_i_docking_score>  (393) 
-1.57891

>  <r_i_glide_ligand_efficiency>  (393) 
-0.058478

>  <r_i_glide_ligand_efficiency_sa>  (393) 
-0.175434

>  <r_i_glide_ligand_efficiency_ln>  (393) 
-0.367543

>  <r_i_glide_gscore>  (393) 
-1.57891

>  <r_i_glide_lipo>  (393) 
-0.655781

>  <r_i_glide_hbond>  (393) 
0

>  <r_i_glide_metal>  (393) 
-0

>  <r_i_glide_rewards>  (393) 
-0.868746

>  <r_i_glide_evdw>  (393) 
-0.491077

>  <r_i_glide_ecoul>  (393) 
-0.198835

>  <r_i_glide_erotb>  (393) 
0

>  <r_i_glide_esite>  (393) 
0

>  <r_i_glide_emodel>  (393) 
-0.0608279

>  <r_i_glide_energy>  (393) 
-0.689913

>  <r_i_glide_einternal>  (393) 
0.942289

>  <r_i_glide_intrahb_reward>  (393) 
-0

>  <i_i_glide_confnum>  (393) 
2

>  <i_i_glide_posenum>  (393) 
6

>  <r_i_glide_eff_state_penalty>  (393) 
0

>  <ligand_id>  (393) 
101

>  <original_smiles>  (393) 
CC1CCC2(OC1)C(C)C1CCC3C4CCCC5(C)C4CCC31C(O)CC52

>  <smiles>  (393) 
[H]OC1([H])C([H])([H])C2([H])C3(OC([H])([H])C([H])(C([H])([H])[H])C([H])([H])C3([H])[H])C([H])(C([H])([H])[H])C3([H])C([H])([H])C([H])([H])C4([H])C5([H])C([H])([H])C([H])([H])C([H])([H])C2(C([H])([H])[H])C5([H])C([H])([H])C([H])([H])C143

$$$$
102:0:0
     RDKit          3D

 35 38  0  0  1  0  0  0  0  0999 V2000
   -1.7643   -9.2057    2.2963 C   0  0  0  0  0  0  0  0  0  0  0  0
   -1.9436   -8.2104    3.2906 O   0  0  0  0  0  0  0  0  0  0  0  0
   -0.8291   -7.5314    3.7345 C   0  0  0  0  0  0  0  0  0  0  0  0
   -1.0092   -6.6592    4.8241 C   0  0  0  0  0  0  0  0  0  0  0  0
    0.0575   -5.8908    5.3303 C   0  0  0  0  0  0  0  0  0  0  0  0
    1.3268   -5.9862    4.7352 C   0  0  0  0  0  0  0  0  0  0  0  0
    1.5258   -6.8525    3.6401 C   0  0  0  0  0  0  0  0  0  0  0  0
    2.8926   -6.9229    2.9732 C   0  0  0  0  0  0  0  0  0  0  0  0
    2.9916   -6.1021    1.7735 N   0  0  0  0  0  0  0  0  0  0  0  0
    1.8895   -5.8552    1.0076 N   0  0  0  0  0  0  0  0  0  0  0  0
    2.2182   -5.0473    0.0466 N   0  0  0  0  0  0  0  0  0  0  0  0
    3.5897   -4.8380    0.1072 C   0  0  0  0  0  0  0  0  0  0  0  0
    4.5242   -4.1228   -0.6897 C   0  0  0  0  0  0  0  0  0  0  0  0
    4.1507   -3.3979   -1.8495 N   0  0  0  0  0  0  0  0  0  0  0  0
    3.0153   -2.7319   -2.1018 C   0  0  0  0  0  0  0  0  0  0  0  0
    3.0238   -2.1301   -3.2988 N   0  0  0  0  0  0  0  0  0  0  0  0
    4.2599   -2.4343   -3.8585 N   0  0  0  0  0  0  0  0  0  0  0  0
    4.8899   -3.1807   -2.9434 C   0  0  0  0  0  0  0  0  0  0  0  0
    5.8242   -4.1546   -0.3013 N   0  0  0  0  0  0  0  0  0  0  0  0
    6.1851   -4.8468    0.7860 C   0  0  0  0  0  0  0  0  0  0  0  0
    5.4228   -5.5711    1.6107 N   0  0  0  0  0  0  0  0  0  0  0  0
    4.1186   -5.5278    1.2185 C   0  0  0  0  0  0  0  0  0  0  0  0
    0.4566   -7.6356    3.1475 C   0  0  0  0  0  0  0  0  0  0  0  0
   -2.7264   -9.6663    2.0811 H   0  0  0  0  0  0  0  0  0  0  0  0
   -1.0916   -9.9956    2.6343 H   0  0  0  0  0  0  0  0  0  0  0  0
   -1.3859   -8.7790    1.3660 H   0  0  0  0  0  0  0  0  0  0  0  0
   -1.9887   -6.5715    5.2684 H   0  0  0  0  0  0  0  0  0  0  0  0
   -0.1032   -5.2268    6.1660 H   0  0  0  0  0  0  0  0  0  0  0  0
    2.1439   -5.3894    5.1186 H   0  0  0  0  0  0  0  0  0  0  0  0
    3.6540   -6.5844    3.6768 H   0  0  0  0  0  0  0  0  0  0  0  0
    3.1382   -7.9536    2.7163 H   0  0  0  0  0  0  0  0  0  0  0  0
    2.1902   -2.6597   -1.4125 H   0  0  0  0  0  0  0  0  0  0  0  0
    5.8898   -3.5639   -3.0829 H   0  0  0  0  0  0  0  0  0  0  0  0
    7.2365   -4.8044    1.0274 H   0  0  0  0  0  0  0  0  0  0  0  0
    0.6343   -8.2791    2.2995 H   0  0  0  0  0  0  0  0  0  0  0  0
  1  2  1  0
  1 24  1  0
  1 25  1  0
  1 26  1  0
  2  3  1  0
  3 23  2  0
  3  4  1  0
  4  5  2  0
  4 27  1  0
  5  6  1  0
  5 28  1  0
  6  7  2  0
  6 29  1  0
  7  8  1  0
  7 23  1  0
  8  9  1  0
  8 30  1  0
  8 31  1  0
  9 22  1  0
  9 10  1  0
 10 11  2  0
 11 12  1  0
 12 22  2  0
 12 13  1  0
 13 14  1  0
 13 19  2  0
 14 18  1  0
 14 15  1  0
 15 16  2  0
 15 32  1  0
 16 17  1  0
 17 18  2  0
 18 33  1  0
 19 20  1  0
 20 21  2  0
 20 34  1  0
 21 22  1  0
 23 35  1  0
M  END
>  <i_m_ct_stereo_status>  (394) 
1

>  <s_m_source_file>  (394) 
/var/tmp/pbs.5076255.sched01/tmp6w_bron9/120d4r_aq7a.sdf

>  <i_m_source_file_index>  (394) 
30

>  <i_lp_mmshare_version>  (394) 
48012

>  <i_f3d_flags>  (394) 
0

>  <s_epik_input>  (394) 
W0NIM11PYzFbY0hdW2NIXVtjSF1jKFtjSF0xKVtDSDJdbihubjIpYyhjMjMpbltjSF1uYzMtbjRbY0hdbm5bY0hdNA==

>  <s_epik_cmdline>  (394) 
J2VwaWtfcHl0aG9uJywgJy1waHQnLCAnMi4wJywgJy1waCcsICc3LjAnLCAnLXRuJywgJzgnLCAnLW1hJywgJzIwMCcsICctaW1hZScsICc8aW5maWxlLm1hZT4nLCAnLW9tYWUnLCAnPG91dGZpbGUubWFlPic=

>  <r_lp_tautomer_probability>  (394) 
1

>  <r_epik_Ionization_Penalty>  (394) 
7.19582e-07

>  <r_epik_Ionization_Penalty_Charging>  (394) 
0

>  <r_epik_Ionization_Penalty_Neutral>  (394) 
7.19582e-07

>  <r_epik_State_Penalty>  (394) 
-0

>  <r_epik_Charging_Adjusted_Penalty>  (394) 
0

>  <i_epik_Tot_Q>  (394) 
0

>  <i_epik_Tot_abs_Q>  (394) 
0

>  <s_lp_Force_Field>  (394) 
OPLS3e

>  <r_lp_Energy>  (394) 
30.4802

>  <b_lp_Chiralities_Consistent>  (394) 
1

>  <s_lp_Variant>  (394) 
102:0-1

>  <s_i_glide_gridfile>  (394) 
pfpi4k_grid

>  <i_i_glide_lignum>  (394) 
30

>  <i_i_glide_rotatable_bonds>  (394) 
4

>  <r_i_docking_score>  (394) 
-3.9546

>  <r_i_glide_ligand_efficiency>  (394) 
-0.171939

>  <r_i_glide_ligand_efficiency_sa>  (394) 
-0.488972

>  <r_i_glide_ligand_efficiency_ln>  (394) 
-0.956259

>  <r_i_glide_gscore>  (394) 
-3.9546

>  <r_i_glide_lipo>  (394) 
-0.293837

>  <r_i_glide_hbond>  (394) 
0

>  <r_i_glide_metal>  (394) 
-0

>  <r_i_glide_rewards>  (394) 
-1.7494

>  <r_i_glide_evdw>  (394) 
-31.3149

>  <r_i_glide_ecoul>  (394) 
-4.89459

>  <r_i_glide_erotb>  (394) 
0.583901

>  <r_i_glide_esite>  (394) 
-0.195326

>  <r_i_glide_emodel>  (394) 
-44.2514

>  <r_i_glide_energy>  (394) 
-36.2095

>  <r_i_glide_einternal>  (394) 
2.13079

>  <r_i_glide_intrahb_reward>  (394) 
-0

>  <i_i_glide_confnum>  (394) 
4

>  <i_i_glide_posenum>  (394) 
17

>  <r_i_glide_eff_state_penalty>  (394) 
0

>  <ligand_id>  (394) 
102

>  <original_smiles>  (394) 
COc1cccc(Cn2nnc3c(-n4cnnc4)ncnc32)c1

>  <smiles>  (394) 
[H]c1nc(-n2c([H])nnc2[H])c2nnn(C([H])([H])c3c([H])c([H])c([H])c(OC([H])([H])[H])c3[H])c2n1

$$$$
102:0:1
     RDKit          3D

 35 38  0  0  1  0  0  0  0  0999 V2000
   -1.6921   -9.3248    2.2607 C   0  0  0  0  0  0  0  0  0  0  0  0
   -1.7817   -8.3008    3.2388 O   0  0  0  0  0  0  0  0  0  0  0  0
   -0.6480   -7.5714    3.5194 C   0  0  0  0  0  0  0  0  0  0  0  0
   -0.7330   -6.6603    4.5895 C   0  0  0  0  0  0  0  0  0  0  0  0
    0.3623   -5.8476    4.9369 C   0  0  0  0  0  0  0  0  0  0  0  0
    1.5618   -5.9393    4.2088 C   0  0  0  0  0  0  0  0  0  0  0  0
    1.6636   -6.8450    3.1328 C   0  0  0  0  0  0  0  0  0  0  0  0
    2.9571   -6.9186    2.3324 C   0  0  0  0  0  0  0  0  0  0  0  0
    3.0261   -5.9253    1.2668 N   0  0  0  0  0  0  0  0  0  0  0  0
    1.9149   -5.6021    0.5422 N   0  0  0  0  0  0  0  0  0  0  0  0
    2.2179   -4.6554   -0.2991 N   0  0  0  0  0  0  0  0  0  0  0  0
    3.5778   -4.4105   -0.1966 C   0  0  0  0  0  0  0  0  0  0  0  0
    4.4726   -3.5433   -0.8687 C   0  0  0  0  0  0  0  0  0  0  0  0
    4.0458   -2.6707   -1.9005 N   0  0  0  0  0  0  0  0  0  0  0  0
    4.5765   -1.4865   -2.2252 C   0  0  0  0  0  0  0  0  0  0  0  0
    4.0091   -0.9411   -3.3045 N   0  0  0  0  0  0  0  0  0  0  0  0
    3.0280   -1.8483   -3.7040 N   0  0  0  0  0  0  0  0  0  0  0  0
    3.0907   -2.8551   -2.8228 C   0  0  0  0  0  0  0  0  0  0  0  0
    5.7719   -3.5667   -0.4755 N   0  0  0  0  0  0  0  0  0  0  0  0
    6.1657   -4.4104    0.4870 C   0  0  0  0  0  0  0  0  0  0  0  0
    5.4364   -5.2829    1.1870 N   0  0  0  0  0  0  0  0  0  0  0  0
    4.1313   -5.2352    0.8033 C   0  0  0  0  0  0  0  0  0  0  0  0
    0.5659   -7.6665    2.7937 C   0  0  0  0  0  0  0  0  0  0  0  0
   -2.6567   -9.8162    2.1594 H   0  0  0  0  0  0  0  0  0  0  0  0
   -0.9589  -10.0837    2.5334 H   0  0  0  0  0  0  0  0  0  0  0  0
   -1.4388   -8.9097    1.2845 H   0  0  0  0  0  0  0  0  0  0  0  0
   -1.6550   -6.5802    5.1467 H   0  0  0  0  0  0  0  0  0  0  0  0
    0.2818   -5.1504    5.7567 H   0  0  0  0  0  0  0  0  0  0  0  0
    2.4021   -5.3143    4.4756 H   0  0  0  0  0  0  0  0  0  0  0  0
    3.8007   -6.7605    3.0074 H   0  0  0  0  0  0  0  0  0  0  0  0
    3.0905   -7.9100    1.8971 H   0  0  0  0  0  0  0  0  0  0  0  0
    5.3911   -1.0207   -1.6922 H   0  0  0  0  0  0  0  0  0  0  0  0
    2.4669   -3.7345   -2.8896 H   0  0  0  0  0  0  0  0  0  0  0  0
    7.2166   -4.3707    0.7317 H   0  0  0  0  0  0  0  0  0  0  0  0
    0.6712   -8.3516    1.9637 H   0  0  0  0  0  0  0  0  0  0  0  0
  1  2  1  0
  1 24  1  0
  1 25  1  0
  1 26  1  0
  2  3  1  0
  3 23  2  0
  3  4  1  0
  4  5  2  0
  4 27  1  0
  5  6  1  0
  5 28  1  0
  6  7  2  0
  6 29  1  0
  7  8  1  0
  7 23  1  0
  8  9  1  0
  8 30  1  0
  8 31  1  0
  9 22  1  0
  9 10  1  0
 10 11  2  0
 11 12  1  0
 12 22  2  0
 12 13  1  0
 13 14  1  0
 13 19  2  0
 14 18  1  0
 14 15  1  0
 15 16  2  0
 15 32  1  0
 16 17  1  0
 17 18  2  0
 18 33  1  0
 19 20  1  0
 20 21  2  0
 20 34  1  0
 21 22  1  0
 23 35  1  0
M  END
>  <i_m_ct_stereo_status>  (395) 
1

>  <s_m_source_file>  (395) 
/var/tmp/pbs.5076255.sched01/tmp6w_bron9/120d4r_aq7a.sdf

>  <i_m_source_file_index>  (395) 
30

>  <i_lp_mmshare_version>  (395) 
48012

>  <i_f3d_flags>  (395) 
0

>  <s_epik_input>  (395) 
W0NIM11PYzFbY0hdW2NIXVtjSF1jKFtjSF0xKVtDSDJdbihubjIpYyhjMjMpbltjSF1uYzMtbjRbY0hdbm5bY0hdNA==

>  <s_epik_cmdline>  (395) 
J2VwaWtfcHl0aG9uJywgJy1waHQnLCAnMi4wJywgJy1waCcsICc3LjAnLCAnLXRuJywgJzgnLCAnLW1hJywgJzIwMCcsICctaW1hZScsICc8aW5maWxlLm1hZT4nLCAnLW9tYWUnLCAnPG91dGZpbGUubWFlPic=

>  <r_lp_tautomer_probability>  (395) 
1

>  <r_epik_Ionization_Penalty>  (395) 
7.19582e-07

>  <r_epik_Ionization_Penalty_Charging>  (395) 
0

>  <r_epik_Ionization_Penalty_Neutral>  (395) 
7.19582e-07

>  <r_epik_State_Penalty>  (395) 
-0

>  <r_epik_Charging_Adjusted_Penalty>  (395) 
0

>  <i_epik_Tot_Q>  (395) 
0

>  <i_epik_Tot_abs_Q>  (395) 
0

>  <s_lp_Force_Field>  (395) 
OPLS3e

>  <r_lp_Energy>  (395) 
30.4802

>  <b_lp_Chiralities_Consistent>  (395) 
1

>  <s_lp_Variant>  (395) 
102:0-1

>  <s_i_glide_gridfile>  (395) 
pfpi4k_grid

>  <i_i_glide_lignum>  (395) 
30

>  <i_i_glide_rotatable_bonds>  (395) 
4

>  <r_i_docking_score>  (395) 
-3.62873

>  <r_i_glide_ligand_efficiency>  (395) 
-0.157771

>  <r_i_glide_ligand_efficiency_sa>  (395) 
-0.44868

>  <r_i_glide_ligand_efficiency_ln>  (395) 
-0.877461

>  <r_i_glide_gscore>  (395) 
-3.62873

>  <r_i_glide_lipo>  (395) 
-0.290504

>  <r_i_glide_hbond>  (395) 
0

>  <r_i_glide_metal>  (395) 
-0

>  <r_i_glide_rewards>  (395) 
-1.52614

>  <r_i_glide_evdw>  (395) 
-32.4768

>  <r_i_glide_ecoul>  (395) 
-3.69252

>  <r_i_glide_erotb>  (395) 
0.583901

>  <r_i_glide_esite>  (395) 
-0.218276

>  <r_i_glide_emodel>  (395) 
-43.6762

>  <r_i_glide_energy>  (395) 
-36.1693

>  <r_i_glide_einternal>  (395) 
1.75638

>  <r_i_glide_intrahb_reward>  (395) 
-0

>  <i_i_glide_confnum>  (395) 
4

>  <i_i_glide_posenum>  (395) 
37

>  <r_i_glide_eff_state_penalty>  (395) 
0

>  <ligand_id>  (395) 
102

>  <original_smiles>  (395) 
COc1cccc(Cn2nnc3c(-n4cnnc4)ncnc32)c1

>  <smiles>  (395) 
[H]c1nc(-n2c([H])nnc2[H])c2nnn(C([H])([H])c3c([H])c([H])c([H])c(OC([H])([H])[H])c3[H])c2n1

$$$$
102:0:2
     RDKit          3D

 35 38  0  0  1  0  0  0  0  0999 V2000
   -1.8933   -9.2119    2.7420 C   0  0  0  0  0  0  0  0  0  0  0  0
   -1.0936   -8.2529    2.0639 O   0  0  0  0  0  0  0  0  0  0  0  0
   -0.2193   -7.5420    2.8460 C   0  0  0  0  0  0  0  0  0  0  0  0
   -0.5783   -7.0316    4.1152 C   0  0  0  0  0  0  0  0  0  0  0  0
    0.3506   -6.2990    4.8710 C   0  0  0  0  0  0  0  0  0  0  0  0
    1.6342   -6.0427    4.3593 C   0  0  0  0  0  0  0  0  0  0  0  0
    1.9957   -6.5144    3.0790 C   0  0  0  0  0  0  0  0  0  0  0  0
    3.3780   -6.1917    2.5100 C   0  0  0  0  0  0  0  0  0  0  0  0
    3.3629   -5.2972    1.3526 N   0  0  0  0  0  0  0  0  0  0  0  0
    2.2256   -5.1165    0.6167 N   0  0  0  0  0  0  0  0  0  0  0  0
    2.4660   -4.2559   -0.3223 N   0  0  0  0  0  0  0  0  0  0  0  0
    3.7988   -3.8954   -0.2479 C   0  0  0  0  0  0  0  0  0  0  0  0
    4.6177   -3.0117   -0.9895 C   0  0  0  0  0  0  0  0  0  0  0  0
    4.1028   -2.2642   -2.0692 N   0  0  0  0  0  0  0  0  0  0  0  0
    3.2190   -2.6375   -3.0041 C   0  0  0  0  0  0  0  0  0  0  0  0
    3.0181   -1.6831   -3.9219 N   0  0  0  0  0  0  0  0  0  0  0  0
    3.8231   -0.6123   -3.5312 N   0  0  0  0  0  0  0  0  0  0  0  0
    4.4345   -1.0174   -2.4153 C   0  0  0  0  0  0  0  0  0  0  0  0
    5.9137   -2.8797   -0.6026 N   0  0  0  0  0  0  0  0  0  0  0  0
    6.3721   -3.5937    0.4315 C   0  0  0  0  0  0  0  0  0  0  0  0
    5.7160   -4.4587    1.2128 N   0  0  0  0  0  0  0  0  0  0  0  0
    4.4132   -4.5666    0.8239 C   0  0  0  0  0  0  0  0  0  0  0  0
    1.0657   -7.2772    2.3332 C   0  0  0  0  0  0  0  0  0  0  0  0
   -2.5943   -9.6758    2.0506 H   0  0  0  0  0  0  0  0  0  0  0  0
   -2.4936   -8.8101    3.5587 H   0  0  0  0  0  0  0  0  0  0  0  0
   -1.2420   -9.9878    3.1439 H   0  0  0  0  0  0  0  0  0  0  0  0
   -1.5634   -7.1747    4.5274 H   0  0  0  0  0  0  0  0  0  0  0  0
    0.0686   -5.9244    5.8410 H   0  0  0  0  0  0  0  0  0  0  0  0
    2.3384   -5.4749    4.9479 H   0  0  0  0  0  0  0  0  0  0  0  0
    3.9844   -5.7240    3.2876 H   0  0  0  0  0  0  0  0  0  0  0  0
    3.8981   -7.1123    2.2423 H   0  0  0  0  0  0  0  0  0  0  0  0
    2.7497   -3.6087   -3.0559 H   0  0  0  0  0  0  0  0  0  0  0  0
    5.1351   -0.4035   -1.8695 H   0  0  0  0  0  0  0  0  0  0  0  0
    7.4136   -3.4391    0.6696 H   0  0  0  0  0  0  0  0  0  0  0  0
    1.3281   -7.6511    1.3498 H   0  0  0  0  0  0  0  0  0  0  0  0
  1  2  1  0
  1 24  1  0
  1 25  1  0
  1 26  1  0
  2  3  1  0
  3 23  2  0
  3  4  1  0
  4  5  2  0
  4 27  1  0
  5  6  1  0
  5 28  1  0
  6  7  2  0
  6 29  1  0
  7  8  1  0
  7 23  1  0
  8  9  1  0
  8 30  1  0
  8 31  1  0
  9 22  1  0
  9 10  1  0
 10 11  2  0
 11 12  1  0
 12 22  2  0
 12 13  1  0
 13 14  1  0
 13 19  2  0
 14 18  1  0
 14 15  1  0
 15 16  2  0
 15 32  1  0
 16 17  1  0
 17 18  2  0
 18 33  1  0
 19 20  1  0
 20 21  2  0
 20 34  1  0
 21 22  1  0
 23 35  1  0
M  END
>  <i_m_ct_stereo_status>  (396) 
1

>  <s_m_source_file>  (396) 
/var/tmp/pbs.5076255.sched01/tmp6w_bron9/120d4r_aq7a.sdf

>  <i_m_source_file_index>  (396) 
30

>  <i_lp_mmshare_version>  (396) 
48012

>  <i_f3d_flags>  (396) 
0

>  <s_epik_input>  (396) 
W0NIM11PYzFbY0hdW2NIXVtjSF1jKFtjSF0xKVtDSDJdbihubjIpYyhjMjMpbltjSF1uYzMtbjRbY0hdbm5bY0hdNA==

>  <s_epik_cmdline>  (396) 
J2VwaWtfcHl0aG9uJywgJy1waHQnLCAnMi4wJywgJy1waCcsICc3LjAnLCAnLXRuJywgJzgnLCAnLW1hJywgJzIwMCcsICctaW1hZScsICc8aW5maWxlLm1hZT4nLCAnLW9tYWUnLCAnPG91dGZpbGUubWFlPic=

>  <r_lp_tautomer_probability>  (396) 
1

>  <r_epik_Ionization_Penalty>  (396) 
7.19582e-07

>  <r_epik_Ionization_Penalty_Charging>  (396) 
0

>  <r_epik_Ionization_Penalty_Neutral>  (396) 
7.19582e-07

>  <r_epik_State_Penalty>  (396) 
-0

>  <r_epik_Charging_Adjusted_Penalty>  (396) 
0

>  <i_epik_Tot_Q>  (396) 
0

>  <i_epik_Tot_abs_Q>  (396) 
0

>  <s_lp_Force_Field>  (396) 
OPLS3e

>  <r_lp_Energy>  (396) 
30.4802

>  <b_lp_Chiralities_Consistent>  (396) 
1

>  <s_lp_Variant>  (396) 
102:0-1

>  <s_i_glide_gridfile>  (396) 
pfpi4k_grid

>  <i_i_glide_lignum>  (396) 
30

>  <i_i_glide_rotatable_bonds>  (396) 
4

>  <r_i_docking_score>  (396) 
-3.12685

>  <r_i_glide_ligand_efficiency>  (396) 
-0.13595

>  <r_i_glide_ligand_efficiency_sa>  (396) 
-0.386623

>  <r_i_glide_ligand_efficiency_ln>  (396) 
-0.7561

>  <r_i_glide_gscore>  (396) 
-3.12685

>  <r_i_glide_lipo>  (396) 
-0.0587318

>  <r_i_glide_hbond>  (396) 
0

>  <r_i_glide_metal>  (396) 
-0

>  <r_i_glide_rewards>  (396) 
-1.52148

>  <r_i_glide_evdw>  (396) 
-33.6664

>  <r_i_glide_ecoul>  (396) 
-2.0639

>  <r_i_glide_erotb>  (396) 
0.583901

>  <r_i_glide_esite>  (396) 
-0.137633

>  <r_i_glide_emodel>  (396) 
-39.0988

>  <r_i_glide_energy>  (396) 
-35.7303

>  <r_i_glide_einternal>  (396) 
7.16609

>  <r_i_glide_intrahb_reward>  (396) 
-0

>  <i_i_glide_confnum>  (396) 
4

>  <i_i_glide_posenum>  (396) 
11

>  <r_i_glide_eff_state_penalty>  (396) 
0

>  <ligand_id>  (396) 
102

>  <original_smiles>  (396) 
COc1cccc(Cn2nnc3c(-n4cnnc4)ncnc32)c1

>  <smiles>  (396) 
[H]c1nc(-n2c([H])nnc2[H])c2nnn(C([H])([H])c3c([H])c([H])c([H])c(OC([H])([H])[H])c3[H])c2n1

$$$$
104:0:0
     RDKit          3D

 49 54  0  0  1  0  0  0  0  0999 V2000
    2.2598   -3.3223   -2.1755 C   0  0  0  0  0  0  0  0  0  0  0  0
    3.1486   -2.0766   -2.0766 C   0  0  2  0  0  0  0  0  0  0  0  0
    4.2617   -2.0650   -3.1552 C   0  0  0  0  0  0  0  0  0  0  0  0
    5.5309   -2.8137   -2.7319 C   0  0  0  0  0  0  0  0  0  0  0  0
    6.2318   -2.1829   -1.4994 C   0  0  1  0  0  0  0  0  0  0  0  0
    5.2087   -1.2960   -0.6776 C   0  0  2  0  0  0  0  0  0  0  0  0
    5.6806   -0.6745    0.6356 C   0  0  0  0  0  0  0  0  0  0  0  0
    6.4988   -1.6311    1.4242 C   0  0  2  0  0  0  0  0  0  0  0  0
    7.8234   -1.4748    0.8764 O   0  0  0  0  0  0  0  0  0  0  0  0
    7.8454   -2.8676    0.5836 C   0  0  2  0  0  0  0  0  0  0  0  0
    7.2055   -3.1888   -0.7830 C   0  0  2  0  0  0  0  0  0  0  0  0
    8.2280   -3.6119   -1.6203 O   0  0  0  0  0  0  0  0  0  0  0  0
    6.4427   -4.1927    0.0817 C   0  0  2  0  0  0  0  0  0  0  0  0
    5.1052   -4.7844   -0.2542 C   0  0  0  0  0  0  0  0  0  0  0  0
    4.5657   -5.3632    0.9208 O   0  0  0  0  0  0  0  0  0  0  0  0
    3.9065   -4.4921    1.8190 C   0  0  2  0  0  0  0  0  0  0  0  0
    3.2461   -5.4713    2.8003 C   0  0  0  0  0  0  0  0  0  0  0  0
    2.7768   -3.6867    1.1061 C   0  0  0  0  0  0  0  0  0  0  0  0
    3.0204   -2.2117    0.6760 C   0  0  0  0  0  0  0  0  0  0  0  0
    3.7018   -1.6773   -0.6521 C   0  0  2  0  0  0  0  0  0  0  0  0
    4.7192   -3.6304    2.6121 O   0  0  0  0  0  0  0  0  0  0  0  0
    6.1911   -3.8816    2.4077 O   0  0  0  0  0  0  0  0  0  0  0  0
    6.4976   -3.1758    1.2352 C   0  0  2  0  0  0  0  0  0  0  0  0
    2.7826   -4.2272   -1.9137 H   0  0  0  0  0  0  0  0  0  0  0  0
    1.8757   -3.4423   -3.1787 H   0  0  0  0  0  0  0  0  0  0  0  0
    1.4096   -3.2265   -1.5244 H   0  0  0  0  0  0  0  0  0  0  0  0
    2.4697   -1.2659   -2.3729 H   0  0  0  0  0  0  0  0  0  0  0  0
    3.8845   -2.4898   -4.0757 H   0  0  0  0  0  0  0  0  0  0  0  0
    4.5014   -1.0265   -3.4123 H   0  0  0  0  0  0  0  0  0  0  0  0
    5.3406   -3.8715   -2.6377 H   0  0  0  0  0  0  0  0  0  0  0  0
    6.2573   -2.7283   -3.5370 H   0  0  0  0  0  0  0  0  0  0  0  0
    6.8976   -1.4678   -1.9431 H   0  0  0  0  0  0  0  0  0  0  0  0
    5.1812   -0.4026   -1.3051 H   0  0  0  0  0  0  0  0  0  0  0  0
    6.2483    0.2331    0.4451 H   0  0  0  0  0  0  0  0  0  0  0  0
    4.8633   -0.3177    1.2492 H   0  0  0  0  0  0  0  0  0  0  0  0
    6.5291   -1.3909    2.4893 H   0  0  0  0  0  0  0  0  0  0  0  0
    8.6861   -3.4659    0.9443 H   0  0  0  0  0  0  0  0  0  0  0  0
    8.8145   -2.8742   -1.8259 H   0  0  0  0  0  0  0  0  0  0  0  0
    7.0913   -5.0300    0.3468 H   0  0  0  0  0  0  0  0  0  0  0  0
    4.4239   -4.0596   -0.6575 H   0  0  0  0  0  0  0  0  0  0  0  0
    5.1882   -5.5678   -1.0048 H   0  0  0  0  0  0  0  0  0  0  0  0
    3.9994   -6.1098    3.2689 H   0  0  0  0  0  0  0  0  0  0  0  0
    2.5583   -6.1228    2.2629 H   0  0  0  0  0  0  0  0  0  0  0  0
    2.6783   -4.9742    3.5893 H   0  0  0  0  0  0  0  0  0  0  0  0
    2.3262   -4.2909    0.3225 H   0  0  0  0  0  0  0  0  0  0  0  0
    1.9713   -3.5942    1.8394 H   0  0  0  0  0  0  0  0  0  0  0  0
    1.9888   -1.8764    0.5881 H   0  0  0  0  0  0  0  0  0  0  0  0
    3.3489   -1.6702    1.5510 H   0  0  0  0  0  0  0  0  0  0  0  0
    3.2963   -0.6593   -0.5881 H   0  0  0  0  0  0  0  0  0  0  0  0
  1  2  1  0
  1 24  1  0
  1 25  1  0
  1 26  1  0
  2 20  1  0
  2  3  1  0
  2 27  1  6
  3  4  1  0
  3 28  1  0
  3 29  1  0
  4  5  1  0
  4 30  1  0
  4 31  1  0
  5 11  1  0
  5  6  1  0
  5 32  1  6
  6 20  1  0
  6  7  1  0
  6 33  1  6
  7  8  1  0
  7 34  1  0
  7 35  1  0
  8 23  1  0
  8  9  1  0
  8 36  1  1
  9 10  1  0
 10 23  1  0
 10 11  1  0
 10 37  1  1
 11 12  1  6
 11 13  1  0
 12 38  1  0
 13 23  1  0
 13 14  1  0
 13 39  1  1
 14 15  1  0
 14 40  1  0
 14 41  1  0
 15 16  1  0
 16 17  1  1
 16 18  1  0
 16 21  1  0
 17 42  1  0
 17 43  1  0
 17 44  1  0
 18 19  1  0
 18 45  1  0
 18 46  1  0
 19 20  1  0
 19 47  1  0
 19 48  1  0
 20 49  1  1
 21 22  1  0
 23 22  1  1
M  END
>  <i_m_ct_stereo_status>  (397) 
1

>  <s_m_source_file>  (397) 
/var/tmp/pbs.5076255.sched01/tmp6w_bron9/120d4r_aq7a.sdf

>  <i_m_source_file_index>  (397) 
32

>  <i_lp_mmshare_version>  (397) 
48012

>  <i_f3d_flags>  (397) 
0

>  <s_epik_input>  (397) 
W0NIMl0xW0NIMl1bQ0BASF0oW0NIM10pW0NASF0yW0NIMl1bQ0gyXVtDQF0oW0NIM10pKE9PMylPW0NIMl1bQ0BIXTRbQ0BAXShbQ0BIXTVPNikoW09IXSlbQ0BASF0xW0NAQEhdMltDSDJdW0NASF02W0NAQF0zNDU=

>  <s_epik_cmdline>  (397) 
J2VwaWtfcHl0aG9uJywgJy1waHQnLCAnMi4wJywgJy1waCcsICc3LjAnLCAnLXRuJywgJzgnLCAnLW1hJywgJzIwMCcsICctaW1hZScsICc8aW5maWxlLm1hZT4nLCAnLW9tYWUnLCAnPG91dGZpbGUubWFlPic=

>  <r_lp_tautomer_probability>  (397) 
1

>  <r_epik_Ionization_Penalty>  (397) 
1.17561e-07

>  <r_epik_Ionization_Penalty_Charging>  (397) 
0

>  <r_epik_Ionization_Penalty_Neutral>  (397) 
1.17561e-07

>  <r_epik_State_Penalty>  (397) 
-0

>  <r_epik_Charging_Adjusted_Penalty>  (397) 
0

>  <i_epik_Tot_Q>  (397) 
0

>  <i_epik_Tot_abs_Q>  (397) 
0

>  <s_lp_Force_Field>  (397) 
OPLS3e

>  <r_lp_Energy>  (397) 
111.417

>  <b_lp_Chiralities_Consistent>  (397) 
1

>  <s_lp_Variant>  (397) 
104:0-1

>  <s_i_glide_gridfile>  (397) 
pfpi4k_grid

>  <i_i_glide_lignum>  (397) 
32

>  <i_i_glide_rotatable_bonds>  (397) 
1

>  <r_i_docking_score>  (397) 
-3.34998

>  <r_i_glide_ligand_efficiency>  (397) 
-0.145651

>  <r_i_glide_ligand_efficiency_sa>  (397) 
-0.414213

>  <r_i_glide_ligand_efficiency_ln>  (397) 
-0.810055

>  <r_i_glide_gscore>  (397) 
-3.34998

>  <r_i_glide_lipo>  (397) 
-1.15656

>  <r_i_glide_hbond>  (397) 
0

>  <r_i_glide_metal>  (397) 
-0

>  <r_i_glide_rewards>  (397) 
-1.22199

>  <r_i_glide_evdw>  (397) 
-14.8513

>  <r_i_glide_ecoul>  (397) 
-1.52575

>  <r_i_glide_erotb>  (397) 
0

>  <r_i_glide_esite>  (397) 
0

>  <r_i_glide_emodel>  (397) 
-15.2118

>  <r_i_glide_energy>  (397) 
-16.377

>  <r_i_glide_einternal>  (397) 
0.39406

>  <r_i_glide_intrahb_reward>  (397) 
-0

>  <i_i_glide_confnum>  (397) 
1

>  <i_i_glide_posenum>  (397) 
11

>  <r_i_glide_eff_state_penalty>  (397) 
0

>  <ligand_id>  (397) 
104

>  <original_smiles>  (397) 
CC1CCC2C3CC4OC5C2(O)C2COC(C)(CCC13)OOC425

>  <smiles>  (397) 
[H]OC12C3([H])OC4([H])C([H])([H])C5([H])C([H])(C([H])([H])C([H])([H])C6(C([H])([H])[H])OOC43C1([H])C([H])([H])O6)C([H])(C([H])([H])[H])C([H])([H])C([H])([H])C52[H]

$$$$
104:0:1
     RDKit          3D

 49 54  0  0  1  0  0  0  0  0999 V2000
    2.3665   -5.6594    0.3705 C   0  0  0  0  0  0  0  0  0  0  0  0
    3.6915   -5.6434    1.1466 C   0  0  2  0  0  0  0  0  0  0  0  0
    3.4531   -5.2911    2.6291 C   0  0  0  0  0  0  0  0  0  0  0  0
    3.4461   -3.7807    2.9130 C   0  0  0  0  0  0  0  0  0  0  0  0
    4.7738   -3.0566    2.5685 C   0  0  1  0  0  0  0  0  0  0  0  0
    5.6272   -3.9176    1.5647 C   0  0  2  0  0  0  0  0  0  0  0  0
    6.9274   -3.3044    1.0274 C   0  0  0  0  0  0  0  0  0  0  0  0
    6.8103   -1.8489    0.6903 C   0  0  2  0  0  0  0  0  0  0  0  0
    6.9730   -1.0657    1.8803 O   0  0  0  0  0  0  0  0  0  0  0  0
    5.6415   -0.5900    1.7512 C   0  0  2  0  0  0  0  0  0  0  0  0
    4.5269   -1.5457    2.2604 C   0  0  2  0  0  0  0  0  0  0  0  0
    3.7546   -1.0088    3.3065 O   0  0  0  0  0  0  0  0  0  0  0  0
    4.0234   -1.2464    0.8727 C   0  0  2  0  0  0  0  0  0  0  0  0
    3.0596   -2.0877    0.1565 C   0  0  0  0  0  0  0  0  0  0  0  0
    3.1263   -1.6838   -1.2005 O   0  0  0  0  0  0  0  0  0  0  0  0
    4.1042   -2.2742   -2.0321 C   0  0  2  0  0  0  0  0  0  0  0  0
    3.6269   -1.8153   -3.4203 C   0  0  0  0  0  0  0  0  0  0  0  0
    4.0458   -3.8065   -1.9218 C   0  0  0  0  0  0  0  0  0  0  0  0
    5.0129   -4.5953   -1.0176 C   0  0  0  0  0  0  0  0  0  0  0  0
    4.9067   -4.8570    0.5385 C   0  0  2  0  0  0  0  0  0  0  0  0
    5.4404   -1.8176   -1.8454 O   0  0  0  0  0  0  0  0  0  0  0  0
    5.4506   -0.6467   -0.9194 O   0  0  0  0  0  0  0  0  0  0  0  0
    5.4561   -1.1972    0.3682 C   0  0  2  0  0  0  0  0  0  0  0  0
    1.8843   -4.6940    0.2530 H   0  0  0  0  0  0  0  0  0  0  0  0
    1.6521   -6.3547    0.8136 H   0  0  0  0  0  0  0  0  0  0  0  0
    2.5477   -6.0368   -0.6213 H   0  0  0  0  0  0  0  0  0  0  0  0
    3.9807   -6.6969    1.1478 H   0  0  0  0  0  0  0  0  0  0  0  0
    2.4980   -5.7073    2.9440 H   0  0  0  0  0  0  0  0  0  0  0  0
    4.2051   -5.7772    3.2567 H   0  0  0  0  0  0  0  0  0  0  0  0
    2.5811   -3.3167    2.4317 H   0  0  0  0  0  0  0  0  0  0  0  0
    3.2440   -3.6479    3.9721 H   0  0  0  0  0  0  0  0  0  0  0  0
    5.3532   -3.0639    3.4902 H   0  0  0  0  0  0  0  0  0  0  0  0
    6.0246   -4.6577    2.2587 H   0  0  0  0  0  0  0  0  0  0  0  0
    7.7400   -3.4699    1.7235 H   0  0  0  0  0  0  0  0  0  0  0  0
    7.3118   -3.8505    0.1680 H   0  0  0  0  0  0  0  0  0  0  0  0
    7.5592   -1.5203   -0.0256 H   0  0  0  0  0  0  0  0  0  0  0  0
    5.4849    0.4978    1.8074 H   0  0  0  0  0  0  0  0  0  0  0  0
    3.4887   -0.1471    3.0154 H   0  0  0  0  0  0  0  0  0  0  0  0
    3.6258   -0.2251    0.8028 H   0  0  0  0  0  0  0  0  0  0  0  0
    3.2397   -3.1290    0.2913 H   0  0  0  0  0  0  0  0  0  0  0  0
    2.0752   -1.9021    0.5729 H   0  0  0  0  0  0  0  0  0  0  0  0
    3.5432   -0.7299   -3.4802 H   0  0  0  0  0  0  0  0  0  0  0  0
    2.6292   -2.2067   -3.6181 H   0  0  0  0  0  0  0  0  0  0  0  0
    4.2754   -2.1587   -4.2241 H   0  0  0  0  0  0  0  0  0  0  0  0
    3.0051   -4.0787   -1.7600 H   0  0  0  0  0  0  0  0  0  0  0  0
    4.2805   -4.1612   -2.9236 H   0  0  0  0  0  0  0  0  0  0  0  0
    5.0131   -5.5945   -1.4508 H   0  0  0  0  0  0  0  0  0  0  0  0
    6.0053   -4.2262   -1.2910 H   0  0  0  0  0  0  0  0  0  0  0  0
    5.6473   -5.6596    0.5545 H   0  0  0  0  0  0  0  0  0  0  0  0
  1  2  1  0
  1 24  1  0
  1 25  1  0
  1 26  1  0
  2 20  1  0
  2  3  1  0
  2 27  1  1
  3  4  1  0
  3 28  1  0
  3 29  1  0
  4  5  1  0
  4 30  1  0
  4 31  1  0
  5 11  1  0
  5  6  1  0
  5 32  1  1
  6 20  1  0
  6  7  1  0
  6 33  1  1
  7  8  1  0
  7 34  1  0
  7 35  1  0
  8 23  1  0
  8  9  1  0
  8 36  1  6
  9 10  1  0
 10 23  1  0
 10 11  1  0
 10 37  1  6
 11 12  1  1
 11 13  1  0
 12 38  1  0
 13 23  1  0
 13 14  1  0
 13 39  1  1
 14 15  1  0
 14 40  1  0
 14 41  1  0
 15 16  1  0
 16 17  1  6
 16 18  1  0
 16 21  1  0
 17 42  1  0
 17 43  1  0
 17 44  1  0
 18 19  1  0
 18 45  1  0
 18 46  1  0
 19 20  1  0
 19 47  1  0
 19 48  1  0
 20 49  1  6
 21 22  1  0
 23 22  1  6
M  END
>  <i_m_ct_stereo_status>  (398) 
1

>  <s_m_source_file>  (398) 
/var/tmp/pbs.5076255.sched01/tmp6w_bron9/120d4r_aq7a.sdf

>  <i_m_source_file_index>  (398) 
32

>  <i_lp_mmshare_version>  (398) 
48012

>  <i_f3d_flags>  (398) 
0

>  <s_epik_input>  (398) 
W0NIMl0xW0NIMl1bQ0BASF0oW0NIM10pW0NASF0yW0NIMl1bQ0gyXVtDQF0oW0NIM10pKE9PMylPW0NIMl1bQ0BIXTRbQ0BAXShbQ0BIXTVPNikoW09IXSlbQ0BASF0xW0NAQEhdMltDSDJdW0NASF02W0NAQF0zNDU=

>  <s_epik_cmdline>  (398) 
J2VwaWtfcHl0aG9uJywgJy1waHQnLCAnMi4wJywgJy1waCcsICc3LjAnLCAnLXRuJywgJzgnLCAnLW1hJywgJzIwMCcsICctaW1hZScsICc8aW5maWxlLm1hZT4nLCAnLW9tYWUnLCAnPG91dGZpbGUubWFlPic=

>  <r_lp_tautomer_probability>  (398) 
1

>  <r_epik_Ionization_Penalty>  (398) 
1.17561e-07

>  <r_epik_Ionization_Penalty_Charging>  (398) 
0

>  <r_epik_Ionization_Penalty_Neutral>  (398) 
1.17561e-07

>  <r_epik_State_Penalty>  (398) 
-0

>  <r_epik_Charging_Adjusted_Penalty>  (398) 
0

>  <i_epik_Tot_Q>  (398) 
0

>  <i_epik_Tot_abs_Q>  (398) 
0

>  <s_lp_Force_Field>  (398) 
OPLS3e

>  <r_lp_Energy>  (398) 
111.417

>  <b_lp_Chiralities_Consistent>  (398) 
1

>  <s_lp_Variant>  (398) 
104:0-1

>  <s_i_glide_gridfile>  (398) 
pfpi4k_grid

>  <i_i_glide_lignum>  (398) 
32

>  <i_i_glide_rotatable_bonds>  (398) 
1

>  <r_i_docking_score>  (398) 
-2.09155

>  <r_i_glide_ligand_efficiency>  (398) 
-0.0909369

>  <r_i_glide_ligand_efficiency_sa>  (398) 
-0.258613

>  <r_i_glide_ligand_efficiency_ln>  (398) 
-0.505756

>  <r_i_glide_gscore>  (398) 
-2.09155

>  <r_i_glide_lipo>  (398) 
-0.643343

>  <r_i_glide_hbond>  (398) 
-0.00201795

>  <r_i_glide_metal>  (398) 
-0

>  <r_i_glide_rewards>  (398) 
-1.21094

>  <r_i_glide_evdw>  (398) 
-8.98638

>  <r_i_glide_ecoul>  (398) 
1.45421

>  <r_i_glide_erotb>  (398) 
0

>  <r_i_glide_esite>  (398) 
-0.00406581

>  <r_i_glide_emodel>  (398) 
-6.69448

>  <r_i_glide_energy>  (398) 
-7.53217

>  <r_i_glide_einternal>  (398) 
0.0642253

>  <r_i_glide_intrahb_reward>  (398) 
-0

>  <i_i_glide_confnum>  (398) 
2

>  <i_i_glide_posenum>  (398) 
1

>  <r_i_glide_eff_state_penalty>  (398) 
0

>  <ligand_id>  (398) 
104

>  <original_smiles>  (398) 
CC1CCC2C3CC4OC5C2(O)C2COC(C)(CCC13)OOC425

>  <smiles>  (398) 
[H]OC12C3([H])OC4([H])C([H])([H])C5([H])C([H])(C([H])([H])C([H])([H])C6(C([H])([H])[H])OOC43C1([H])C([H])([H])O6)C([H])(C([H])([H])[H])C([H])([H])C([H])([H])C52[H]

$$$$
104:0:2
     RDKit          3D

 49 54  0  0  1  0  0  0  0  0999 V2000
    2.2452   -5.6094    0.3492 C   0  0  0  0  0  0  0  0  0  0  0  0
    3.5424   -5.6065    1.1841 C   0  0  2  0  0  0  0  0  0  0  0  0
    3.2409   -5.2350    2.6536 C   0  0  0  0  0  0  0  0  0  0  0  0
    3.2316   -3.7270    2.9102 C   0  0  0  0  0  0  0  0  0  0  0  0
    4.5845   -3.0412    2.6277 C   0  0  1  0  0  0  0  0  0  0  0  0
    5.4670   -3.9158    1.6711 C   0  0  2  0  0  0  0  0  0  0  0  0
    6.7889   -3.3358    1.1777 C   0  0  0  0  0  0  0  0  0  0  0  0
    6.7027   -1.8883    0.7868 C   0  0  2  0  0  0  0  0  0  0  0  0
    6.8206   -1.0759    1.9658 O   0  0  0  0  0  0  0  0  0  0  0  0
    5.4972   -0.6142    1.7850 C   0  0  2  0  0  0  0  0  0  0  0  0
    4.3623   -1.5630    2.2502 C   0  0  2  0  0  0  0  0  0  0  0  0
    3.5609   -0.9738    3.2418 O   0  0  0  0  0  0  0  0  0  0  0  0
    3.9432   -1.2627    0.8577 C   0  0  2  0  0  0  0  0  0  0  0  0
    3.0168   -2.0960    0.1178 C   0  0  0  0  0  0  0  0  0  0  0  0
    3.1531   -1.6746   -1.2317 O   0  0  0  0  0  0  0  0  0  0  0  0
    4.1599   -2.2904   -2.0295 C   0  0  2  0  0  0  0  0  0  0  0  0
    3.7371   -1.8380   -3.4354 C   0  0  0  0  0  0  0  0  0  0  0  0
    4.0738   -3.8162   -1.8893 C   0  0  0  0  0  0  0  0  0  0  0  0
    5.0009   -4.6020   -0.9257 C   0  0  0  0  0  0  0  0  0  0  0  0
    4.7971   -4.8511    0.6240 C   0  0  2  0  0  0  0  0  0  0  0  0
    5.4990   -1.8360   -1.7920 O   0  0  0  0  0  0  0  0  0  0  0  0
    5.4470   -0.6588   -0.8503 O   0  0  0  0  0  0  0  0  0  0  0  0
    5.3830   -1.2346    0.4021 C   0  0  2  0  0  0  0  0  0  0  0  0
    1.7950   -4.6309    0.2033 H   0  0  0  0  0  0  0  0  0  0  0  0
    1.4992   -6.2802    0.7929 H   0  0  0  0  0  0  0  0  0  0  0  0
    2.4485   -5.9993   -0.6385 H   0  0  0  0  0  0  0  0  0  0  0  0
    3.8046   -6.6653    1.2013 H   0  0  0  0  0  0  0  0  0  0  0  0
    2.2666   -5.6301    2.9280 H   0  0  0  0  0  0  0  0  0  0  0  0
    3.9624   -5.7170    3.3173 H   0  0  0  0  0  0  0  0  0  0  0  0
    2.3981   -3.2450    2.3893 H   0  0  0  0  0  0  0  0  0  0  0  0
    2.9814   -3.5872    3.9542 H   0  0  0  0  0  0  0  0  0  0  0  0
    5.1230   -3.0545    3.5810 H   0  0  0  0  0  0  0  0  0  0  0  0
    5.8271   -4.6559    2.3820 H   0  0  0  0  0  0  0  0  0  0  0  0
    7.5219   -3.4815    1.9609 H   0  0  0  0  0  0  0  0  0  0  0  0
    7.2320   -3.9061    0.3628 H   0  0  0  0  0  0  0  0  0  0  0  0
    7.4506   -1.5714    0.0581 H   0  0  0  0  0  0  0  0  0  0  0  0
    5.3363    0.4469    1.8377 H   0  0  0  0  0  0  0  0  0  0  0  0
    4.0296   -1.0816    4.0570 H   0  0  0  0  0  0  0  0  0  0  0  0
    3.5561   -0.2470    0.7721 H   0  0  0  0  0  0  0  0  0  0  0  0
    3.2086   -3.1374    0.2511 H   0  0  0  0  0  0  0  0  0  0  0  0
    2.0352   -1.9478    0.5080 H   0  0  0  0  0  0  0  0  0  0  0  0
    3.6702   -0.7523   -3.5028 H   0  0  0  0  0  0  0  0  0  0  0  0
    2.7410   -2.2210   -3.6513 H   0  0  0  0  0  0  0  0  0  0  0  0
    4.4125   -2.2024   -4.2041 H   0  0  0  0  0  0  0  0  0  0  0  0
    3.0247   -4.0497   -1.7466 H   0  0  0  0  0  0  0  0  0  0  0  0
    4.3367   -4.1872   -2.8724 H   0  0  0  0  0  0  0  0  0  0  0  0
    4.9910   -5.6066   -1.3464 H   0  0  0  0  0  0  0  0  0  0  0  0
    5.9983   -4.2486   -1.1604 H   0  0  0  0  0  0  0  0  0  0  0  0
    5.5182   -5.6627    0.6849 H   0  0  0  0  0  0  0  0  0  0  0  0
  1  2  1  0
  1 24  1  0
  1 25  1  0
  1 26  1  0
  2 20  1  0
  2  3  1  0
  2 27  1  1
  3  4  1  0
  3 28  1  0
  3 29  1  0
  4  5  1  0
  4 30  1  0
  4 31  1  0
  5 11  1  0
  5  6  1  0
  5 32  1  1
  6 20  1  0
  6  7  1  0
  6 33  1  1
  7  8  1  0
  7 34  1  0
  7 35  1  0
  8 23  1  0
  8  9  1  0
  8 36  1  6
  9 10  1  0
 10 23  1  0
 10 11  1  0
 10 37  1  6
 11 12  1  1
 11 13  1  0
 12 38  1  0
 13 23  1  0
 13 14  1  0
 13 39  1  1
 14 15  1  0
 14 40  1  0
 14 41  1  0
 15 16  1  0
 16 17  1  6
 16 18  1  0
 16 21  1  0
 17 42  1  0
 17 43  1  0
 17 44  1  0
 18 19  1  0
 18 45  1  0
 18 46  1  0
 19 20  1  0
 19 47  1  0
 19 48  1  0
 20 49  1  1
 21 22  1  0
 23 22  1  6
M  END
>  <i_m_ct_stereo_status>  (399) 
1

>  <s_m_source_file>  (399) 
/var/tmp/pbs.5076255.sched01/tmp6w_bron9/120d4r_aq7a.sdf

>  <i_m_source_file_index>  (399) 
32

>  <i_lp_mmshare_version>  (399) 
48012

>  <i_f3d_flags>  (399) 
0

>  <s_epik_input>  (399) 
W0NIMl0xW0NIMl1bQ0BASF0oW0NIM10pW0NASF0yW0NIMl1bQ0gyXVtDQF0oW0NIM10pKE9PMylPW0NIMl1bQ0BIXTRbQ0BAXShbQ0BIXTVPNikoW09IXSlbQ0BASF0xW0NAQEhdMltDSDJdW0NASF02W0NAQF0zNDU=

>  <s_epik_cmdline>  (399) 
J2VwaWtfcHl0aG9uJywgJy1waHQnLCAnMi4wJywgJy1waCcsICc3LjAnLCAnLXRuJywgJzgnLCAnLW1hJywgJzIwMCcsICctaW1hZScsICc8aW5maWxlLm1hZT4nLCAnLW9tYWUnLCAnPG91dGZpbGUubWFlPic=

>  <r_lp_tautomer_probability>  (399) 
1

>  <r_epik_Ionization_Penalty>  (399) 
1.17561e-07

>  <r_epik_Ionization_Penalty_Charging>  (399) 
0

>  <r_epik_Ionization_Penalty_Neutral>  (399) 
1.17561e-07

>  <r_epik_State_Penalty>  (399) 
-0

>  <r_epik_Charging_Adjusted_Penalty>  (399) 
0

>  <i_epik_Tot_Q>  (399) 
0

>  <i_epik_Tot_abs_Q>  (399) 
0

>  <s_lp_Force_Field>  (399) 
OPLS3e

>  <r_lp_Energy>  (399) 
111.417

>  <b_lp_Chiralities_Consistent>  (399) 
1

>  <s_lp_Variant>  (399) 
104:0-1

>  <s_i_glide_gridfile>  (399) 
pfpi4k_grid

>  <i_i_glide_lignum>  (399) 
32

>  <i_i_glide_rotatable_bonds>  (399) 
1

>  <r_i_docking_score>  (399) 
-2.0673

>  <r_i_glide_ligand_efficiency>  (399) 
-0.0898828

>  <r_i_glide_ligand_efficiency_sa>  (399) 
-0.255615

>  <r_i_glide_ligand_efficiency_ln>  (399) 
-0.499893

>  <r_i_glide_gscore>  (399) 
-2.0673

>  <r_i_glide_lipo>  (399) 
-0.633881

>  <r_i_glide_hbond>  (399) 
0

>  <r_i_glide_metal>  (399) 
-0

>  <r_i_glide_rewards>  (399) 
-1.21094

>  <r_i_glide_evdw>  (399) 
-9.90944

>  <r_i_glide_ecoul>  (399) 
1.83642

>  <r_i_glide_erotb>  (399) 
0

>  <r_i_glide_esite>  (399) 
-0.00247848

>  <r_i_glide_emodel>  (399) 
-7.26283

>  <r_i_glide_energy>  (399) 
-8.07302

>  <r_i_glide_einternal>  (399) 
0.456033

>  <r_i_glide_intrahb_reward>  (399) 
-0

>  <i_i_glide_confnum>  (399) 
2

>  <i_i_glide_posenum>  (399) 
3

>  <r_i_glide_eff_state_penalty>  (399) 
0

>  <ligand_id>  (399) 
104

>  <original_smiles>  (399) 
CC1CCC2C3CC4OC5C2(O)C2COC(C)(CCC13)OOC425

>  <smiles>  (399) 
[H]OC12C3([H])OC4([H])C([H])([H])C5([H])C([H])(C([H])([H])C([H])([H])C6(C([H])([H])[H])OOC43C1([H])C([H])([H])O6)C([H])(C([H])([H])[H])C([H])([H])C([H])([H])C52[H]

$$$$
105:0:0
     RDKit          3D

 86 92  0  0  1  0  0  0  0  0999 V2000
    4.9965   -6.1284    0.1416 C   0  0  0  0  0  0  0  0  0  0  0  0
    3.8567   -5.3421    0.7241 C   0  0  0  0  0  0  0  0  0  0  0  0
    2.7224   -5.8483    0.7720 O   0  0  0  0  0  0  0  0  0  0  0  0
    4.1034   -3.8984    1.1951 C   0  0  2  0  0  0  0  0  0  0  0  0
    3.0867   -3.5889    2.3157 C   0  0  0  0  0  0  0  0  0  0  0  0
    3.5993   -2.5710    3.3360 C   0  0  0  0  0  0  0  0  0  0  0  0
    3.6496   -1.1033    2.8747 C   0  0  2  0  0  0  0  0  0  0  0  0
    4.2704   -0.1816    3.9849 C   0  0  0  0  0  0  0  0  0  0  0  0
    3.3939    0.1463    5.2682 C   0  0  1  0  0  0  0  0  0  0  0  0
    3.2904   -1.0631    6.2492 C   0  0  0  0  0  0  0  0  0  0  0  0
    4.1230    1.2242    6.1262 C   0  0  0  0  0  0  0  0  0  0  0  0
    3.9672    2.6912    5.6916 C   0  0  0  0  0  0  0  0  0  0  0  0
    2.5161    3.1227    5.3888 C   0  0  1  0  0  0  0  0  0  0  0  0
    2.6576    4.2487    4.6797 F   0  0  0  0  0  0  0  0  0  0  0  0
    1.9006    2.1132    4.3864 C   0  0  2  0  0  0  0  0  0  0  0  0
    0.5170    2.6088    3.8960 C   0  0  0  0  0  0  0  0  0  0  0  0
   -0.3218    3.2429    4.9760 C   0  0  0  0  0  0  0  0  0  0  0  0
    0.1258    3.6400    6.1811 C   0  0  0  0  0  0  0  0  0  0  0  0
   -0.8177    4.3019    7.1743 C   0  0  0  0  0  0  0  0  0  0  0  0
   -0.2440    5.6074    7.7351 C   0  0  0  0  0  0  0  0  0  0  0  0
   -1.0114    6.4340    8.2200 O   0  0  0  0  0  0  0  0  0  0  0  0
    1.2108    5.8102    7.6871 C   0  0  0  0  0  0  0  0  0  0  0  0
    2.0343    4.8717    7.1967 C   0  0  0  0  0  0  0  0  0  0  0  0
    1.5999    3.5169    6.6168 C   0  0  2  0  0  0  0  0  0  0  0  0
    1.6598    2.5301    7.8053 C   0  0  0  0  0  0  0  0  0  0  0  0
    1.9612    0.6159    4.8360 C   0  0  1  0  0  0  0  0  0  0  0  0
    1.3695   -0.3855    3.8075 C   0  0  0  0  0  0  0  0  0  0  0  0
    2.2010   -0.6107    2.5090 C   0  0  1  0  0  0  0  0  0  0  0  0
    2.0804    0.5550    1.5074 C   0  0  0  0  0  0  0  0  0  0  0  0
    4.5527   -1.1506    1.7434 O   0  0  0  0  0  0  0  0  0  0  0  0
    3.7866   -1.5360    0.4910 O   0  0  0  0  0  0  0  0  0  0  0  0
    4.0516   -2.8737    0.0334 C   0  0  1  0  0  0  0  0  0  0  0  0
    5.3617   -2.8551   -0.8064 C   0  0  0  0  0  0  0  0  0  0  0  0
    5.3601   -1.8445   -1.9624 C   0  0  0  0  0  0  0  0  0  0  0  0
    4.1038   -1.9001   -2.8294 C   0  0  1  0  0  0  0  0  0  0  0  0
    3.9344   -0.6898   -3.7036 C   0  0  0  0  0  0  0  0  0  0  0  0
    3.5557   -3.2058   -3.3882 C   0  0  0  0  0  0  0  0  0  0  0  0
    2.8459   -2.5056   -2.2436 C   0  0  1  0  0  0  0  0  0  0  0  0
    2.8564   -3.1966   -0.9199 C   0  0  0  0  0  0  0  0  0  0  0  0
    5.4315   -5.5922   -0.6905 H   0  0  0  0  0  0  0  0  0  0  0  0
    4.6200   -7.0925   -0.2080 H   0  0  0  0  0  0  0  0  0  0  0  0
    5.7553   -6.3023    0.9107 H   0  0  0  0  0  0  0  0  0  0  0  0
    5.0957   -3.8691    1.6597 H   0  0  0  0  0  0  0  0  0  0  0  0
    2.1233   -3.2976    1.8837 H   0  0  0  0  0  0  0  0  0  0  0  0
    2.8846   -4.4824    2.9074 H   0  0  0  0  0  0  0  0  0  0  0  0
    2.9258   -2.6813    4.1737 H   0  0  0  0  0  0  0  0  0  0  0  0
    4.5981   -2.8715    3.6662 H   0  0  0  0  0  0  0  0  0  0  0  0
    5.2152   -0.6240    4.3002 H   0  0  0  0  0  0  0  0  0  0  0  0
    4.5673    0.7564    3.5189 H   0  0  0  0  0  0  0  0  0  0  0  0
    2.7949   -0.7547    7.1742 H   0  0  0  0  0  0  0  0  0  0  0  0
    4.2748   -1.4157    6.5626 H   0  0  0  0  0  0  0  0  0  0  0  0
    2.7269   -1.9171    5.8990 H   0  0  0  0  0  0  0  0  0  0  0  0
    3.8018    1.1473    7.1600 H   0  0  0  0  0  0  0  0  0  0  0  0
    5.1866    0.9916    6.1804 H   0  0  0  0  0  0  0  0  0  0  0  0
    4.4106    3.3472    6.4381 H   0  0  0  0  0  0  0  0  0  0  0  0
    4.5690    2.8322    4.7938 H   0  0  0  0  0  0  0  0  0  0  0  0
    2.5523    2.1774    3.5219 H   0  0  0  0  0  0  0  0  0  0  0  0
    0.6595    3.3600    3.1181 H   0  0  0  0  0  0  0  0  0  0  0  0
   -0.0771    1.8340    3.4257 H   0  0  0  0  0  0  0  0  0  0  0  0
   -1.3607    3.4038    4.7151 H   0  0  0  0  0  0  0  0  0  0  0  0
   -1.7699    4.5280    6.6942 H   0  0  0  0  0  0  0  0  0  0  0  0
   -1.0341    3.6290    8.0014 H   0  0  0  0  0  0  0  0  0  0  0  0
    1.6008    6.7353    8.0903 H   0  0  0  0  0  0  0  0  0  0  0  0
    3.0991    5.0615    7.2040 H   0  0  0  0  0  0  0  0  0  0  0  0
    0.9595    2.8107    8.5943 H   0  0  0  0  0  0  0  0  0  0  0  0
    2.6420    2.5410    8.2786 H   0  0  0  0  0  0  0  0  0  0  0  0
    1.4129    1.5066    7.5331 H   0  0  0  0  0  0  0  0  0  0  0  0
    1.3133    0.5370    5.7080 H   0  0  0  0  0  0  0  0  0  0  0  0
    1.2703   -1.3412    4.3113 H   0  0  0  0  0  0  0  0  0  0  0  0
    0.3368   -0.1511    3.5564 H   0  0  0  0  0  0  0  0  0  0  0  0
    1.6590   -1.4025    1.9969 H   0  0  0  0  0  0  0  0  0  0  0  0
    2.8145    1.3563    1.6274 H   0  0  0  0  0  0  0  0  0  0  0  0
    1.0686    0.9768    1.5060 H   0  0  0  0  0  0  0  0  0  0  0  0
    2.2163    0.1805    0.4943 H   0  0  0  0  0  0  0  0  0  0  0  0
    6.2329   -2.6700   -0.1770 H   0  0  0  0  0  0  0  0  0  0  0  0
    5.5248   -3.8250   -1.2705 H   0  0  0  0  0  0  0  0  0  0  0  0
    5.4875   -0.8149   -1.5950 H   0  0  0  0  0  0  0  0  0  0  0  0
    6.2128   -2.0760   -2.6009 H   0  0  0  0  0  0  0  0  0  0  0  0
    2.9853   -0.7349   -4.2420 H   0  0  0  0  0  0  0  0  0  0  0  0
    4.7294   -0.6307   -4.4454 H   0  0  0  0  0  0  0  0  0  0  0  0
    3.9245    0.2103   -3.0906 H   0  0  0  0  0  0  0  0  0  0  0  0
    3.0396   -3.2051   -4.3353 H   0  0  0  0  0  0  0  0  0  0  0  0
    4.1002   -4.1214   -3.1808 H   0  0  0  0  0  0  0  0  0  0  0  0
    1.8986   -2.0422   -2.5135 H   0  0  0  0  0  0  0  0  0  0  0  0
    2.8540   -4.2492   -1.1903 H   0  0  0  0  0  0  0  0  0  0  0  0
    1.9034   -3.0473   -0.4272 H   0  0  0  0  0  0  0  0  0  0  0  0
  1  2  1  0
  1 40  1  0
  1 41  1  0
  1 42  1  0
  2  3  2  0
  2  4  1  0
  4 32  1  0
  4  5  1  0
  4 43  1  1
  5  6  1  0
  5 44  1  0
  5 45  1  0
  6  7  1  0
  6 46  1  0
  6 47  1  0
  7 28  1  0
  7  8  1  0
  7 30  1  6
  8  9  1  0
  8 48  1  0
  8 49  1  0
  9 26  1  0
  9 10  1  1
  9 11  1  0
 10 50  1  0
 10 51  1  0
 10 52  1  0
 11 12  1  0
 11 53  1  0
 11 54  1  0
 12 13  1  0
 12 55  1  0
 12 56  1  0
 13 24  1  0
 13 14  1  6
 13 15  1  0
 15 16  1  0
 15 26  1  0
 15 57  1  6
 16 17  1  0
 16 58  1  0
 16 59  1  0
 17 18  2  0
 17 60  1  0
 18 24  1  0
 18 19  1  0
 19 20  1  0
 19 61  1  0
 19 62  1  0
 20 21  2  0
 20 22  1  0
 22 23  2  0
 22 63  1  0
 23 24  1  0
 23 64  1  0
 24 25  1  1
 25 65  1  0
 25 66  1  0
 25 67  1  0
 26 27  1  0
 26 68  1  1
 27 28  1  0
 27 69  1  0
 27 70  1  0
 28 29  1  0
 28 71  1  6
 29 72  1  0
 29 73  1  0
 29 74  1  0
 30 31  1  0
 32 31  1  1
 32 39  1  0
 32 33  1  0
 33 34  1  0
 33 75  1  0
 33 76  1  0
 34 35  1  0
 34 77  1  0
 34 78  1  0
 35 38  1  0
 35 36  1  6
 35 37  1  0
 36 79  1  0
 36 80  1  0
 36 81  1  0
 37 38  1  0
 37 82  1  0
 37 83  1  0
 38 39  1  0
 38 84  1  6
 39 85  1  0
 39 86  1  0
M  END
>  <i_m_ct_stereo_status>  (400) 
1

>  <s_m_source_file>  (400) 
/var/tmp/pbs.5076255.sched01/tmp6w_bron9/120d4r_aq7a.sdf

>  <i_m_source_file_index>  (400) 
33

>  <i_lp_mmshare_version>  (400) 
48012

>  <i_f3d_flags>  (400) 
0

>  <s_epik_input>  (400) 
W0NIMl0xW0NAQEhdKFtDSDJdMilbQ0BAXTEoW0NIM10pW0NIMl1bQ0gyXVtDQF0yKE9PMylbQ0BIXShDKD1PKVtDSDNdKVtDSDJdW0NIMl1bQ0BAXTM0W0NIMl1bQ0BdNShbQ0gzXSlbQ0BIXShbQ0gyXVtDQEhdNFtDSDNdKVtDQEBIXTZbQ0BdKEYpKFtDSDJdW0NIMl01KVtDQF03KFtDSDNdKUMoPVtDSF1bQ0gyXTYpW0NIMl1DKD1PKVtDSF09W0NIXTc=

>  <s_epik_cmdline>  (400) 
J2VwaWtfcHl0aG9uJywgJy1waHQnLCAnMi4wJywgJy1waCcsICc3LjAnLCAnLXRuJywgJzgnLCAnLW1hJywgJzIwMCcsICctaW1hZScsICc8aW5maWxlLm1hZT4nLCAnLW9tYWUnLCAnPG91dGZpbGUubWFlPic=

>  <r_lp_tautomer_probability>  (400) 
1

>  <r_epik_Ionization_Penalty>  (400) 
9.36037e-13

>  <r_epik_Ionization_Penalty_Charging>  (400) 
0

>  <r_epik_Ionization_Penalty_Neutral>  (400) 
9.36037e-13

>  <r_epik_State_Penalty>  (400) 
-0

>  <r_epik_Charging_Adjusted_Penalty>  (400) 
0

>  <i_epik_Tot_Q>  (400) 
0

>  <i_epik_Tot_abs_Q>  (400) 
0

>  <s_lp_Force_Field>  (400) 
OPLS3e

>  <r_lp_Energy>  (400) 
98.8719

>  <b_lp_Chiralities_Consistent>  (400) 
1

>  <s_lp_Variant>  (400) 
105:0-1

>  <s_i_glide_gridfile>  (400) 
pfpi4k_grid

>  <i_i_glide_lignum>  (400) 
33

>  <i_i_glide_rotatable_bonds>  (400) 
1

>  <r_i_docking_score>  (400) 
-2.52967

>  <r_i_glide_ligand_efficiency>  (400) 
-0.0648633

>  <r_i_glide_ligand_efficiency_sa>  (400) 
-0.219965

>  <r_i_glide_ligand_efficiency_ln>  (400) 
-0.542433

>  <r_i_glide_gscore>  (400) 
-2.52967

>  <r_i_glide_lipo>  (400) 
-0.586372

>  <r_i_glide_hbond>  (400) 
0

>  <r_i_glide_metal>  (400) 
-0

>  <r_i_glide_rewards>  (400) 
-0.0179645

>  <r_i_glide_evdw>  (400) 
-35.4094

>  <r_i_glide_ecoul>  (400) 
-0.958144

>  <r_i_glide_erotb>  (400) 
0

>  <r_i_glide_esite>  (400) 
-0.0111386

>  <r_i_glide_emodel>  (400) 
-39.922

>  <r_i_glide_energy>  (400) 
-36.3676

>  <r_i_glide_einternal>  (400) 
0.0018614

>  <r_i_glide_intrahb_reward>  (400) 
-0

>  <i_i_glide_confnum>  (400) 
2

>  <i_i_glide_posenum>  (400) 
2

>  <r_i_glide_eff_state_penalty>  (400) 
0

>  <ligand_id>  (400) 
105

>  <original_smiles>  (400) 
CC(=O)C1CCC2(CC3(C)CCC4(F)C(CC=C5CC(=O)C=CC54C)C3CC2C)OOC12CCC1(C)CC1C2

>  <smiles>  (400) 
[H]C1=C([H])C2(C([H])([H])[H])C(=C([H])C([H])([H])C3([H])C4([H])C([H])([H])C([H])(C([H])([H])[H])C5(OOC6(C([H])([H])C([H])([H])C7(C([H])([H])[H])C([H])([H])C7([H])C6([H])[H])C([H])(C(=O)C([H])([H])[H])C([H])([H])C5([H])[H])C([H])([H])C4(C([H])([H])[H])C([H])([H])C([H])([H])C23F)C([H])([H])C1=O

$$$$
105:0:1
     RDKit          3D

 86 92  0  0  1  0  0  0  0  0999 V2000
    3.6594   -6.0838    1.0667 C   0  0  0  0  0  0  0  0  0  0  0  0
    4.9369   -5.2034    1.0624 C   0  0  0  0  0  0  0  0  0  0  0  0
    5.9911   -5.6517    0.6577 O   0  0  0  0  0  0  0  0  0  0  0  0
    4.7795   -3.7465    1.5445 C   0  0  2  0  0  0  0  0  0  0  0  0
    3.7556   -3.6984    2.7004 C   0  0  0  0  0  0  0  0  0  0  0  0
    3.9708   -2.5774    3.7266 C   0  0  0  0  0  0  0  0  0  0  0  0
    3.5858   -1.1792    3.2480 C   0  0  2  0  0  0  0  0  0  0  0  0
    3.9338   -0.1001    4.3334 C   0  0  0  0  0  0  0  0  0  0  0  0
    3.0362   -0.0535    5.6308 C   0  0  1  0  0  0  0  0  0  0  0  0
    3.3004   -1.2460    6.6035 C   0  0  0  0  0  0  0  0  0  0  0  0
    3.4409    1.1870    6.4999 C   0  0  0  0  0  0  0  0  0  0  0  0
    2.8657    2.5480    6.0787 C   0  0  0  0  0  0  0  0  0  0  0  0
    1.3458    2.5451    5.8142 C   0  0  1  0  0  0  0  0  0  0  0  0
    1.1358    3.6701    5.1114 F   0  0  0  0  0  0  0  0  0  0  0  0
    1.0224    1.4044    4.8201 C   0  0  2  0  0  0  0  0  0  0  0  0
   -0.4500    1.4881    4.3585 C   0  0  0  0  0  0  0  0  0  0  0  0
   -1.4189    1.8514    5.4548 C   0  0  0  0  0  0  0  0  0  0  0  0
   -1.0726    2.3481    6.6568 C   0  0  0  0  0  0  0  0  0  0  0  0
   -2.1537    2.7156    7.6739 C   0  0  0  0  0  0  0  0  0  0  0  0
   -1.9571    4.1218    8.2254 C   0  0  0  0  0  0  0  0  0  0  0  0
   -2.9267    4.6957    8.7275 O   0  0  0  0  0  0  0  0  0  0  0  0
   -0.6287    4.7374    8.1544 C   0  0  0  0  0  0  0  0  0  0  0  0
    0.4257    4.0716    7.6385 C   0  0  0  0  0  0  0  0  0  0  0  0
    0.3799    2.6529    7.0626 C   0  0  2  0  0  0  0  0  0  0  0  0
    0.7483    1.7243    8.2388 C   0  0  0  0  0  0  0  0  0  0  0  0
    1.5154   -0.0122    5.2487 C   0  0  1  0  0  0  0  0  0  0  0  0
    1.2119   -1.1346    4.2046 C   0  0  0  0  0  0  0  0  0  0  0  0
    2.0496   -1.1289    2.8925 C   0  0  1  0  0  0  0  0  0  0  0  0
    1.5862   -0.0080    1.9073 C   0  0  0  0  0  0  0  0  0  0  0  0
    4.4695   -1.0116    2.0994 O   0  0  0  0  0  0  0  0  0  0  0  0
    3.7911   -1.5510    0.8788 O   0  0  0  0  0  0  0  0  0  0  0  0
    4.4177   -2.7578    0.3782 C   0  0  1  0  0  0  0  0  0  0  0  0
    5.6645   -2.3912   -0.4855 C   0  0  0  0  0  0  0  0  0  0  0  0
    5.3465   -1.4228   -1.6474 C   0  0  0  0  0  0  0  0  0  0  0  0
    4.1392   -1.8139   -2.5023 C   0  0  1  0  0  0  0  0  0  0  0  0
    3.6512   -0.6789   -3.3897 C   0  0  0  0  0  0  0  0  0  0  0  0
    3.9497   -3.1978   -3.0308 C   0  0  0  0  0  0  0  0  0  0  0  0
    3.1050   -2.7097   -1.8854 C   0  0  1  0  0  0  0  0  0  0  0  0
    3.3191   -3.3686   -0.5565 C   0  0  0  0  0  0  0  0  0  0  0  0
    3.2276   -6.2420    2.0676 H   0  0  0  0  0  0  0  0  0  0  0  0
    3.8449   -7.0779    0.6193 H   0  0  0  0  0  0  0  0  0  0  0  0
    2.8550   -5.6332    0.4810 H   0  0  0  0  0  0  0  0  0  0  0  0
    5.7332   -3.4242    1.9576 H   0  0  0  0  0  0  0  0  0  0  0  0
    2.7548   -3.6711    2.3147 H   0  0  0  0  0  0  0  0  0  0  0  0
    3.8818   -4.6001    3.3108 H   0  0  0  0  0  0  0  0  0  0  0  0
    3.4030   -2.8787    4.5612 H   0  0  0  0  0  0  0  0  0  0  0  0
    5.0355   -2.5706    3.9855 H   0  0  0  0  0  0  0  0  0  0  0  0
    4.9638   -0.2656    4.6179 H   0  0  0  0  0  0  0  0  0  0  0  0
    3.9588    0.8884    3.8519 H   0  0  0  0  0  0  0  0  0  0  0  0
    2.7777   -1.0839    7.5515 H   0  0  0  0  0  0  0  0  0  0  0  0
    4.3471   -1.3012    6.9046 H   0  0  0  0  0  0  0  0  0  0  0  0
    3.0031   -2.2101    6.2568 H   0  0  0  0  0  0  0  0  0  0  0  0
    3.1868    1.0116    7.5459 H   0  0  0  0  0  0  0  0  0  0  0  0
    4.5237    1.2663    6.5178 H   0  0  0  0  0  0  0  0  0  0  0  0
    3.1241    3.3056    6.8143 H   0  0  0  0  0  0  0  0  0  0  0  0
    3.3788    2.8505    5.1662 H   0  0  0  0  0  0  0  0  0  0  0  0
    1.6111    1.6576    3.9452 H   0  0  0  0  0  0  0  0  0  0  0  0
   -0.5411    2.2567    3.5898 H   0  0  0  0  0  0  0  0  0  0  0  0
   -0.8119    0.5781    3.8962 H   0  0  0  0  0  0  0  0  0  0  0  0
   -2.4573    1.7241    5.2003 H   0  0  0  0  0  0  0  0  0  0  0  0
   -3.1318    2.6611    7.2043 H   0  0  0  0  0  0  0  0  0  0  0  0
   -2.1592    2.0071    8.5008 H   0  0  0  0  0  0  0  0  0  0  0  0
   -0.5103    5.7333    8.5542 H   0  0  0  0  0  0  0  0  0  0  0  0
    1.3974    4.5505    7.6224 H   0  0  0  0  0  0  0  0  0  0  0  0
    0.0123    1.7924    9.0422 H   0  0  0  0  0  0  0  0  0  0  0  0
    1.6950    2.0196    8.6865 H   0  0  0  0  0  0  0  0  0  0  0  0
    0.7992    0.6757    7.9614 H   0  0  0  0  0  0  0  0  0  0  0  0
    0.9394   -0.2785    6.1366 H   0  0  0  0  0  0  0  0  0  0  0  0
    1.4027   -2.0704    4.7135 H   0  0  0  0  0  0  0  0  0  0  0  0
    0.1504   -1.1953    3.9959 H   0  0  0  0  0  0  0  0  0  0  0  0
    1.7625   -2.0315    2.3938 H   0  0  0  0  0  0  0  0  0  0  0  0
    2.0573    0.9706    2.0302 H   0  0  0  0  0  0  0  0  0  0  0  0
    0.5027    0.1178    1.9432 H   0  0  0  0  0  0  0  0  0  0  0  0
    1.8174   -0.3030    0.9057 H   0  0  0  0  0  0  0  0  0  0  0  0
    6.4509   -1.9539    0.1254 H   0  0  0  0  0  0  0  0  0  0  0  0
    6.0977   -3.2920   -0.9011 H   0  0  0  0  0  0  0  0  0  0  0  0
    5.1927   -0.4143   -1.2610 H   0  0  0  0  0  0  0  0  0  0  0  0
    6.2163   -1.3699   -2.2661 H   0  0  0  0  0  0  0  0  0  0  0  0
    2.7363   -0.9827   -3.8959 H   0  0  0  0  0  0  0  0  0  0  0  0
    4.3858   -0.3769   -4.1322 H   0  0  0  0  0  0  0  0  0  0  0  0
    3.3819    0.1805   -2.7901 H   0  0  0  0  0  0  0  0  0  0  0  0
    3.4501   -3.3345   -3.9939 H   0  0  0  0  0  0  0  0  0  0  0  0
    4.7468   -3.9207   -2.8608 H   0  0  0  0  0  0  0  0  0  0  0  0
    2.0583   -2.5238   -2.1461 H   0  0  0  0  0  0  0  0  0  0  0  0
    3.6416   -4.3416   -0.8286 H   0  0  0  0  0  0  0  0  0  0  0  0
    2.3491   -3.4926   -0.0736 H   0  0  0  0  0  0  0  0  0  0  0  0
  1  2  1  0
  1 40  1  0
  1 41  1  0
  1 42  1  0
  2  3  2  0
  2  4  1  0
  4 32  1  0
  4  5  1  0
  4 43  1  1
  5  6  1  0
  5 44  1  0
  5 45  1  0
  6  7  1  0
  6 46  1  0
  6 47  1  0
  7 28  1  0
  7  8  1  0
  7 30  1  6
  8  9  1  0
  8 48  1  0
  8 49  1  0
  9 26  1  0
  9 10  1  1
  9 11  1  0
 10 50  1  0
 10 51  1  0
 10 52  1  0
 11 12  1  0
 11 53  1  0
 11 54  1  0
 12 13  1  0
 12 55  1  0
 12 56  1  0
 13 24  1  0
 13 14  1  6
 13 15  1  0
 15 16  1  0
 15 26  1  0
 15 57  1  6
 16 17  1  0
 16 58  1  0
 16 59  1  0
 17 18  2  0
 17 60  1  0
 18 24  1  0
 18 19  1  0
 19 20  1  0
 19 61  1  0
 19 62  1  0
 20 21  2  0
 20 22  1  0
 22 23  2  0
 22 63  1  0
 23 24  1  0
 23 64  1  0
 24 25  1  1
 25 65  1  0
 25 66  1  0
 25 67  1  0
 26 27  1  0
 26 68  1  1
 27 28  1  0
 27 69  1  0
 27 70  1  0
 28 29  1  0
 28 71  1  6
 29 72  1  0
 29 73  1  0
 29 74  1  0
 30 31  1  0
 32 31  1  1
 32 39  1  0
 32 33  1  0
 33 34  1  0
 33 75  1  0
 33 76  1  0
 34 35  1  0
 34 77  1  0
 34 78  1  0
 35 38  1  0
 35 36  1  6
 35 37  1  0
 36 79  1  0
 36 80  1  0
 36 81  1  0
 37 38  1  0
 37 82  1  0
 37 83  1  0
 38 39  1  0
 38 84  1  6
 39 85  1  0
 39 86  1  0
M  END
>  <i_m_ct_stereo_status>  (401) 
1

>  <s_m_source_file>  (401) 
/var/tmp/pbs.5076255.sched01/tmp6w_bron9/120d4r_aq7a.sdf

>  <i_m_source_file_index>  (401) 
33

>  <i_lp_mmshare_version>  (401) 
48012

>  <i_f3d_flags>  (401) 
0

>  <s_epik_input>  (401) 
W0NIMl0xW0NAQEhdKFtDSDJdMilbQ0BAXTEoW0NIM10pW0NIMl1bQ0gyXVtDQF0yKE9PMylbQ0BIXShDKD1PKVtDSDNdKVtDSDJdW0NIMl1bQ0BAXTM0W0NIMl1bQ0BdNShbQ0gzXSlbQ0BIXShbQ0gyXVtDQEhdNFtDSDNdKVtDQEBIXTZbQ0BdKEYpKFtDSDJdW0NIMl01KVtDQF03KFtDSDNdKUMoPVtDSF1bQ0gyXTYpW0NIMl1DKD1PKVtDSF09W0NIXTc=

>  <s_epik_cmdline>  (401) 
J2VwaWtfcHl0aG9uJywgJy1waHQnLCAnMi4wJywgJy1waCcsICc3LjAnLCAnLXRuJywgJzgnLCAnLW1hJywgJzIwMCcsICctaW1hZScsICc8aW5maWxlLm1hZT4nLCAnLW9tYWUnLCAnPG91dGZpbGUubWFlPic=

>  <r_lp_tautomer_probability>  (401) 
1

>  <r_epik_Ionization_Penalty>  (401) 
9.36037e-13

>  <r_epik_Ionization_Penalty_Charging>  (401) 
0

>  <r_epik_Ionization_Penalty_Neutral>  (401) 
9.36037e-13

>  <r_epik_State_Penalty>  (401) 
-0

>  <r_epik_Charging_Adjusted_Penalty>  (401) 
0

>  <i_epik_Tot_Q>  (401) 
0

>  <i_epik_Tot_abs_Q>  (401) 
0

>  <s_lp_Force_Field>  (401) 
OPLS3e

>  <r_lp_Energy>  (401) 
98.8719

>  <b_lp_Chiralities_Consistent>  (401) 
1

>  <s_lp_Variant>  (401) 
105:0-1

>  <s_i_glide_gridfile>  (401) 
pfpi4k_grid

>  <i_i_glide_lignum>  (401) 
33

>  <i_i_glide_rotatable_bonds>  (401) 
1

>  <r_i_docking_score>  (401) 
-2.41969

>  <r_i_glide_ligand_efficiency>  (401) 
-0.0620434

>  <r_i_glide_ligand_efficiency_sa>  (401) 
-0.210402

>  <r_i_glide_ligand_efficiency_ln>  (401) 
-0.518851

>  <r_i_glide_gscore>  (401) 
-2.41969

>  <r_i_glide_lipo>  (401) 
-0.413944

>  <r_i_glide_hbond>  (401) 
0

>  <r_i_glide_metal>  (401) 
-0

>  <r_i_glide_rewards>  (401) 
-0.0744774

>  <r_i_glide_evdw>  (401) 
-37.3237

>  <r_i_glide_ecoul>  (401) 
-0.369854

>  <r_i_glide_erotb>  (401) 
0

>  <r_i_glide_esite>  (401) 
-0.00961024

>  <r_i_glide_emodel>  (401) 
-38.3666

>  <r_i_glide_energy>  (401) 
-37.6935

>  <r_i_glide_einternal>  (401) 
2.66837

>  <r_i_glide_intrahb_reward>  (401) 
-0

>  <i_i_glide_confnum>  (401) 
2

>  <i_i_glide_posenum>  (401) 
37

>  <r_i_glide_eff_state_penalty>  (401) 
0

>  <ligand_id>  (401) 
105

>  <original_smiles>  (401) 
CC(=O)C1CCC2(CC3(C)CCC4(F)C(CC=C5CC(=O)C=CC54C)C3CC2C)OOC12CCC1(C)CC1C2

>  <smiles>  (401) 
[H]C1=C([H])C2(C([H])([H])[H])C(=C([H])C([H])([H])C3([H])C4([H])C([H])([H])C([H])(C([H])([H])[H])C5(OOC6(C([H])([H])C([H])([H])C7(C([H])([H])[H])C([H])([H])C7([H])C6([H])[H])C([H])(C(=O)C([H])([H])[H])C([H])([H])C5([H])[H])C([H])([H])C4(C([H])([H])[H])C([H])([H])C([H])([H])C23F)C([H])([H])C1=O

$$$$
105:0:2
     RDKit          3D

 86 92  0  0  1  0  0  0  0  0999 V2000
    5.2259   -6.3260    0.5500 C   0  0  0  0  0  0  0  0  0  0  0  0
    3.9513   -5.6859    1.0182 C   0  0  0  0  0  0  0  0  0  0  0  0
    2.8727   -6.2936    0.8849 O   0  0  0  0  0  0  0  0  0  0  0  0
    3.9927   -4.2769    1.6218 C   0  0  2  0  0  0  0  0  0  0  0  0
    2.8139   -4.1604    2.6118 C   0  0  0  0  0  0  0  0  0  0  0  0
    3.0863   -3.1952    3.7637 C   0  0  0  0  0  0  0  0  0  0  0  0
    3.0462   -1.6909    3.4336 C   0  0  2  0  0  0  0  0  0  0  0  0
    3.4251   -0.8170    4.6839 C   0  0  0  0  0  0  0  0  0  0  0  0
    2.3629   -0.6861    5.8589 C   0  0  1  0  0  0  0  0  0  0  0  0
    2.2519   -1.9824    6.7244 C   0  0  0  0  0  0  0  0  0  0  0  0
    2.8624    0.3679    6.8919 C   0  0  0  0  0  0  0  0  0  0  0  0
    2.6251    1.8497    6.5515 C   0  0  0  0  0  0  0  0  0  0  0  0
    1.1885    2.1780    6.0907 C   0  0  1  0  0  0  0  0  0  0  0  0
    1.3047    3.3714    5.4967 F   0  0  0  0  0  0  0  0  0  0  0  0
    0.8099    1.2137    4.9387 C   0  0  2  0  0  0  0  0  0  0  0  0
   -0.5396    1.6302    4.3046 C   0  0  0  0  0  0  0  0  0  0  0  0
   -1.5717    2.0908    5.3017 C   0  0  0  0  0  0  0  0  0  0  0  0
   -1.3247    2.4130    6.5868 C   0  0  0  0  0  0  0  0  0  0  0  0
   -2.4525    2.8992    7.4861 C   0  0  0  0  0  0  0  0  0  0  0  0
   -2.0820    4.1835    8.2297 C   0  0  0  0  0  0  0  0  0  0  0  0
   -2.9853    4.8885    8.6766 O   0  0  0  0  0  0  0  0  0  0  0  0
   -0.6598    4.5194    8.3941 C   0  0  0  0  0  0  0  0  0  0  0  0
    0.3078    3.7068    7.9470 C   0  0  0  0  0  0  0  0  0  0  0  0
    0.0846    2.3767    7.2077 C   0  0  2  0  0  0  0  0  0  0  0  0
    0.0865    1.2975    8.3128 C   0  0  0  0  0  0  0  0  0  0  0  0
    0.9579   -0.3063    5.2757 C   0  0  1  0  0  0  0  0  0  0  0  0
    0.6062   -1.2538    4.1008 C   0  0  0  0  0  0  0  0  0  0  0  0
    1.6163   -1.2836    2.9157 C   0  0  1  0  0  0  0  0  0  0  0  0
    1.5198   -0.0436    2.0025 C   0  0  0  0  0  0  0  0  0  0  0  0
    4.0925   -1.5804    2.4424 O   0  0  0  0  0  0  0  0  0  0  0  0
    3.5289   -1.9045    1.0740 O   0  0  0  0  0  0  0  0  0  0  0  0
    3.9888   -3.1535    0.5461 C   0  0  1  0  0  0  0  0  0  0  0  0
    5.3928   -2.9353   -0.1065 C   0  0  0  0  0  0  0  0  0  0  0  0
    5.4422   -1.8317   -1.1765 C   0  0  0  0  0  0  0  0  0  0  0  0
    4.3042   -1.9396   -2.1976 C   0  0  1  0  0  0  0  0  0  0  0  0
    4.0837   -0.6803   -2.9849 C   0  0  0  0  0  0  0  0  0  0  0  0
    3.9667   -3.2265   -2.9224 C   0  0  0  0  0  0  0  0  0  0  0  0
    3.0478   -2.6821   -1.8333 C   0  0  1  0  0  0  0  0  0  0  0  0
    2.9450   -3.4696   -0.5727 C   0  0  0  0  0  0  0  0  0  0  0  0
    5.7340   -5.6905   -0.1672 H   0  0  0  0  0  0  0  0  0  0  0  0
    4.9894   -7.2810    0.0744 H   0  0  0  0  0  0  0  0  0  0  0  0
    5.8851   -6.5053    1.4085 H   0  0  0  0  0  0  0  0  0  0  0  0
    4.9069   -4.1947    2.2227 H   0  0  0  0  0  0  0  0  0  0  0  0
    1.8883   -3.9287    2.0753 H   0  0  0  0  0  0  0  0  0  0  0  0
    2.6233   -5.1126    3.1054 H   0  0  0  0  0  0  0  0  0  0  0  0
    2.3217   -3.4453    4.4827 H   0  0  0  0  0  0  0  0  0  0  0  0
    4.0572   -3.4336    4.2088 H   0  0  0  0  0  0  0  0  0  0  0  0
    4.3555   -1.2069    5.0930 H   0  0  0  0  0  0  0  0  0  0  0  0
    3.6935    0.1796    4.3361 H   0  0  0  0  0  0  0  0  0  0  0  0
    1.6129   -1.8012    7.5948 H   0  0  0  0  0  0  0  0  0  0  0  0
    3.2182   -2.2771    7.1396 H   0  0  0  0  0  0  0  0  0  0  0  0
    1.8173   -2.8489    6.2438 H   0  0  0  0  0  0  0  0  0  0  0  0
    2.4207    0.1702    7.8647 H   0  0  0  0  0  0  0  0  0  0  0  0
    3.9279    0.2244    7.0715 H   0  0  0  0  0  0  0  0  0  0  0  0
    2.9036    2.4716    7.3997 H   0  0  0  0  0  0  0  0  0  0  0  0
    3.3227    2.1241    5.7588 H   0  0  0  0  0  0  0  0  0  0  0  0
    1.5592    1.4115    4.1800 H   0  0  0  0  0  0  0  0  0  0  0  0
   -0.3689    2.4575    3.6150 H   0  0  0  0  0  0  0  0  0  0  0  0
   -0.9895    0.8544    3.6964 H   0  0  0  0  0  0  0  0  0  0  0  0
   -2.5758    2.1881    4.9092 H   0  0  0  0  0  0  0  0  0  0  0  0
   -3.3477    3.0919    6.8950 H   0  0  0  0  0  0  0  0  0  0  0  0
   -2.7139    2.1383    8.2175 H   0  0  0  0  0  0  0  0  0  0  0  0
   -0.4178    5.4371    8.9171 H   0  0  0  0  0  0  0  0  0  0  0  0
    1.3420    3.9861    8.1088 H   0  0  0  0  0  0  0  0  0  0  0  0
   -0.7325    1.4464    9.0179 H   0  0  0  0  0  0  0  0  0  0  0  0
    0.9933    1.3534    8.9144 H   0  0  0  0  0  0  0  0  0  0  0  0
   -0.0185    0.2863    7.9304 H   0  0  0  0  0  0  0  0  0  0  0  0
    0.2122   -0.5210    6.0406 H   0  0  0  0  0  0  0  0  0  0  0  0
    0.5347   -2.2577    4.5059 H   0  0  0  0  0  0  0  0  0  0  0  0
   -0.4009   -1.0891    3.7267 H   0  0  0  0  0  0  0  0  0  0  0  0
    1.2182   -2.0615    2.2708 H   0  0  0  0  0  0  0  0  0  0  0  0
    2.1499    0.8003    2.2838 H   0  0  0  0  0  0  0  0  0  0  0  0
    0.4810    0.2775    1.8881 H   0  0  0  0  0  0  0  0  0  0  0  0
    1.8236   -0.3051    0.9913 H   0  0  0  0  0  0  0  0  0  0  0  0
    6.1508   -2.7412    0.6540 H   0  0  0  0  0  0  0  0  0  0  0  0
    5.7063   -3.8389   -0.6227 H   0  0  0  0  0  0  0  0  0  0  0  0
    5.4153   -0.8365   -0.7056 H   0  0  0  0  0  0  0  0  0  0  0  0
    6.3968   -1.9000   -1.7097 H   0  0  0  0  0  0  0  0  0  0  0  0
    3.2162   -0.7606   -3.6538 H   0  0  0  0  0  0  0  0  0  0  0  0
    4.8755   -0.4971   -3.6780 H   0  0  0  0  0  0  0  0  0  0  0  0
    3.9719    0.1600   -2.3138 H   0  0  0  0  0  0  0  0  0  0  0  0
    3.5905   -3.1782   -3.9339 H   0  0  0  0  0  0  0  0  0  0  0  0
    4.5618   -4.1071   -2.7095 H   0  0  0  0  0  0  0  0  0  0  0  0
    2.1102   -2.2684   -2.1966 H   0  0  0  0  0  0  0  0  0  0  0  0
    3.0899   -4.4774   -0.9326 H   0  0  0  0  0  0  0  0  0  0  0  0
    1.9224   -3.4532   -0.2166 H   0  0  0  0  0  0  0  0  0  0  0  0
  1  2  1  0
  1 40  1  0
  1 41  1  0
  1 42  1  0
  2  3  2  0
  2  4  1  0
  4 32  1  0
  4  5  1  0
  4 43  1  1
  5  6  1  0
  5 44  1  0
  5 45  1  0
  6  7  1  0
  6 46  1  0
  6 47  1  0
  7 28  1  0
  7  8  1  0
  7 30  1  6
  8  9  1  0
  8 48  1  0
  8 49  1  0
  9 26  1  0
  9 10  1  1
  9 11  1  0
 10 50  1  0
 10 51  1  0
 10 52  1  0
 11 12  1  0
 11 53  1  0
 11 54  1  0
 12 13  1  0
 12 55  1  0
 12 56  1  0
 13 24  1  0
 13 14  1  6
 13 15  1  0
 15 16  1  0
 15 26  1  0
 15 57  1  6
 16 17  1  0
 16 58  1  0
 16 59  1  0
 17 18  2  0
 17 60  1  0
 18 24  1  0
 18 19  1  0
 19 20  1  0
 19 61  1  0
 19 62  1  0
 20 21  2  0
 20 22  1  0
 22 23  2  0
 22 63  1  0
 23 24  1  0
 23 64  1  0
 24 25  1  1
 25 65  1  0
 25 66  1  0
 25 67  1  0
 26 27  1  0
 26 68  1  1
 27 28  1  0
 27 69  1  0
 27 70  1  0
 28 29  1  0
 28 71  1  6
 29 72  1  0
 29 73  1  0
 29 74  1  0
 30 31  1  0
 32 31  1  1
 32 39  1  0
 32 33  1  0
 33 34  1  0
 33 75  1  0
 33 76  1  0
 34 35  1  0
 34 77  1  0
 34 78  1  0
 35 38  1  0
 35 36  1  6
 35 37  1  0
 36 79  1  0
 36 80  1  0
 36 81  1  0
 37 38  1  0
 37 82  1  0
 37 83  1  0
 38 39  1  0
 38 84  1  6
 39 85  1  0
 39 86  1  0
M  END
>  <i_m_ct_stereo_status>  (402) 
1

>  <s_m_source_file>  (402) 
/var/tmp/pbs.5076255.sched01/tmp6w_bron9/120d4r_aq7a.sdf

>  <i_m_source_file_index>  (402) 
33

>  <i_lp_mmshare_version>  (402) 
48012

>  <i_f3d_flags>  (402) 
0

>  <s_epik_input>  (402) 
W0NIMl0xW0NAQEhdKFtDSDJdMilbQ0BAXTEoW0NIM10pW0NIMl1bQ0gyXVtDQF0yKE9PMylbQ0BIXShDKD1PKVtDSDNdKVtDSDJdW0NIMl1bQ0BAXTM0W0NIMl1bQ0BdNShbQ0gzXSlbQ0BIXShbQ0gyXVtDQEhdNFtDSDNdKVtDQEBIXTZbQ0BdKEYpKFtDSDJdW0NIMl01KVtDQF03KFtDSDNdKUMoPVtDSF1bQ0gyXTYpW0NIMl1DKD1PKVtDSF09W0NIXTc=

>  <s_epik_cmdline>  (402) 
J2VwaWtfcHl0aG9uJywgJy1waHQnLCAnMi4wJywgJy1waCcsICc3LjAnLCAnLXRuJywgJzgnLCAnLW1hJywgJzIwMCcsICctaW1hZScsICc8aW5maWxlLm1hZT4nLCAnLW9tYWUnLCAnPG91dGZpbGUubWFlPic=

>  <r_lp_tautomer_probability>  (402) 
1

>  <r_epik_Ionization_Penalty>  (402) 
9.36037e-13

>  <r_epik_Ionization_Penalty_Charging>  (402) 
0

>  <r_epik_Ionization_Penalty_Neutral>  (402) 
9.36037e-13

>  <r_epik_State_Penalty>  (402) 
-0

>  <r_epik_Charging_Adjusted_Penalty>  (402) 
0

>  <i_epik_Tot_Q>  (402) 
0

>  <i_epik_Tot_abs_Q>  (402) 
0

>  <s_lp_Force_Field>  (402) 
OPLS3e

>  <r_lp_Energy>  (402) 
98.8719

>  <b_lp_Chiralities_Consistent>  (402) 
1

>  <s_lp_Variant>  (402) 
105:0-1

>  <s_i_glide_gridfile>  (402) 
pfpi4k_grid

>  <i_i_glide_lignum>  (402) 
33

>  <i_i_glide_rotatable_bonds>  (402) 
1

>  <r_i_docking_score>  (402) 
-2.36209

>  <r_i_glide_ligand_efficiency>  (402) 
-0.0605663

>  <r_i_glide_ligand_efficiency_sa>  (402) 
-0.205393

>  <r_i_glide_ligand_efficiency_ln>  (402) 
-0.506498

>  <r_i_glide_gscore>  (402) 
-2.36209

>  <r_i_glide_lipo>  (402) 
-0.454045

>  <r_i_glide_hbond>  (402) 
0

>  <r_i_glide_metal>  (402) 
-0

>  <r_i_glide_rewards>  (402) 
-0.0632651

>  <r_i_glide_evdw>  (402) 
-36.0084

>  <r_i_glide_ecoul>  (402) 
-0.293939

>  <r_i_glide_erotb>  (402) 
0

>  <r_i_glide_esite>  (402) 
-0.000264774

>  <r_i_glide_emodel>  (402) 
-38.1385

>  <r_i_glide_energy>  (402) 
-36.3024

>  <r_i_glide_einternal>  (402) 
0.000561226

>  <r_i_glide_intrahb_reward>  (402) 
-0

>  <i_i_glide_confnum>  (402) 
2

>  <i_i_glide_posenum>  (402) 
40

>  <r_i_glide_eff_state_penalty>  (402) 
0

>  <ligand_id>  (402) 
105

>  <original_smiles>  (402) 
CC(=O)C1CCC2(CC3(C)CCC4(F)C(CC=C5CC(=O)C=CC54C)C3CC2C)OOC12CCC1(C)CC1C2

>  <smiles>  (402) 
[H]C1=C([H])C2(C([H])([H])[H])C(=C([H])C([H])([H])C3([H])C4([H])C([H])([H])C([H])(C([H])([H])[H])C5(OOC6(C([H])([H])C([H])([H])C7(C([H])([H])[H])C([H])([H])C7([H])C6([H])[H])C([H])(C(=O)C([H])([H])[H])C([H])([H])C5([H])[H])C([H])([H])C4(C([H])([H])[H])C([H])([H])C([H])([H])C23F)C([H])([H])C1=O

$$$$
106:0:0
     RDKit          3D

 54 62  0  0  1  0  0  0  0  0999 V2000
   -6.1234   -7.1130   -4.8473 C   0  0  0  0  0  0  0  0  0  0  0  0
   -6.0045   -5.6363   -4.4432 C   0  0  0  0  0  0  0  0  0  0  0  0
   -6.6123   -5.1900   -3.1242 C   0  0  0  0  0  0  0  0  0  0  0  0
   -6.4632   -4.6397   -5.5050 C   0  0  0  0  0  0  0  0  0  0  0  0
   -5.5632   -3.8613   -5.8381 O   0  0  0  0  0  0  0  0  0  0  0  0
   -7.7146   -4.6022   -5.9767 N   0  0  0  0  0  0  0  0  0  0  0  0
   -8.2399   -3.7018   -7.0323 C   0  0  0  0  0  0  0  0  0  0  0  0
   -9.5659   -4.3783   -7.4123 C   0  0  2  0  0  0  0  0  0  0  0  0
   -9.9994   -4.8150   -6.0251 C   0  0  0  0  0  0  0  0  0  0  0  0
   -8.7410   -5.6326   -5.8202 C   0  0  1  0  0  0  0  0  0  0  0  0
   -8.5518   -6.4910   -7.1096 C   0  0  1  0  0  0  0  0  0  0  0  0
   -9.0902   -7.8979   -7.3560 C   0  0  2  0  0  0  0  0  0  0  0  0
   -8.5158   -8.3774   -8.6427 C   0  0  1  0  0  0  0  0  0  0  0  0
   -9.0818   -9.8250   -8.5510 C   0  0  0  0  0  0  0  0  0  0  0  0
  -10.4167   -9.2747   -8.9468 C   0  0  2  0  0  0  0  0  0  0  0  0
  -10.0424   -8.9001  -10.5133 C   0  0  2  0  0  0  0  0  0  0  0  0
   -8.4633   -8.7155  -10.9285 N   0  0  0  0  0  0  0  0  0  0  0  0
   -7.9805   -7.2202  -10.4107 C   0  0  0  0  0  0  0  0  0  0  0  0
   -9.1473   -7.7045  -10.2876 C   0  0  1  0  0  0  0  0  0  0  0  0
  -10.5604   -7.4622  -10.6730 C   0  0  2  0  0  0  0  0  0  0  0  0
  -10.4207   -6.2351   -9.8114 C   0  0  2  0  0  0  0  0  0  0  0  0
   -8.8600   -5.9415   -9.6071 C   0  0  1  0  0  0  0  0  0  0  0  0
   -9.3391   -5.7519   -8.1120 C   0  0  2  0  0  0  0  0  0  0  0  0
  -10.6402   -6.5583   -8.3776 C   0  0  2  0  0  0  0  0  0  0  0  0
  -10.5162   -8.0224   -7.9032 C   0  0  2  0  0  0  0  0  0  0  0  0
   -5.6352   -7.2948   -5.8106 H   0  0  0  0  0  0  0  0  0  0  0  0
   -7.1761   -7.4518   -4.9018 H   0  0  0  0  0  0  0  0  0  0  0  0
   -5.6017   -7.7027   -4.0935 H   0  0  0  0  0  0  0  0  0  0  0  0
   -4.9279   -5.4488   -4.3572 H   0  0  0  0  0  0  0  0  0  0  0  0
   -6.3057   -4.1780   -2.8357 H   0  0  0  0  0  0  0  0  0  0  0  0
   -6.3350   -5.9219   -2.3591 H   0  0  0  0  0  0  0  0  0  0  0  0
   -7.7073   -5.0600   -3.2117 H   0  0  0  0  0  0  0  0  0  0  0  0
   -8.5025   -2.7284   -6.6125 H   0  0  0  0  0  0  0  0  0  0  0  0
   -7.5751   -3.5789   -7.8978 H   0  0  0  0  0  0  0  0  0  0  0  0
  -10.2949   -3.7297   -7.9062 H   0  0  0  0  0  0  0  0  0  0  0  0
  -10.0928   -4.0063   -5.2981 H   0  0  0  0  0  0  0  0  0  0  0  0
  -10.8811   -5.4494   -5.9698 H   0  0  0  0  0  0  0  0  0  0  0  0
   -8.7048   -6.1288   -4.8611 H   0  0  0  0  0  0  0  0  0  0  0  0
   -7.4960   -6.4934   -7.3895 H   0  0  0  0  0  0  0  0  0  0  0  0
   -8.7769   -8.5611   -6.5543 H   0  0  0  0  0  0  0  0  0  0  0  0
   -7.4205   -8.4664   -8.5378 H   0  0  0  0  0  0  0  0  0  0  0  0
   -8.6725  -10.5609   -9.2539 H   0  0  0  0  0  0  0  0  0  0  0  0
   -9.1034  -10.3084   -7.5648 H   0  0  0  0  0  0  0  0  0  0  0  0
  -11.2540   -9.9846   -8.8667 H   0  0  0  0  0  0  0  0  0  0  0  0
  -10.5436   -9.6105  -11.1996 H   0  0  0  0  0  0  0  0  0  0  0  0
   -7.8999   -9.4529  -10.5120 H   0  0  0  0  0  0  0  0  0  0  0  0
   -7.3783   -6.8763  -11.2727 H   0  0  0  0  0  0  0  0  0  0  0  0
   -9.1217   -6.9406  -11.2805 H   0  0  0  0  0  0  0  0  0  0  0  0
  -10.8457   -7.2760  -11.7169 H   0  0  0  0  0  0  0  0  0  0  0  0
  -10.9938   -5.3666  -10.1362 H   0  0  0  0  0  0  0  0  0  0  0  0
   -8.5446   -4.9754   -9.9898 H   0  0  0  0  0  0  0  0  0  0  0  0
  -11.5413   -6.0596   -8.0208 H   0  0  0  0  0  0  0  0  0  0  0  0
  -11.2424   -8.2392   -7.1327 H   0  0  0  0  0  0  0  0  0  0  0  0
   -8.4202   -8.7130  -11.9353 H   0  0  0  0  0  0  0  0  0  0  0  0
  1  2  1  0
  1 26  1  0
  1 27  1  0
  1 28  1  0
  2  3  1  0
  2  4  1  0
  2 29  1  0
  3 30  1  0
  3 31  1  0
  3 32  1  0
  4  5  2  0
  4  6  1  0
  6 10  1  0
  6  7  1  0
  7  8  1  0
  7 33  1  0
  7 34  1  0
 23  8  1  1
  8  9  1  0
  8 35  1  6
  9 10  1  0
  9 36  1  0
  9 37  1  0
 10 11  1  0
 10 38  1  1
 11 23  1  0
 11 12  1  0
 11 39  1  6
 12 25  1  0
 12 13  1  0
 12 40  1  1
 13 19  1  0
 13 14  1  0
 13 41  1  1
 14 15  1  0
 14 42  1  0
 14 43  1  0
 15 25  1  0
 15 16  1  0
 15 44  1  6
 16 20  1  0
 16 17  1  0
 16 45  1  6
 17 18  1  0
 17 46  1  0
 17 54  1  0
 18 22  1  0
 18 19  1  0
 18 47  1  0
 19 20  1  0
 19 48  1  6
 20 21  1  0
 20 49  1  6
 21 24  1  0
 21 22  1  0
 21 50  1  6
 22 23  1  0
 22 51  1  6
 23 24  1  0
 24 25  1  0
 24 52  1  1
 25 53  1  1
M  CHG  1  17   1
M  END
>  <i_m_ct_stereo_status>  (403) 
1

>  <s_m_source_file>  (403) 
/var/tmp/pbs.5076255.sched01/tmp6w_bron9/120d4r_aq7a.sdf

>  <i_m_source_file_index>  (403) 
34

>  <i_lp_mmshare_version>  (403) 
48012

>  <i_f3d_flags>  (403) 
0

>  <s_epik_input>  (403) 
W0NIM11bQ0hdKFtDSDNdKUMoPU8pTihbQ0gyXVtDQEhdMVtDQF0yMzQpW0NAQEhdKFtDSDJdMSlbQ0BIXTJbQ0BASF01W0NAQEhdNltDQEBIXTdbQ0hdOFtDQEhdM1tDQEhdOVtDQEBIXTdbQ0BASF0oW05IXTgpW0NAQEhdKFtDSDJdNilbQ0BASF01W0NAQEhdNDk=

>  <s_epik_cmdline>  (403) 
J2VwaWtfcHl0aG9uJywgJy1waHQnLCAnMi4wJywgJy1waCcsICc3LjAnLCAnLXRuJywgJzgnLCAnLW1hJywgJzIwMCcsICctaW1hZScsICc8aW5maWxlLm1hZT4nLCAnLW9tYWUnLCAnPG91dGZpbGUubWFlPic=

>  <r_lp_tautomer_probability>  (403) 
1

>  <r_epik_Ionization_Penalty>  (403) 
1.39985e-05

>  <r_epik_Ionization_Penalty_Charging>  (403) 
1.36035e-05

>  <r_epik_Ionization_Penalty_Neutral>  (403) 
3.95015e-07

>  <r_epik_State_Penalty>  (403) 
-0

>  <r_epik_Charging_Adjusted_Penalty>  (403) 
1.36035e-05

>  <i_epik_Tot_Q>  (403) 
1

>  <i_epik_Tot_abs_Q>  (403) 
1

>  <s_lp_Force_Field>  (403) 
OPLS3e

>  <r_lp_Energy>  (403) 
639.073

>  <b_lp_Chiralities_Consistent>  (403) 
1

>  <s_lp_Variant>  (403) 
106:0-1

>  <s_i_glide_gridfile>  (403) 
pfpi4k_grid

>  <i_i_glide_lignum>  (403) 
34

>  <i_i_glide_rotatable_bonds>  (403) 
2

>  <r_i_docking_score>  (403) 
-5.25591

>  <r_i_glide_ligand_efficiency>  (403) 
-0.210236

>  <r_i_glide_ligand_efficiency_sa>  (403) 
-0.614734

>  <r_i_glide_ligand_efficiency_ln>  (403) 
-1.24581

>  <r_i_glide_gscore>  (403) 
-5.25591

>  <r_i_glide_lipo>  (403) 
-2.17853

>  <r_i_glide_hbond>  (403) 
0

>  <r_i_glide_metal>  (403) 
-0

>  <r_i_glide_rewards>  (403) 
-2.52323

>  <r_i_glide_evdw>  (403) 
-7.80523

>  <r_i_glide_ecoul>  (403) 
-1.09255

>  <r_i_glide_erotb>  (403) 
0

>  <r_i_glide_esite>  (403) 
0

>  <r_i_glide_emodel>  (403) 
-13.2374

>  <r_i_glide_energy>  (403) 
-8.89777

>  <r_i_glide_einternal>  (403) 
3.8789

>  <r_i_glide_intrahb_reward>  (403) 
-0

>  <i_i_glide_confnum>  (403) 
1

>  <i_i_glide_posenum>  (403) 
15

>  <r_i_glide_eff_state_penalty>  (403) 
0

>  <ligand_id>  (403) 
106

>  <original_smiles>  (403) 
CC(C)C(=O)N1CC2CC1C1C3C4CC5C6NC7C4C6C4C7C21C4C53

>  <smiles>  (403) 
[H]C([H])([H])C([H])(C(=O)N1C([H])([H])C2([H])C([H])([H])C1([H])C1([H])C3([H])C4([H])C([H])([H])C5([H])C3([H])C3([H])C6([H])C7([H])C4([H])C([H])(C6([H])C213)[N+]([H])([H])C57[H])C([H])([H])[H]

$$$$
106:0:1
     RDKit          3D

 54 62  0  0  1  0  0  0  0  0999 V2000
    3.0914    2.3846    3.9277 C   0  0  0  0  0  0  0  0  0  0  0  0
    2.7861    2.0494    5.3960 C   0  0  0  0  0  0  0  0  0  0  0  0
    3.9789    1.3444    6.0646 C   0  0  0  0  0  0  0  0  0  0  0  0
    1.4872    1.2244    5.4841 C   0  0  0  0  0  0  0  0  0  0  0  0
    1.5463   -0.0034    5.4453 O   0  0  0  0  0  0  0  0  0  0  0  0
    0.3050    1.8688    5.6145 N   0  0  0  0  0  0  0  0  0  0  0  0
   -1.0000    1.2082    5.7499 C   0  0  0  0  0  0  0  0  0  0  0  0
   -1.8925    2.3534    6.2607 C   0  0  2  0  0  0  0  0  0  0  0  0
   -1.3267    3.4953    5.4226 C   0  0  0  0  0  0  0  0  0  0  0  0
    0.0743    3.2764    5.9746 C   0  0  1  0  0  0  0  0  0  0  0  0
   -0.1061    3.2003    7.5113 C   0  0  1  0  0  0  0  0  0  0  0  0
   -0.0453    4.3808    8.4705 C   0  0  2  0  0  0  0  0  0  0  0  0
   -0.0393    3.7872    9.8624 C   0  0  1  0  0  0  0  0  0  0  0  0
    0.1787    5.1078   10.6285 C   0  0  0  0  0  0  0  0  0  0  0  0
   -1.2652    5.4104   10.3981 C   0  0  2  0  0  0  0  0  0  0  0  0
   -1.8928    4.2676   11.4187 C   0  0  2  0  0  0  0  0  0  0  0  0
   -0.9728    2.9748   11.8582 N   0  0  0  0  0  0  0  0  0  0  0  0
   -0.9824    1.9230   10.5795 C   0  0  0  0  0  0  0  0  0  0  0  0
   -1.5974    3.0469   10.6032 C   0  0  1  0  0  0  0  0  0  0  0  0
   -2.9777    3.6255   10.5613 C   0  0  2  0  0  0  0  0  0  0  0  0
   -2.9644    3.0911    9.1453 C   0  0  2  0  0  0  0  0  0  0  0  0
   -1.7946    1.9911    9.0225 C   0  0  1  0  0  0  0  0  0  0  0  0
   -1.5084    2.7906    7.6958 C   0  0  2  0  0  0  0  0  0  0  0  0
   -2.2874    4.0327    8.2092 C   0  0  2  0  0  0  0  0  0  0  0  0
   -1.3440    5.1162    8.7777 C   0  0  2  0  0  0  0  0  0  0  0  0
    2.2711    2.9273    3.4538 H   0  0  0  0  0  0  0  0  0  0  0  0
    3.2843    1.4866    3.3364 H   0  0  0  0  0  0  0  0  0  0  0  0
    3.9701    3.0229    3.8634 H   0  0  0  0  0  0  0  0  0  0  0  0
    2.6688    2.9826    5.9376 H   0  0  0  0  0  0  0  0  0  0  0  0
    3.7729    1.1309    7.1125 H   0  0  0  0  0  0  0  0  0  0  0  0
    4.8642    1.9812    6.0319 H   0  0  0  0  0  0  0  0  0  0  0  0
    4.2317    0.4075    5.5693 H   0  0  0  0  0  0  0  0  0  0  0  0
   -1.3422    0.8361    4.7775 H   0  0  0  0  0  0  0  0  0  0  0  0
   -0.9654    0.3661    6.4436 H   0  0  0  0  0  0  0  0  0  0  0  0
   -2.9604    2.1854    6.1173 H   0  0  0  0  0  0  0  0  0  0  0  0
   -1.3918    3.3319    4.3450 H   0  0  0  0  0  0  0  0  0  0  0  0
   -1.7220    4.4846    5.6474 H   0  0  0  0  0  0  0  0  0  0  0  0
    0.8072    3.9970    5.6109 H   0  0  0  0  0  0  0  0  0  0  0  0
    0.5805    2.4424    7.8984 H   0  0  0  0  0  0  0  0  0  0  0  0
    0.8107    5.0231    8.2363 H   0  0  0  0  0  0  0  0  0  0  0  0
    0.8682    3.1875    9.9968 H   0  0  0  0  0  0  0  0  0  0  0  0
    0.4513    5.0241   11.6799 H   0  0  0  0  0  0  0  0  0  0  0  0
    0.8603    5.8345   10.1712 H   0  0  0  0  0  0  0  0  0  0  0  0
   -1.5547    6.4328   10.6630 H   0  0  0  0  0  0  0  0  0  0  0  0
   -2.3113    4.7524   12.3072 H   0  0  0  0  0  0  0  0  0  0  0  0
   -0.0545    3.2370   12.1433 H   0  0  0  0  0  0  0  0  0  0  0  0
   -1.1139    0.9527   11.1189 H   0  0  0  0  0  0  0  0  0  0  0  0
   -2.3804    2.1173   10.8727 H   0  0  0  0  0  0  0  0  0  0  0  0
   -3.7834    3.2211   11.1980 H   0  0  0  0  0  0  0  0  0  0  0  0
   -3.9261    2.7429    8.7621 H   0  0  0  0  0  0  0  0  0  0  0  0
   -2.1705    1.0223    8.7055 H   0  0  0  0  0  0  0  0  0  0  0  0
   -3.0035    4.4165    7.4909 H   0  0  0  0  0  0  0  0  0  0  0  0
   -1.3987    6.0351    8.1935 H   0  0  0  0  0  0  0  0  0  0  0  0
   -1.5106    2.5290   12.5851 H   0  0  0  0  0  0  0  0  0  0  0  0
  1  2  1  0
  1 26  1  0
  1 27  1  0
  1 28  1  0
  2  3  1  0
  2  4  1  0
  2 29  1  0
  3 30  1  0
  3 31  1  0
  3 32  1  0
  4  5  2  0
  4  6  1  0
  6 10  1  0
  6  7  1  0
  7  8  1  0
  7 33  1  0
  7 34  1  0
 23  8  1  6
  8  9  1  0
  8 35  1  1
  9 10  1  0
  9 36  1  0
  9 37  1  0
 10 11  1  0
 10 38  1  1
 11 23  1  0
 11 12  1  0
 11 39  1  1
 12 25  1  0
 12 13  1  0
 12 40  1  6
 13 19  1  0
 13 14  1  0
 13 41  1  6
 14 15  1  0
 14 42  1  0
 14 43  1  0
 15 25  1  0
 15 16  1  0
 15 44  1  6
 16 20  1  0
 16 17  1  0
 16 45  1  1
 17 18  1  0
 17 46  1  0
 17 54  1  0
 18 22  1  0
 18 19  1  0
 18 47  1  0
 19 20  1  0
 19 48  1  1
 20 21  1  0
 20 49  1  1
 21 24  1  0
 21 22  1  0
 21 50  1  6
 22 23  1  0
 22 51  1  6
 23 24  1  0
 24 25  1  0
 24 52  1  6
 25 53  1  6
M  CHG  1  17   1
M  END
>  <i_m_ct_stereo_status>  (404) 
1

>  <s_m_source_file>  (404) 
/var/tmp/pbs.5076255.sched01/tmp6w_bron9/120d4r_aq7a.sdf

>  <i_m_source_file_index>  (404) 
34

>  <i_lp_mmshare_version>  (404) 
48012

>  <i_f3d_flags>  (404) 
0

>  <s_epik_input>  (404) 
W0NIM11bQ0hdKFtDSDNdKUMoPU8pTihbQ0gyXVtDQEhdMVtDQF0yMzQpW0NAQEhdKFtDSDJdMSlbQ0BIXTJbQ0BASF01W0NAQEhdNltDQEBIXTdbQ0hdOFtDQEhdM1tDQEhdOVtDQEBIXTdbQ0BASF0oW05IXTgpW0NAQEhdKFtDSDJdNilbQ0BASF01W0NAQEhdNDk=

>  <s_epik_cmdline>  (404) 
J2VwaWtfcHl0aG9uJywgJy1waHQnLCAnMi4wJywgJy1waCcsICc3LjAnLCAnLXRuJywgJzgnLCAnLW1hJywgJzIwMCcsICctaW1hZScsICc8aW5maWxlLm1hZT4nLCAnLW9tYWUnLCAnPG91dGZpbGUubWFlPic=

>  <r_lp_tautomer_probability>  (404) 
1

>  <r_epik_Ionization_Penalty>  (404) 
1.39985e-05

>  <r_epik_Ionization_Penalty_Charging>  (404) 
1.36035e-05

>  <r_epik_Ionization_Penalty_Neutral>  (404) 
3.95015e-07

>  <r_epik_State_Penalty>  (404) 
-0

>  <r_epik_Charging_Adjusted_Penalty>  (404) 
1.36035e-05

>  <i_epik_Tot_Q>  (404) 
1

>  <i_epik_Tot_abs_Q>  (404) 
1

>  <s_lp_Force_Field>  (404) 
OPLS3e

>  <r_lp_Energy>  (404) 
639.073

>  <b_lp_Chiralities_Consistent>  (404) 
1

>  <s_lp_Variant>  (404) 
106:0-1

>  <s_i_glide_gridfile>  (404) 
pfpi4k_grid

>  <i_i_glide_lignum>  (404) 
34

>  <i_i_glide_rotatable_bonds>  (404) 
2

>  <r_i_docking_score>  (404) 
-2.79507

>  <r_i_glide_ligand_efficiency>  (404) 
-0.111803

>  <r_i_glide_ligand_efficiency_sa>  (404) 
-0.326914

>  <r_i_glide_ligand_efficiency_ln>  (404) 
-0.662516

>  <r_i_glide_gscore>  (404) 
-2.79507

>  <r_i_glide_lipo>  (404) 
-0.0648283

>  <r_i_glide_hbond>  (404) 
-0.2

>  <r_i_glide_metal>  (404) 
-0

>  <r_i_glide_rewards>  (404) 
-1.1081

>  <r_i_glide_evdw>  (404) 
-12.8565

>  <r_i_glide_ecoul>  (404) 
-4.61741

>  <r_i_glide_erotb>  (404) 
0

>  <r_i_glide_esite>  (404) 
-0.0867088

>  <r_i_glide_emodel>  (404) 
-21.1388

>  <r_i_glide_energy>  (404) 
-17.4739

>  <r_i_glide_einternal>  (404) 
0.847486

>  <r_i_glide_intrahb_reward>  (404) 
-0

>  <i_i_glide_confnum>  (404) 
2

>  <i_i_glide_posenum>  (404) 
14

>  <r_i_glide_eff_state_penalty>  (404) 
0

>  <ligand_id>  (404) 
106

>  <original_smiles>  (404) 
CC(C)C(=O)N1CC2CC1C1C3C4CC5C6NC7C4C6C4C7C21C4C53

>  <smiles>  (404) 
[H]C([H])([H])C([H])(C(=O)N1C([H])([H])C2([H])C([H])([H])C1([H])C1([H])C3([H])C4([H])C([H])([H])C5([H])C3([H])C3([H])C6([H])C7([H])C4([H])C([H])(C6([H])C213)[N+]([H])([H])C57[H])C([H])([H])[H]

$$$$
106:0:2
     RDKit          3D

 54 62  0  0  1  0  0  0  0  0999 V2000
    0.0529   -0.3820    3.6937 C   0  0  0  0  0  0  0  0  0  0  0  0
    0.2149    0.1747    5.1102 C   0  0  0  0  0  0  0  0  0  0  0  0
    0.9694   -0.8031    6.0242 C   0  0  0  0  0  0  0  0  0  0  0  0
   -1.1523    0.5724    5.7051 C   0  0  0  0  0  0  0  0  0  0  0  0
   -2.0449   -0.2788    5.7700 O   0  0  0  0  0  0  0  0  0  0  0  0
   -1.3465    1.8220    6.1758 N   0  0  0  0  0  0  0  0  0  0  0  0
   -2.5885    2.3059    6.8045 C   0  0  0  0  0  0  0  0  0  0  0  0
   -2.1324    3.5928    7.5147 C   0  0  2  0  0  0  0  0  0  0  0  0
   -1.1673    4.1136    6.4560 C   0  0  0  0  0  0  0  0  0  0  0  0
   -0.3377    2.8421    6.5085 C   0  0  1  0  0  0  0  0  0  0  0  0
   -0.0898    2.5871    8.0182 C   0  0  1  0  0  0  0  0  0  0  0  0
    1.1032    3.1103    8.8047 C   0  0  2  0  0  0  0  0  0  0  0  0
    1.0484    2.4202   10.1522 C   0  0  1  0  0  0  0  0  0  0  0  0
    2.3795    2.9604   10.6998 C   0  0  0  0  0  0  0  0  0  0  0  0
    1.6791    4.2522   10.9570 C   0  0  2  0  0  0  0  0  0  0  0  0
    0.7199    3.7357   12.2113 C   0  0  2  0  0  0  0  0  0  0  0  0
    0.4174    2.1350   12.3853 N   0  0  0  0  0  0  0  0  0  0  0  0
   -0.7114    1.7208   11.2696 C   0  0  1  0  0  0  0  0  0  0  0  0
   -0.2331    2.8980   11.4306 C   0  0  1  0  0  0  0  0  0  0  0  0
   -0.6444    4.2931   11.8214 C   0  0  2  0  0  0  0  0  0  0  0  0
   -1.4266    4.2264   10.5267 C   0  0  2  0  0  0  0  0  0  0  0  0
   -1.5933    2.6885   10.0878 C   0  0  1  0  0  0  0  0  0  0  0  0
   -1.1856    3.2861    8.7006 C   0  0  2  0  0  0  0  0  0  0  0  0
   -0.5788    4.5559    9.3545 C   0  0  2  0  0  0  0  0  0  0  0  0
    0.9647    4.4624    9.4855 C   0  0  2  0  0  0  0  0  0  0  0  0
   -0.4436    0.3423    3.0444 H   0  0  0  0  0  0  0  0  0  0  0  0
   -0.5266   -1.3054    3.6847 H   0  0  0  0  0  0  0  0  0  0  0  0
    1.0273   -0.5942    3.2524 H   0  0  0  0  0  0  0  0  0  0  0  0
    0.8608    1.0372    4.9844 H   0  0  0  0  0  0  0  0  0  0  0  0
    1.1139   -0.3934    7.0241 H   0  0  0  0  0  0  0  0  0  0  0  0
    1.9613   -0.9974    5.6177 H   0  0  0  0  0  0  0  0  0  0  0  0
    0.4578   -1.7622    6.1142 H   0  0  0  0  0  0  0  0  0  0  0  0
   -3.3424    2.5411    6.0547 H   0  0  0  0  0  0  0  0  0  0  0  0
   -3.0006    1.5776    7.4954 H   0  0  0  0  0  0  0  0  0  0  0  0
   -2.9486    4.2723    7.7541 H   0  0  0  0  0  0  0  0  0  0  0  0
   -1.6216    4.2752    5.4754 H   0  0  0  0  0  0  0  0  0  0  0  0
   -0.6001    5.0030    6.7318 H   0  0  0  0  0  0  0  0  0  0  0  0
    0.5512    2.9120    5.8914 H   0  0  0  0  0  0  0  0  0  0  0  0
   -0.1322    1.5131    8.1912 H   0  0  0  0  0  0  0  0  0  0  0  0
    2.0346    2.9595    8.2542 H   0  0  0  0  0  0  0  0  0  0  0  0
    1.1764    1.3417   10.0111 H   0  0  0  0  0  0  0  0  0  0  0  0
    2.7733    2.4810   11.5995 H   0  0  0  0  0  0  0  0  0  0  0  0
    3.2036    3.0410    9.9879 H   0  0  0  0  0  0  0  0  0  0  0  0
    2.3404    5.0679   11.2269 H   0  0  0  0  0  0  0  0  0  0  0  0
    1.0817    4.1716   13.1351 H   0  0  0  0  0  0  0  0  0  0  0  0
    1.2584    1.5892   12.2908 H   0  0  0  0  0  0  0  0  0  0  0  0
   -1.3756    1.0639   11.8575 H   0  0  0  0  0  0  0  0  0  0  0  0
   -1.3260    2.7961   12.0150 H   0  0  0  0  0  0  0  0  0  0  0  0
   -1.2628    4.4636   12.7137 H   0  0  0  0  0  0  0  0  0  0  0  0
   -2.3775    4.7657   10.5117 H   0  0  0  0  0  0  0  0  0  0  0  0
   -2.6390    2.4013   10.0361 H   0  0  0  0  0  0  0  0  0  0  0  0
   -0.9221    5.4838    8.9073 H   0  0  0  0  0  0  0  0  0  0  0  0
    1.4603    5.2331    8.8889 H   0  0  0  0  0  0  0  0  0  0  0  0
   -0.0000    2.0050   13.2832 H   0  0  0  0  0  0  0  0  0  0  0  0
  1  2  1  0
  1 26  1  0
  1 27  1  0
  1 28  1  0
  2  3  1  0
  2  4  1  0
  2 29  1  0
  3 30  1  0
  3 31  1  0
  3 32  1  0
  4  5  2  0
  4  6  1  0
  6 10  1  0
  6  7  1  0
  7  8  1  0
  7 33  1  0
  7 34  1  0
 23  8  1  6
  8  9  1  0
  8 35  1  1
  9 10  1  0
  9 36  1  0
  9 37  1  0
 10 11  1  0
 10 38  1  6
 11 23  1  0
 11 12  1  0
 11 39  1  6
 12 25  1  0
 12 13  1  0
 12 40  1  6
 13 19  1  0
 13 14  1  0
 13 41  1  6
 14 15  1  0
 14 42  1  0
 14 43  1  0
 15 25  1  0
 15 16  1  0
 15 44  1  1
 16 20  1  0
 16 17  1  0
 16 45  1  1
 17 18  1  0
 17 46  1  0
 17 54  1  0
 18 22  1  0
 18 19  1  0
 18 47  1  6
 19 20  1  0
 19 48  1  1
 20 21  1  0
 20 49  1  1
 21 24  1  0
 21 22  1  0
 21 50  1  1
 22 23  1  0
 22 51  1  6
 23 24  1  0
 24 25  1  0
 24 52  1  6
 25 53  1  6
M  CHG  1  17   1
M  END
>  <i_m_ct_stereo_status>  (405) 
1

>  <s_m_source_file>  (405) 
/var/tmp/pbs.5076255.sched01/tmp6w_bron9/120d4r_aq7a.sdf

>  <i_m_source_file_index>  (405) 
34

>  <i_lp_mmshare_version>  (405) 
48012

>  <i_f3d_flags>  (405) 
0

>  <s_epik_input>  (405) 
W0NIM11bQ0hdKFtDSDNdKUMoPU8pTihbQ0gyXVtDQEhdMVtDQF0yMzQpW0NAQEhdKFtDSDJdMSlbQ0BIXTJbQ0BASF01W0NAQEhdNltDQEBIXTdbQ0hdOFtDQEhdM1tDQEhdOVtDQEBIXTdbQ0BASF0oW05IXTgpW0NAQEhdKFtDSDJdNilbQ0BASF01W0NAQEhdNDk=

>  <s_epik_cmdline>  (405) 
J2VwaWtfcHl0aG9uJywgJy1waHQnLCAnMi4wJywgJy1waCcsICc3LjAnLCAnLXRuJywgJzgnLCAnLW1hJywgJzIwMCcsICctaW1hZScsICc8aW5maWxlLm1hZT4nLCAnLW9tYWUnLCAnPG91dGZpbGUubWFlPic=

>  <r_lp_tautomer_probability>  (405) 
1

>  <r_epik_Ionization_Penalty>  (405) 
1.39985e-05

>  <r_epik_Ionization_Penalty_Charging>  (405) 
1.36035e-05

>  <r_epik_Ionization_Penalty_Neutral>  (405) 
3.95015e-07

>  <r_epik_State_Penalty>  (405) 
-0

>  <r_epik_Charging_Adjusted_Penalty>  (405) 
1.36035e-05

>  <i_epik_Tot_Q>  (405) 
1

>  <i_epik_Tot_abs_Q>  (405) 
1

>  <s_lp_Force_Field>  (405) 
OPLS3e

>  <r_lp_Energy>  (405) 
639.073

>  <b_lp_Chiralities_Consistent>  (405) 
1

>  <s_lp_Variant>  (405) 
106:0-1

>  <s_i_glide_gridfile>  (405) 
pfpi4k_grid

>  <i_i_glide_lignum>  (405) 
34

>  <i_i_glide_rotatable_bonds>  (405) 
2

>  <r_i_docking_score>  (405) 
-2.78973

>  <r_i_glide_ligand_efficiency>  (405) 
-0.111589

>  <r_i_glide_ligand_efficiency_sa>  (405) 
-0.326288

>  <r_i_glide_ligand_efficiency_ln>  (405) 
-0.661249

>  <r_i_glide_gscore>  (405) 
-2.78973

>  <r_i_glide_lipo>  (405) 
-0.148236

>  <r_i_glide_hbond>  (405) 
-0.103471

>  <r_i_glide_metal>  (405) 
-0

>  <r_i_glide_rewards>  (405) 
-1.1081

>  <r_i_glide_evdw>  (405) 
-12.8432

>  <r_i_glide_ecoul>  (405) 
-4.90133

>  <r_i_glide_erotb>  (405) 
0

>  <r_i_glide_esite>  (405) 
-0.0525579

>  <r_i_glide_emodel>  (405) 
-21.7124

>  <r_i_glide_energy>  (405) 
-17.7446

>  <r_i_glide_einternal>  (405) 
0.207913

>  <r_i_glide_intrahb_reward>  (405) 
-0

>  <i_i_glide_confnum>  (405) 
1

>  <i_i_glide_posenum>  (405) 
9

>  <r_i_glide_eff_state_penalty>  (405) 
0

>  <ligand_id>  (405) 
106

>  <original_smiles>  (405) 
CC(C)C(=O)N1CC2CC1C1C3C4CC5C6NC7C4C6C4C7C21C4C53

>  <smiles>  (405) 
[H]C([H])([H])C([H])(C(=O)N1C([H])([H])C2([H])C([H])([H])C1([H])C1([H])C3([H])C4([H])C([H])([H])C5([H])C3([H])C3([H])C6([H])C7([H])C4([H])C([H])(C6([H])C213)[N+]([H])([H])C57[H])C([H])([H])[H]

$$$$
107:0:0
     RDKit          3D

 41 43  0  0  1  0  0  0  0  0999 V2000
  -12.0272  -11.3990   -9.4653 C   0  0  0  0  0  0  0  0  0  0  0  0
  -10.6187  -11.9603   -9.6765 C   0  0  0  0  0  0  0  0  0  0  0  0
   -9.6060  -11.2441   -8.8809 N   0  0  2  0  0  0  0  0  0  0  0  0
   -8.2375  -11.5128   -9.3830 C   0  0  0  0  0  0  0  0  0  0  0  0
   -7.2086  -10.6608   -8.6296 C   0  0  0  0  0  0  0  0  0  0  0  0
   -7.2778  -10.8721   -7.0888 C   0  0  1  0  0  0  0  0  0  0  0  0
   -6.7549  -12.2986   -6.7335 C   0  0  0  0  0  0  0  0  0  0  0  0
   -5.2374  -12.4296   -6.8924 C   0  0  0  0  0  0  0  0  0  0  0  0
   -4.5271  -11.4525   -5.9536 C   0  0  0  0  0  0  0  0  0  0  0  0
   -5.1246  -10.0553   -5.9244 C   0  0  0  0  0  0  0  0  0  0  0  0
   -4.3792   -9.0010   -5.3344 C   0  0  0  0  0  0  0  0  0  0  0  0
   -4.9075   -7.6946   -5.2555 C   0  0  0  0  0  0  0  0  0  0  0  0
   -6.1859   -7.4233   -5.7800 C   0  0  0  0  0  0  0  0  0  0  0  0
   -6.9120   -8.4477   -6.3901 C   0  0  0  0  0  0  0  0  0  0  0  0
   -6.4240   -9.7760   -6.4372 C   0  0  0  0  0  0  0  0  0  0  0  0
   -8.7562  -10.7263   -6.6078 C   0  0  0  0  0  0  0  0  0  0  0  0
   -9.7305  -11.5519   -7.4283 C   0  0  0  0  0  0  0  0  0  0  0  0
  -12.7237  -11.9084  -10.1269 H   0  0  0  0  0  0  0  0  0  0  0  0
  -12.0586  -10.3313   -9.6849 H   0  0  0  0  0  0  0  0  0  0  0  0
  -12.3928  -11.5451   -8.4489 H   0  0  0  0  0  0  0  0  0  0  0  0
  -10.5798  -13.0170   -9.4093 H   0  0  0  0  0  0  0  0  0  0  0  0
  -10.3672  -11.9008  -10.7377 H   0  0  0  0  0  0  0  0  0  0  0  0
   -8.0361  -12.5799   -9.2829 H   0  0  0  0  0  0  0  0  0  0  0  0
   -8.1480  -11.2946  -10.4484 H   0  0  0  0  0  0  0  0  0  0  0  0
   -6.2113  -10.8731   -9.0254 H   0  0  0  0  0  0  0  0  0  0  0  0
   -7.3695   -9.6081   -8.8727 H   0  0  0  0  0  0  0  0  0  0  0  0
   -7.0215  -12.5653   -5.7087 H   0  0  0  0  0  0  0  0  0  0  0  0
   -7.2291  -13.0817   -7.3209 H   0  0  0  0  0  0  0  0  0  0  0  0
   -4.9110  -13.4555   -6.7216 H   0  0  0  0  0  0  0  0  0  0  0  0
   -4.9343  -12.2182   -7.9141 H   0  0  0  0  0  0  0  0  0  0  0  0
   -4.5643  -11.8547   -4.9419 H   0  0  0  0  0  0  0  0  0  0  0  0
   -3.4748  -11.3929   -6.2219 H   0  0  0  0  0  0  0  0  0  0  0  0
   -3.3878   -9.2058   -4.9534 H   0  0  0  0  0  0  0  0  0  0  0  0
   -4.3200   -6.8929   -4.8204 H   0  0  0  0  0  0  0  0  0  0  0  0
   -6.6050   -6.4260   -5.7318 H   0  0  0  0  0  0  0  0  0  0  0  0
   -7.8737   -8.1354   -6.8003 H   0  0  0  0  0  0  0  0  0  0  0  0
   -8.8476  -10.9440   -5.5399 H   0  0  0  0  0  0  0  0  0  0  0  0
   -9.1669   -9.7278   -6.7422 H   0  0  0  0  0  0  0  0  0  0  0  0
  -10.7274  -11.2704   -7.0875 H   0  0  0  0  0  0  0  0  0  0  0  0
   -9.5926  -12.6183   -7.2366 H   0  0  0  0  0  0  0  0  0  0  0  0
   -9.7571  -10.2476   -9.0076 H   0  0  0  0  0  0  0  0  0  0  0  0
  1  2  1  0
  1 18  1  0
  1 19  1  0
  1 20  1  0
  2  3  1  0
  2 21  1  0
  2 22  1  0
  3 17  1  0
  3  4  1  0
  3 41  1  1
  4  5  1  0
  4 23  1  0
  4 24  1  0
  6  5  1  6
  5 25  1  0
  5 26  1  0
  6 15  1  0
  6  7  1  0
  6 16  1  0
  7  8  1  0
  7 27  1  0
  7 28  1  0
  8  9  1  0
  8 29  1  0
  8 30  1  0
  9 10  1  0
  9 31  1  0
  9 32  1  0
 10 15  2  0
 10 11  1  0
 11 12  2  0
 11 33  1  0
 12 13  1  0
 12 34  1  0
 13 14  2  0
 13 35  1  0
 14 15  1  0
 14 36  1  0
 16 17  1  0
 16 37  1  0
 16 38  1  0
 17 39  1  0
 17 40  1  0
M  CHG  1   3   1
M  END
>  <i_m_ct_stereo_status>  (406) 
1

>  <s_m_source_file>  (406) 
/var/tmp/pbs.5076255.sched01/tmp6w_bron9/120d4r_aq7a.sdf

>  <i_m_source_file_index>  (406) 
35

>  <i_lp_mmshare_version>  (406) 
48012

>  <i_f3d_flags>  (406) 
0

>  <s_epik_input>  (406) 
W0NIM11bQ0gyXU4oW0NIMl1bQ0gyXTEpW0NIMl1bQ0gyXUMxMmMzYyhbQ0gyXVtDSDJdW0NIMl0yKVtjSF1bY0hdW2NIXVtjSF0z

>  <s_epik_cmdline>  (406) 
J2VwaWtfcHl0aG9uJywgJy1waHQnLCAnMi4wJywgJy1waCcsICc3LjAnLCAnLXRuJywgJzgnLCAnLW1hJywgJzIwMCcsICctaW1hZScsICc8aW5maWxlLm1hZT4nLCAnLW9tYWUnLCAnPG91dGZpbGUubWFlPic=

>  <r_epik_Ionization_Penalty>  (406) 
0.00176029

>  <r_epik_Ionization_Penalty_Charging>  (406) 
0.00176029

>  <r_epik_Ionization_Penalty_Neutral>  (406) 
0

>  <r_epik_State_Penalty>  (406) 
0.00119212

>  <r_epik_Charging_Adjusted_Penalty>  (406) 
0.00295241

>  <i_epik_Tot_Q>  (406) 
1

>  <i_epik_Tot_abs_Q>  (406) 
1

>  <s_lp_Force_Field>  (406) 
OPLS3e

>  <r_lp_Energy>  (406) 
52.0208

>  <b_lp_Chiralities_Consistent>  (406) 
1

>  <s_lp_Variant>  (406) 
107:0-1

>  <s_i_glide_gridfile>  (406) 
pfpi4k_grid

>  <i_i_glide_lignum>  (406) 
35

>  <i_i_glide_rotatable_bonds>  (406) 
1

>  <r_i_docking_score>  (406) 
-5.33224

>  <r_i_glide_ligand_efficiency>  (406) 
-0.313661

>  <r_i_glide_ligand_efficiency_sa>  (406) 
-0.806512

>  <r_i_glide_ligand_efficiency_ln>  (406) 
-1.39106

>  <r_i_glide_gscore>  (406) 
-5.33224

>  <r_i_glide_lipo>  (406) 
-1.76213

>  <r_i_glide_hbond>  (406) 
0

>  <r_i_glide_metal>  (406) 
-0

>  <r_i_glide_rewards>  (406) 
-2.1634

>  <r_i_glide_evdw>  (406) 
-24.826

>  <r_i_glide_ecoul>  (406) 
-1.10279

>  <r_i_glide_erotb>  (406) 
0

>  <r_i_glide_esite>  (406) 
0

>  <r_i_glide_emodel>  (406) 
-33.0984

>  <r_i_glide_energy>  (406) 
-25.9288

>  <r_i_glide_einternal>  (406) 
0.00753323

>  <r_i_glide_intrahb_reward>  (406) 
-0

>  <i_i_glide_confnum>  (406) 
4

>  <i_i_glide_posenum>  (406) 
34

>  <r_i_glide_eff_state_penalty>  (406) 
0

>  <ligand_id>  (406) 
107

>  <original_smiles>  (406) 
CCN1CCC2(CCCc3ccccc32)CC1

>  <smiles>  (406) 
[H]c1c([H])c([H])c2c(c1[H])C([H])([H])C([H])([H])C([H])([H])C21C([H])([H])C([H])([H])[N+]([H])(C([H])([H])C([H])([H])[H])C([H])([H])C1([H])[H]

$$$$
107:0:1
     RDKit          3D

 41 43  0  0  1  0  0  0  0  0999 V2000
  -10.3908  -13.2716   -9.8428 C   0  0  0  0  0  0  0  0  0  0  0  0
  -10.6381  -11.7468   -9.7628 C   0  0  0  0  0  0  0  0  0  0  0  0
   -9.6138  -11.0580   -8.9524 N   0  0  2  0  0  0  0  0  0  0  0  0
   -8.2360  -11.2759   -9.4700 C   0  0  0  0  0  0  0  0  0  0  0  0
   -7.2105  -10.4641   -8.6818 C   0  0  0  0  0  0  0  0  0  0  0  0
   -7.2909  -10.7592   -7.1516 C   0  0  1  0  0  0  0  0  0  0  0  0
   -6.7836  -12.2065   -6.8559 C   0  0  0  0  0  0  0  0  0  0  0  0
   -5.2662  -12.3469   -7.0171 C   0  0  0  0  0  0  0  0  0  0  0  0
   -4.5465  -11.4184   -6.0371 C   0  0  0  0  0  0  0  0  0  0  0  0
   -5.1301  -10.0181   -5.9478 C   0  0  0  0  0  0  0  0  0  0  0  0
   -4.3797   -8.9951   -5.3152 C   0  0  0  0  0  0  0  0  0  0  0  0
   -4.8968   -7.6872   -5.1840 C   0  0  0  0  0  0  0  0  0  0  0  0
   -6.1743   -7.3851   -5.7025 C   0  0  0  0  0  0  0  0  0  0  0  0
   -6.9059   -8.3754   -6.3553 C   0  0  0  0  0  0  0  0  0  0  0  0
   -6.4276   -9.7095   -6.4480 C   0  0  0  0  0  0  0  0  0  0  0  0
   -8.7688  -10.6085   -6.6632 C   0  0  0  0  0  0  0  0  0  0  0  0
   -9.7550  -11.3887   -7.5033 C   0  0  0  0  0  0  0  0  0  0  0  0
  -11.2200  -13.7797  -10.3286 H   0  0  0  0  0  0  0  0  0  0  0  0
  -10.2724  -13.7286   -8.8604 H   0  0  0  0  0  0  0  0  0  0  0  0
   -9.4900  -13.5055  -10.4116 H   0  0  0  0  0  0  0  0  0  0  0  0
  -10.6572  -11.3045  -10.7604 H   0  0  0  0  0  0  0  0  0  0  0  0
  -11.6177  -11.5338   -9.3321 H   0  0  0  0  0  0  0  0  0  0  0  0
   -7.9565  -12.3237   -9.3843 H   0  0  0  0  0  0  0  0  0  0  0  0
   -8.1618  -11.0336  -10.5338 H   0  0  0  0  0  0  0  0  0  0  0  0
   -6.2141  -10.6850   -9.0815 H   0  0  0  0  0  0  0  0  0  0  0  0
   -7.3618   -9.4002   -8.8804 H   0  0  0  0  0  0  0  0  0  0  0  0
   -7.0550  -12.5116   -5.8442 H   0  0  0  0  0  0  0  0  0  0  0  0
   -7.2627  -12.9656   -7.4700 H   0  0  0  0  0  0  0  0  0  0  0  0
   -4.9502  -13.3824   -6.8902 H   0  0  0  0  0  0  0  0  0  0  0  0
   -4.9615  -12.0953   -8.0304 H   0  0  0  0  0  0  0  0  0  0  0  0
   -4.5787  -11.8625   -5.0446 H   0  0  0  0  0  0  0  0  0  0  0  0
   -3.4975  -11.3528   -6.3059 H   0  0  0  0  0  0  0  0  0  0  0  0
   -3.3929   -9.2238   -4.9447 H   0  0  0  0  0  0  0  0  0  0  0  0
   -4.3022   -6.9105   -4.7164 H   0  0  0  0  0  0  0  0  0  0  0  0
   -6.5830   -6.3827   -5.6115 H   0  0  0  0  0  0  0  0  0  0  0  0
   -7.8677   -8.0392   -6.7546 H   0  0  0  0  0  0  0  0  0  0  0  0
   -8.8628  -10.8822   -5.6075 H   0  0  0  0  0  0  0  0  0  0  0  0
   -9.1640   -9.5987   -6.7585 H   0  0  0  0  0  0  0  0  0  0  0  0
  -10.7663  -11.1273   -7.1711 H   0  0  0  0  0  0  0  0  0  0  0  0
   -9.5934  -12.4463   -7.2973 H   0  0  0  0  0  0  0  0  0  0  0  0
   -9.7735  -10.0564   -9.0421 H   0  0  0  0  0  0  0  0  0  0  0  0
  1  2  1  0
  1 18  1  0
  1 19  1  0
  1 20  1  0
  2  3  1  0
  2 21  1  0
  2 22  1  0
  3 17  1  0
  3  4  1  0
  3 41  1  1
  4  5  1  0
  4 23  1  0
  4 24  1  0
  6  5  1  6
  5 25  1  0
  5 26  1  0
  6 15  1  0
  6  7  1  0
  6 16  1  0
  7  8  1  0
  7 27  1  0
  7 28  1  0
  8  9  1  0
  8 29  1  0
  8 30  1  0
  9 10  1  0
  9 31  1  0
  9 32  1  0
 10 15  2  0
 10 11  1  0
 11 12  2  0
 11 33  1  0
 12 13  1  0
 12 34  1  0
 13 14  2  0
 13 35  1  0
 14 15  1  0
 14 36  1  0
 16 17  1  0
 16 37  1  0
 16 38  1  0
 17 39  1  0
 17 40  1  0
M  CHG  1   3   1
M  END
>  <i_m_ct_stereo_status>  (407) 
1

>  <s_m_source_file>  (407) 
/var/tmp/pbs.5076255.sched01/tmp6w_bron9/120d4r_aq7a.sdf

>  <i_m_source_file_index>  (407) 
35

>  <i_lp_mmshare_version>  (407) 
48012

>  <i_f3d_flags>  (407) 
0

>  <s_epik_input>  (407) 
W0NIM11bQ0gyXU4oW0NIMl1bQ0gyXTEpW0NIMl1bQ0gyXUMxMmMzYyhbQ0gyXVtDSDJdW0NIMl0yKVtjSF1bY0hdW2NIXVtjSF0z

>  <s_epik_cmdline>  (407) 
J2VwaWtfcHl0aG9uJywgJy1waHQnLCAnMi4wJywgJy1waCcsICc3LjAnLCAnLXRuJywgJzgnLCAnLW1hJywgJzIwMCcsICctaW1hZScsICc8aW5maWxlLm1hZT4nLCAnLW9tYWUnLCAnPG91dGZpbGUubWFlPic=

>  <r_epik_Ionization_Penalty>  (407) 
0.00176029

>  <r_epik_Ionization_Penalty_Charging>  (407) 
0.00176029

>  <r_epik_Ionization_Penalty_Neutral>  (407) 
0

>  <r_epik_State_Penalty>  (407) 
0.00119212

>  <r_epik_Charging_Adjusted_Penalty>  (407) 
0.00295241

>  <i_epik_Tot_Q>  (407) 
1

>  <i_epik_Tot_abs_Q>  (407) 
1

>  <s_lp_Force_Field>  (407) 
OPLS3e

>  <r_lp_Energy>  (407) 
52.0208

>  <b_lp_Chiralities_Consistent>  (407) 
1

>  <s_lp_Variant>  (407) 
107:0-1

>  <s_i_glide_gridfile>  (407) 
pfpi4k_grid

>  <i_i_glide_lignum>  (407) 
35

>  <i_i_glide_rotatable_bonds>  (407) 
1

>  <r_i_docking_score>  (407) 
-5.30274

>  <r_i_glide_ligand_efficiency>  (407) 
-0.311926

>  <r_i_glide_ligand_efficiency_sa>  (407) 
-0.802049

>  <r_i_glide_ligand_efficiency_ln>  (407) 
-1.38337

>  <r_i_glide_gscore>  (407) 
-5.30274

>  <r_i_glide_lipo>  (407) 
-1.7501

>  <r_i_glide_hbond>  (407) 
0

>  <r_i_glide_metal>  (407) 
-0

>  <r_i_glide_rewards>  (407) 
-2.1634

>  <r_i_glide_evdw>  (407) 
-24.6095

>  <r_i_glide_ecoul>  (407) 
-1.05841

>  <r_i_glide_erotb>  (407) 
0

>  <r_i_glide_esite>  (407) 
0

>  <r_i_glide_emodel>  (407) 
-30.5446

>  <r_i_glide_energy>  (407) 
-25.6679

>  <r_i_glide_einternal>  (407) 
4.15235

>  <r_i_glide_intrahb_reward>  (407) 
-0

>  <i_i_glide_confnum>  (407) 
4

>  <i_i_glide_posenum>  (407) 
3

>  <r_i_glide_eff_state_penalty>  (407) 
0

>  <ligand_id>  (407) 
107

>  <original_smiles>  (407) 
CCN1CCC2(CCCc3ccccc32)CC1

>  <smiles>  (407) 
[H]c1c([H])c([H])c2c(c1[H])C([H])([H])C([H])([H])C([H])([H])C21C([H])([H])C([H])([H])[N+]([H])(C([H])([H])C([H])([H])[H])C([H])([H])C1([H])[H]

$$$$
107:0:2
     RDKit          3D

 41 43  0  0  1  0  0  0  0  0999 V2000
  -12.9269  -12.9721  -10.3993 C   0  0  0  0  0  0  0  0  0  0  0  0
  -11.4120  -13.0650  -10.2016 C   0  0  0  0  0  0  0  0  0  0  0  0
  -10.8324  -11.8014   -9.7089 N   0  0  2  0  0  0  0  0  0  0  0  0
   -9.3514  -11.8013   -9.8402 C   0  0  0  0  0  0  0  0  0  0  0  0
   -8.7701  -10.4362   -9.4557 C   0  0  0  0  0  0  0  0  0  0  0  0
   -9.2055   -9.9854   -8.0301 C   0  0  1  0  0  0  0  0  0  0  0  0
   -8.4935  -10.8867   -6.9556 C   0  0  0  0  0  0  0  0  0  0  0  0
   -7.0002  -10.5836   -6.8289 C   0  0  0  0  0  0  0  0  0  0  0  0
   -6.7889   -9.1386   -6.3828 C   0  0  0  0  0  0  0  0  0  0  0  0
   -7.6710   -8.1226   -7.1167 C   0  0  0  0  0  0  0  0  0  0  0  0
   -7.3698   -6.7367   -6.9922 C   0  0  0  0  0  0  0  0  0  0  0  0
   -8.1671   -5.7618   -7.6082 C   0  0  0  0  0  0  0  0  0  0  0  0
   -9.2873   -6.1645   -8.3825 C   0  0  0  0  0  0  0  0  0  0  0  0
   -9.5754   -7.5113   -8.5342 C   0  0  0  0  0  0  0  0  0  0  0  0
   -8.8148   -8.5103   -7.8878 C   0  0  0  0  0  0  0  0  0  0  0  0
  -10.7560  -10.1351   -7.8917 C   0  0  0  0  0  0  0  0  0  0  0  0
  -11.2689  -11.4895   -8.3178 C   0  0  0  0  0  0  0  0  0  0  0  0
  -13.2949  -13.8989  -10.8320 H   0  0  0  0  0  0  0  0  0  0  0  0
  -13.1827  -12.1468  -11.0648 H   0  0  0  0  0  0  0  0  0  0  0  0
  -13.4673  -12.8307   -9.4637 H   0  0  0  0  0  0  0  0  0  0  0  0
  -11.1673  -13.8523   -9.4877 H   0  0  0  0  0  0  0  0  0  0  0  0
  -10.9426  -13.3441  -11.1461 H   0  0  0  0  0  0  0  0  0  0  0  0
   -8.9509  -12.6021   -9.2166 H   0  0  0  0  0  0  0  0  0  0  0  0
   -9.0308  -12.0325  -10.8566 H   0  0  0  0  0  0  0  0  0  0  0  0
   -7.6836  -10.4603   -9.5659 H   0  0  0  0  0  0  0  0  0  0  0  0
   -9.0938   -9.6922  -10.1907 H   0  0  0  0  0  0  0  0  0  0  0  0
   -8.9633  -10.7629   -5.9784 H   0  0  0  0  0  0  0  0  0  0  0  0
   -8.6088  -11.9467   -7.1490 H   0  0  0  0  0  0  0  0  0  0  0  0
   -6.5108  -11.2873   -6.1454 H   0  0  0  0  0  0  0  0  0  0  0  0
   -6.4824  -10.7373   -7.7718 H   0  0  0  0  0  0  0  0  0  0  0  0
   -7.0072   -9.0746   -5.3213 H   0  0  0  0  0  0  0  0  0  0  0  0
   -5.7498   -8.8673   -6.5054 H   0  0  0  0  0  0  0  0  0  0  0  0
   -6.4962   -6.4410   -6.4226 H   0  0  0  0  0  0  0  0  0  0  0  0
   -7.9066   -4.7088   -7.5409 H   0  0  0  0  0  0  0  0  0  0  0  0
   -9.9110   -5.4233   -8.8704 H   0  0  0  0  0  0  0  0  0  0  0  0
  -10.4328   -7.7237   -9.1602 H   0  0  0  0  0  0  0  0  0  0  0  0
  -11.1007   -9.9216   -6.8773 H   0  0  0  0  0  0  0  0  0  0  0  0
  -11.3346   -9.4736   -8.5363 H   0  0  0  0  0  0  0  0  0  0  0  0
  -12.3548  -11.4082   -8.2445 H   0  0  0  0  0  0  0  0  0  0  0  0
  -10.9479  -12.2735   -7.6184 H   0  0  0  0  0  0  0  0  0  0  0  0
  -11.1555  -11.0542  -10.3135 H   0  0  0  0  0  0  0  0  0  0  0  0
  1  2  1  0
  1 18  1  0
  1 19  1  0
  1 20  1  0
  2  3  1  0
  2 21  1  0
  2 22  1  0
  3 17  1  0
  3  4  1  0
  3 41  1  6
  4  5  1  0
  4 23  1  0
  4 24  1  0
  6  5  1  6
  5 25  1  0
  5 26  1  0
  6 15  1  0
  6  7  1  0
  6 16  1  0
  7  8  1  0
  7 27  1  0
  7 28  1  0
  8  9  1  0
  8 29  1  0
  8 30  1  0
  9 10  1  0
  9 31  1  0
  9 32  1  0
 10 15  2  0
 10 11  1  0
 11 12  2  0
 11 33  1  0
 12 13  1  0
 12 34  1  0
 13 14  2  0
 13 35  1  0
 14 15  1  0
 14 36  1  0
 16 17  1  0
 16 37  1  0
 16 38  1  0
 17 39  1  0
 17 40  1  0
M  CHG  1   3   1
M  END
>  <i_m_ct_stereo_status>  (408) 
1

>  <s_m_source_file>  (408) 
/var/tmp/pbs.5076255.sched01/tmp6w_bron9/120d4r_aq7a.sdf

>  <i_m_source_file_index>  (408) 
35

>  <i_lp_mmshare_version>  (408) 
48012

>  <i_f3d_flags>  (408) 
0

>  <s_epik_input>  (408) 
W0NIM11bQ0gyXU4oW0NIMl1bQ0gyXTEpW0NIMl1bQ0gyXUMxMmMzYyhbQ0gyXVtDSDJdW0NIMl0yKVtjSF1bY0hdW2NIXVtjSF0z

>  <s_epik_cmdline>  (408) 
J2VwaWtfcHl0aG9uJywgJy1waHQnLCAnMi4wJywgJy1waCcsICc3LjAnLCAnLXRuJywgJzgnLCAnLW1hJywgJzIwMCcsICctaW1hZScsICc8aW5maWxlLm1hZT4nLCAnLW9tYWUnLCAnPG91dGZpbGUubWFlPic=

>  <r_epik_Ionization_Penalty>  (408) 
0.00176029

>  <r_epik_Ionization_Penalty_Charging>  (408) 
0.00176029

>  <r_epik_Ionization_Penalty_Neutral>  (408) 
0

>  <r_epik_State_Penalty>  (408) 
0.00119212

>  <r_epik_Charging_Adjusted_Penalty>  (408) 
0.00295241

>  <i_epik_Tot_Q>  (408) 
1

>  <i_epik_Tot_abs_Q>  (408) 
1

>  <s_lp_Force_Field>  (408) 
OPLS3e

>  <r_lp_Energy>  (408) 
52.0208

>  <b_lp_Chiralities_Consistent>  (408) 
1

>  <s_lp_Variant>  (408) 
107:0-1

>  <s_i_glide_gridfile>  (408) 
pfpi4k_grid

>  <i_i_glide_lignum>  (408) 
35

>  <i_i_glide_rotatable_bonds>  (408) 
1

>  <r_i_docking_score>  (408) 
-4.67779

>  <r_i_glide_ligand_efficiency>  (408) 
-0.275164

>  <r_i_glide_ligand_efficiency_sa>  (408) 
-0.707524

>  <r_i_glide_ligand_efficiency_ln>  (408) 
-1.22033

>  <r_i_glide_gscore>  (408) 
-4.67779

>  <r_i_glide_lipo>  (408) 
-1.33569

>  <r_i_glide_hbond>  (408) 
0

>  <r_i_glide_metal>  (408) 
-0

>  <r_i_glide_rewards>  (408) 
-2.24673

>  <r_i_glide_evdw>  (408) 
-18.8302

>  <r_i_glide_ecoul>  (408) 
-1.02573

>  <r_i_glide_erotb>  (408) 
0

>  <r_i_glide_esite>  (408) 
0

>  <r_i_glide_emodel>  (408) 
-25.9004

>  <r_i_glide_energy>  (408) 
-19.8559

>  <r_i_glide_einternal>  (408) 
0.109918

>  <r_i_glide_intrahb_reward>  (408) 
-0

>  <i_i_glide_confnum>  (408) 
2

>  <i_i_glide_posenum>  (408) 
32

>  <r_i_glide_eff_state_penalty>  (408) 
0

>  <ligand_id>  (408) 
107

>  <original_smiles>  (408) 
CCN1CCC2(CCCc3ccccc32)CC1

>  <smiles>  (408) 
[H]c1c([H])c([H])c2c(c1[H])C([H])([H])C([H])([H])C([H])([H])C21C([H])([H])C([H])([H])[N+]([H])(C([H])([H])C([H])([H])[H])C([H])([H])C1([H])[H]

$$$$
110:0:0
     RDKit          3D

 63 70  0  0  1  0  0  0  0  0999 V2000
    0.3761   -7.3022    2.8125 C   0  0  0  0  0  0  0  0  0  0  0  0
    1.2628   -6.0668    3.0909 C   0  0  2  0  0  0  0  0  0  0  0  0
    2.2316   -5.6863    1.9553 C   0  0  0  0  0  0  0  0  0  0  0  0
    3.7293   -5.7375    2.4715 C   0  0  2  0  0  0  0  0  0  0  0  0
    3.4532   -6.9269    3.3936 C   0  0  0  0  0  0  0  0  0  0  0  0
    2.2699   -6.2586    4.2130 C   0  0  1  0  0  0  0  0  0  0  0  0
    2.5150   -4.8103    4.8343 C   0  0  0  0  0  0  0  0  0  0  0  0
    1.9306   -4.4800    5.8641 O   0  0  0  0  0  0  0  0  0  0  0  0
    3.4720   -3.7889    4.1067 C   0  0  2  0  0  0  0  0  0  0  0  0
    2.8898   -2.7888    2.9933 C   0  0  1  0  0  0  0  0  0  0  0  0
    1.5070   -3.0814    2.8800 O   0  0  0  0  0  0  0  0  0  0  0  0
    2.6757   -1.1836    2.9693 C   0  0  0  0  0  0  0  0  0  0  0  0
    3.8967   -0.2699    2.3873 C   0  0  1  0  0  0  0  0  0  0  0  0
    4.5712   -0.7852    3.4431 O   0  0  0  0  0  0  0  0  0  0  0  0
    5.1044   -1.8206    2.7446 C   0  0  2  0  0  0  0  0  0  0  0  0
    6.0486   -1.2069    2.0205 O   0  0  0  0  0  0  0  0  0  0  0  0
    5.1592   -0.4836    1.2904 C   0  0  1  0  0  0  0  0  0  0  0  0
    5.5319   -1.4631    0.0712 C   0  0  0  0  0  0  0  0  0  0  0  0
    5.7269   -3.0987    0.2533 C   0  0  2  0  0  0  0  0  0  0  0  0
    7.2360   -3.4140    0.3571 C   0  0  0  0  0  0  0  0  0  0  0  0
    5.3421   -3.6911   -0.9812 O   0  0  0  0  0  0  0  0  0  0  0  0
    4.0490   -3.4175   -1.4442 C   0  0  0  0  0  0  0  0  0  0  0  0
    3.0487   -3.4434   -0.4696 O   0  0  0  0  0  0  0  0  0  0  0  0
    3.0415   -2.4231    0.5355 C   0  0  0  0  0  0  0  0  0  0  0  0
    3.9339   -2.7869    1.8596 C   0  0  2  0  0  0  0  0  0  0  0  0
    4.9019   -3.9063    1.3897 C   0  0  2  0  0  0  0  0  0  0  0  0
    5.5170   -4.2224    2.6021 O   0  0  0  0  0  0  0  0  0  0  0  0
    4.4986   -4.7611    3.4537 C   0  0  2  0  0  0  0  0  0  0  0  0
    5.4818   -5.3145    4.5305 C   0  0  0  0  0  0  0  0  0  0  0  0
    4.5159   -5.4496    1.1752 C   0  0  1  0  0  0  0  0  0  0  0  0
    5.6850   -6.4268    0.9651 C   0  0  0  0  0  0  0  0  0  0  0  0
    0.9485   -8.2004    2.5823 H   0  0  0  0  0  0  0  0  0  0  0  0
   -0.2968   -7.1259    1.9722 H   0  0  0  0  0  0  0  0  0  0  0  0
   -0.2455   -7.5350    3.6784 H   0  0  0  0  0  0  0  0  0  0  0  0
    0.5675   -5.2613    3.3161 H   0  0  0  0  0  0  0  0  0  0  0  0
    2.1237   -6.4647    1.1964 H   0  0  0  0  0  0  0  0  0  0  0  0
    1.9553   -4.8044    1.3942 H   0  0  0  0  0  0  0  0  0  0  0  0
    3.1255   -7.8052    2.8355 H   0  0  0  0  0  0  0  0  0  0  0  0
    4.2613   -7.3129    4.0079 H   0  0  0  0  0  0  0  0  0  0  0  0
    1.8804   -6.9198    4.9833 H   0  0  0  0  0  0  0  0  0  0  0  0
    3.9715   -3.1946    4.8738 H   0  0  0  0  0  0  0  0  0  0  0  0
    1.1228   -2.4849    2.2514 H   0  0  0  0  0  0  0  0  0  0  0  0
    1.8211   -0.8859    2.3546 H   0  0  0  0  0  0  0  0  0  0  0  0
    2.3825   -0.8527    3.9711 H   0  0  0  0  0  0  0  0  0  0  0  0
    3.7091    0.7881    2.5731 H   0  0  0  0  0  0  0  0  0  0  0  0
    5.6407   -2.2992    3.5626 H   0  0  0  0  0  0  0  0  0  0  0  0
    5.5880    0.4946    1.0675 H   0  0  0  0  0  0  0  0  0  0  0  0
    4.9287   -1.1620   -0.7790 H   0  0  0  0  0  0  0  0  0  0  0  0
    6.4973   -1.1031   -0.2845 H   0  0  0  0  0  0  0  0  0  0  0  0
    7.6641   -3.0247    1.2805 H   0  0  0  0  0  0  0  0  0  0  0  0
    7.7924   -2.9802   -0.4746 H   0  0  0  0  0  0  0  0  0  0  0  0
    7.4410   -4.4812    0.3436 H   0  0  0  0  0  0  0  0  0  0  0  0
    3.9933   -2.5061   -2.0388 H   0  0  0  0  0  0  0  0  0  0  0  0
    3.8286   -4.2290   -2.1311 H   0  0  0  0  0  0  0  0  0  0  0  0
    3.0907   -1.4149    0.1307 H   0  0  0  0  0  0  0  0  0  0  0  0
    1.9768   -2.4363    0.7310 H   0  0  0  0  0  0  0  0  0  0  0  0
    4.9897   -5.7686    5.3889 H   0  0  0  0  0  0  0  0  0  0  0  0
    6.0979   -4.5076    4.9271 H   0  0  0  0  0  0  0  0  0  0  0  0
    6.1614   -6.0524    4.1067 H   0  0  0  0  0  0  0  0  0  0  0  0
    3.9005   -5.5692    0.2853 H   0  0  0  0  0  0  0  0  0  0  0  0
    6.4475   -6.3630    1.7402 H   0  0  0  0  0  0  0  0  0  0  0  0
    6.1647   -6.2396    0.0104 H   0  0  0  0  0  0  0  0  0  0  0  0
    5.3282   -7.4546    0.9307 H   0  0  0  0  0  0  0  0  0  0  0  0
  1  2  1  0
  1 32  1  0
  1 33  1  0
  1 34  1  0
  2  6  1  0
  2  3  1  0
  2 35  1  1
  4  3  1  6
  3 36  1  0
  3 37  1  0
  4 28  1  0
  4 30  1  0
  4  5  1  0
  5  6  1  0
  5 38  1  0
  5 39  1  0
  6  7  1  0
  6 40  1  1
  7  8  2  0
  7  9  1  0
  9 28  1  0
  9 10  1  0
  9 41  1  1
 10 25  1  0
 10 11  1  6
 10 12  1  0
 11 42  1  0
 12 13  1  0
 12 43  1  0
 12 44  1  0
 13 17  1  0
 13 14  1  0
 13 45  1  1
 14 15  1  0
 15 25  1  0
 15 16  1  0
 15 46  1  1
 16 17  1  0
 17 18  1  0
 17 47  1  6
 18 19  1  0
 18 48  1  0
 18 49  1  0
 19 26  1  0
 19 20  1  1
 19 21  1  0
 20 50  1  0
 20 51  1  0
 20 52  1  0
 21 22  1  0
 22 23  1  0
 22 53  1  0
 22 54  1  0
 23 24  1  0
 25 24  1  6
 24 55  1  0
 24 56  1  0
 25 26  1  0
 26 27  1  1
 26 30  1  0
 27 28  1  0
 28 29  1  1
 29 57  1  0
 29 58  1  0
 29 59  1  0
 30 31  1  0
 30 60  1  6
 31 61  1  0
 31 62  1  0
 31 63  1  0
M  END
>  <i_m_ct_stereo_status>  (409) 
1

>  <s_m_source_file>  (409) 
/var/tmp/pbs.5076255.sched01/tmp6w_bron9/120d4r_aq7a.sdf

>  <i_m_source_file_index>  (409) 
39

>  <i_lp_mmshare_version>  (409) 
48012

>  <i_f3d_flags>  (409) 
0

>  <s_epik_input>  (409) 
W0NIM11bQ0BIXShbQ0gyXTEpW0NAQEhdKFtDSDJdMilDKD1PKVtDQEBIXShbQ0BdMyhbQ0BdMTI0KVtDSDNdKVtDQF01KFtPSF0pW0NAXTY3W0NAQF0oTzMpKFtDQEhdNFtDSDNdKVtDQEBdKFtDSDNdKShPW0NIMl1PW0NIMl03KVtDSDJdW0NASF04W0NAQEhdKFtDSDJdNSlPW0NAQEhdNk84

>  <s_epik_cmdline>  (409) 
J2VwaWtfcHl0aG9uJywgJy1waHQnLCAnMi4wJywgJy1waCcsICc3LjAnLCAnLXRuJywgJzgnLCAnLW1hJywgJzIwMCcsICctaW1hZScsICc8aW5maWxlLm1hZT4nLCAnLW9tYWUnLCAnPG91dGZpbGUubWFlPic=

>  <r_lp_tautomer_probability>  (409) 
1

>  <r_epik_Ionization_Penalty>  (409) 
8.74714e-07

>  <r_epik_Ionization_Penalty_Charging>  (409) 
0

>  <r_epik_Ionization_Penalty_Neutral>  (409) 
8.74714e-07

>  <r_epik_State_Penalty>  (409) 
-0

>  <r_epik_Charging_Adjusted_Penalty>  (409) 
0

>  <i_epik_Tot_Q>  (409) 
0

>  <i_epik_Tot_abs_Q>  (409) 
0

>  <s_epik_Chemistry_Notes>  (409) 
This compound contains an acetal/aminal-like group ( X-CH(R)-Y where X, Y are N, S, or O) that may be acid/base labile, releasing an aldehyde.

>  <s_lp_Force_Field>  (409) 
OPLS3e

>  <r_lp_Energy>  (409) 
326.415

>  <b_lp_Chiralities_Consistent>  (409) 
1

>  <s_lp_Variant>  (409) 
110:0-1

>  <s_i_glide_gridfile>  (409) 
pfpi4k_grid

>  <i_i_glide_lignum>  (409) 
39

>  <i_i_glide_rotatable_bonds>  (409) 
1

>  <r_i_docking_score>  (409) 
-2.78633

>  <r_i_glide_ligand_efficiency>  (409) 
-0.0898815

>  <r_i_glide_ligand_efficiency_sa>  (409) 
-0.282352

>  <r_i_glide_ligand_efficiency_ln>  (409) 
-0.628402

>  <r_i_glide_gscore>  (409) 
-2.78633

>  <r_i_glide_lipo>  (409) 
-0.575013

>  <r_i_glide_hbond>  (409) 
0

>  <r_i_glide_metal>  (409) 
-0

>  <r_i_glide_rewards>  (409) 
-0.572157

>  <r_i_glide_evdw>  (409) 
-26.1233

>  <r_i_glide_ecoul>  (409) 
-2.1229

>  <r_i_glide_erotb>  (409) 
0

>  <r_i_glide_esite>  (409) 
-0.0145557

>  <r_i_glide_emodel>  (409) 
-32.9859

>  <r_i_glide_energy>  (409) 
-28.2462

>  <r_i_glide_einternal>  (409) 
0.0553524

>  <r_i_glide_intrahb_reward>  (409) 
-0

>  <i_i_glide_confnum>  (409) 
2

>  <i_i_glide_posenum>  (409) 
13

>  <r_i_glide_eff_state_penalty>  (409) 
0

>  <ligand_id>  (409) 
110

>  <original_smiles>  (409) 
CC1CC23CC1C(=O)C1C4(O)CC5OC6OC5CC5(C)OCOCC64C5(OC12C)C3C

>  <smiles>  (409) 
[H]OC12C([H])([H])C3([H])OC4([H])OC3([H])C([H])([H])C3(C([H])([H])[H])OC([H])([H])OC([H])([H])C41C31OC3(C([H])([H])[H])C2([H])C(=O)C2([H])C([H])([H])C3(C([H])([H])C2([H])C([H])([H])[H])C1([H])C([H])([H])[H]

$$$$
110:0:1
     RDKit          3D

 63 70  0  0  1  0  0  0  0  0999 V2000
    0.4453   -7.3826    2.7825 C   0  0  0  0  0  0  0  0  0  0  0  0
    1.3106   -6.1350    3.0726 C   0  0  2  0  0  0  0  0  0  0  0  0
    2.2733   -5.7296    1.9384 C   0  0  0  0  0  0  0  0  0  0  0  0
    3.7738   -5.7682    2.4516 C   0  0  2  0  0  0  0  0  0  0  0  0
    3.5139   -6.9702    3.3628 C   0  0  0  0  0  0  0  0  0  0  0  0
    2.3245   -6.3248    4.1902 C   0  0  1  0  0  0  0  0  0  0  0  0
    2.5534   -4.8818    4.8285 C   0  0  0  0  0  0  0  0  0  0  0  0
    1.9617   -4.5676    5.8570 O   0  0  0  0  0  0  0  0  0  0  0  0
    3.4965   -3.8385    4.1070 C   0  0  2  0  0  0  0  0  0  0  0  0
    2.8992   -2.8381    2.9999 C   0  0  1  0  0  0  0  0  0  0  0  0
    1.5204   -3.1363    2.8824 O   0  0  0  0  0  0  0  0  0  0  0  0
    2.6580   -1.2383    2.9878 C   0  0  0  0  0  0  0  0  0  0  0  0
    3.8624   -0.3010    2.4093 C   0  0  1  0  0  0  0  0  0  0  0  0
    4.5482   -0.8131    3.4605 O   0  0  0  0  0  0  0  0  0  0  0  0
    5.0967   -1.8375    2.7554 C   0  0  2  0  0  0  0  0  0  0  0  0
    6.0303   -1.2025    2.0353 O   0  0  0  0  0  0  0  0  0  0  0  0
    5.1287   -0.4874    1.3092 C   0  0  1  0  0  0  0  0  0  0  0  0
    5.5129   -1.4525    0.0827 C   0  0  0  0  0  0  0  0  0  0  0  0
    5.7323   -3.0861    0.2517 C   0  0  2  0  0  0  0  0  0  0  0  0
    7.2450   -3.3808    0.3499 C   0  0  0  0  0  0  0  0  0  0  0  0
    5.3519   -3.6746   -0.9865 O   0  0  0  0  0  0  0  0  0  0  0  0
    4.0547   -3.4152   -1.4440 C   0  0  0  0  0  0  0  0  0  0  0  0
    3.0570   -3.4622   -0.4701 O   0  0  0  0  0  0  0  0  0  0  0  0
    3.0339   -2.4508    0.5443 C   0  0  0  0  0  0  0  0  0  0  0  0
    3.9390   -2.8117    1.8640 C   0  0  2  0  0  0  0  0  0  0  0  0
    4.9209   -3.9145    1.3837 C   0  0  2  0  0  0  0  0  0  0  0  0
    5.5435   -4.2334    2.5921 O   0  0  0  0  0  0  0  0  0  0  0  0
    4.5332   -4.7906    3.4415 C   0  0  2  0  0  0  0  0  0  0  0  0
    5.5255   -5.3407    4.5117 C   0  0  0  0  0  0  0  0  0  0  0  0
    4.5552   -5.4627    1.1576 C   0  0  1  0  0  0  0  0  0  0  0  0
    5.7358   -6.4231    0.9376 C   0  0  0  0  0  0  0  0  0  0  0  0
    1.0310   -8.2709    2.5444 H   0  0  0  0  0  0  0  0  0  0  0  0
   -0.2326   -7.2119    1.9454 H   0  0  0  0  0  0  0  0  0  0  0  0
   -0.1708   -7.6338    3.6474 H   0  0  0  0  0  0  0  0  0  0  0  0
    0.5985   -5.3485    3.3142 H   0  0  0  0  0  0  0  0  0  0  0  0
    2.1787   -6.5097    1.1786 H   0  0  0  0  0  0  0  0  0  0  0  0
    1.9864   -4.8538    1.3691 H   0  0  0  0  0  0  0  0  0  0  0  0
    3.1997   -7.8487    2.7985 H   0  0  0  0  0  0  0  0  0  0  0  0
    4.3295   -7.3506    3.9733 H   0  0  0  0  0  0  0  0  0  0  0  0
    1.9460   -7.0008    4.9545 H   0  0  0  0  0  0  0  0  0  0  0  0
    3.9894   -3.2462    4.8787 H   0  0  0  0  0  0  0  0  0  0  0  0
    1.4286   -4.0556    2.6861 H   0  0  0  0  0  0  0  0  0  0  0  0
    1.7966   -0.9587    2.3736 H   0  0  0  0  0  0  0  0  0  0  0  0
    2.3574   -0.9210    3.9903 H   0  0  0  0  0  0  0  0  0  0  0  0
    3.6576    0.7504    2.6022 H   0  0  0  0  0  0  0  0  0  0  0  0
    5.6387   -2.3147    3.5696 H   0  0  0  0  0  0  0  0  0  0  0  0
    5.5426    0.4976    1.0959 H   0  0  0  0  0  0  0  0  0  0  0  0
    4.9052   -1.1522   -0.7645 H   0  0  0  0  0  0  0  0  0  0  0  0
    6.4734   -1.0760   -0.2700 H   0  0  0  0  0  0  0  0  0  0  0  0
    7.6669   -2.9914    1.2752 H   0  0  0  0  0  0  0  0  0  0  0  0
    7.7932   -2.9304   -0.4775 H   0  0  0  0  0  0  0  0  0  0  0  0
    7.4636   -4.4451    0.3287 H   0  0  0  0  0  0  0  0  0  0  0  0
    3.9854   -2.4989   -2.0304 H   0  0  0  0  0  0  0  0  0  0  0  0
    3.8450   -4.2236   -2.1377 H   0  0  0  0  0  0  0  0  0  0  0  0
    3.0724   -1.4387    0.1465 H   0  0  0  0  0  0  0  0  0  0  0  0
    1.9715   -2.4766    0.7380 H   0  0  0  0  0  0  0  0  0  0  0  0
    5.0398   -5.8085    5.3680 H   0  0  0  0  0  0  0  0  0  0  0  0
    6.1300   -4.5284    4.9152 H   0  0  0  0  0  0  0  0  0  0  0  0
    6.2147   -6.0667    4.0804 H   0  0  0  0  0  0  0  0  0  0  0  0
    3.9392   -5.5819    0.2667 H   0  0  0  0  0  0  0  0  0  0  0  0
    6.4994   -6.3524    1.7107 H   0  0  0  0  0  0  0  0  0  0  0  0
    6.2096   -6.2252   -0.0174 H   0  0  0  0  0  0  0  0  0  0  0  0
    5.3907   -7.4550    0.9022 H   0  0  0  0  0  0  0  0  0  0  0  0
  1  2  1  0
  1 32  1  0
  1 33  1  0
  1 34  1  0
  2  6  1  0
  2  3  1  0
  2 35  1  1
  4  3  1  6
  3 36  1  0
  3 37  1  0
  4 28  1  0
  4 30  1  0
  4  5  1  0
  5  6  1  0
  5 38  1  0
  5 39  1  0
  6  7  1  0
  6 40  1  1
  7  8  2  0
  7  9  1  0
  9 28  1  0
  9 10  1  0
  9 41  1  1
 10 25  1  0
 10 11  1  6
 10 12  1  0
 11 42  1  0
 12 13  1  0
 12 43  1  0
 12 44  1  0
 13 17  1  0
 13 14  1  0
 13 45  1  1
 14 15  1  0
 15 25  1  0
 15 16  1  0
 15 46  1  1
 16 17  1  0
 17 18  1  0
 17 47  1  6
 18 19  1  0
 18 48  1  0
 18 49  1  0
 19 26  1  0
 19 20  1  1
 19 21  1  0
 20 50  1  0
 20 51  1  0
 20 52  1  0
 21 22  1  0
 22 23  1  0
 22 53  1  0
 22 54  1  0
 23 24  1  0
 25 24  1  6
 24 55  1  0
 24 56  1  0
 25 26  1  0
 26 27  1  1
 26 30  1  0
 27 28  1  0
 28 29  1  1
 29 57  1  0
 29 58  1  0
 29 59  1  0
 30 31  1  0
 30 60  1  6
 31 61  1  0
 31 62  1  0
 31 63  1  0
M  END
>  <i_m_ct_stereo_status>  (410) 
1

>  <s_m_source_file>  (410) 
/var/tmp/pbs.5076255.sched01/tmp6w_bron9/120d4r_aq7a.sdf

>  <i_m_source_file_index>  (410) 
39

>  <i_lp_mmshare_version>  (410) 
48012

>  <i_f3d_flags>  (410) 
0

>  <s_epik_input>  (410) 
W0NIM11bQ0BIXShbQ0gyXTEpW0NAQEhdKFtDSDJdMilDKD1PKVtDQEBIXShbQ0BdMyhbQ0BdMTI0KVtDSDNdKVtDQF01KFtPSF0pW0NAXTY3W0NAQF0oTzMpKFtDQEhdNFtDSDNdKVtDQEBdKFtDSDNdKShPW0NIMl1PW0NIMl03KVtDSDJdW0NASF04W0NAQEhdKFtDSDJdNSlPW0NAQEhdNk84

>  <s_epik_cmdline>  (410) 
J2VwaWtfcHl0aG9uJywgJy1waHQnLCAnMi4wJywgJy1waCcsICc3LjAnLCAnLXRuJywgJzgnLCAnLW1hJywgJzIwMCcsICctaW1hZScsICc8aW5maWxlLm1hZT4nLCAnLW9tYWUnLCAnPG91dGZpbGUubWFlPic=

>  <r_lp_tautomer_probability>  (410) 
1

>  <r_epik_Ionization_Penalty>  (410) 
8.74714e-07

>  <r_epik_Ionization_Penalty_Charging>  (410) 
0

>  <r_epik_Ionization_Penalty_Neutral>  (410) 
8.74714e-07

>  <r_epik_State_Penalty>  (410) 
-0

>  <r_epik_Charging_Adjusted_Penalty>  (410) 
0

>  <i_epik_Tot_Q>  (410) 
0

>  <i_epik_Tot_abs_Q>  (410) 
0

>  <s_epik_Chemistry_Notes>  (410) 
This compound contains an acetal/aminal-like group ( X-CH(R)-Y where X, Y are N, S, or O) that may be acid/base labile, releasing an aldehyde.

>  <s_lp_Force_Field>  (410) 
OPLS3e

>  <r_lp_Energy>  (410) 
326.415

>  <b_lp_Chiralities_Consistent>  (410) 
1

>  <s_lp_Variant>  (410) 
110:0-1

>  <s_i_glide_gridfile>  (410) 
pfpi4k_grid

>  <i_i_glide_lignum>  (410) 
39

>  <i_i_glide_rotatable_bonds>  (410) 
1

>  <r_i_docking_score>  (410) 
-2.42331

>  <r_i_glide_ligand_efficiency>  (410) 
-0.0781712

>  <r_i_glide_ligand_efficiency_sa>  (410) 
-0.245566

>  <r_i_glide_ligand_efficiency_ln>  (410) 
-0.54653

>  <r_i_glide_gscore>  (410) 
-2.42331

>  <r_i_glide_lipo>  (410) 
-0.582131

>  <r_i_glide_hbond>  (410) 
0

>  <r_i_glide_metal>  (410) 
-0

>  <r_i_glide_rewards>  (410) 
-0.570459

>  <r_i_glide_evdw>  (410) 
-25.9875

>  <r_i_glide_ecoul>  (410) 
0.289204

>  <r_i_glide_erotb>  (410) 
0

>  <r_i_glide_esite>  (410) 
-0.0147257

>  <r_i_glide_emodel>  (410) 
-29.8131

>  <r_i_glide_energy>  (410) 
-25.6983

>  <r_i_glide_einternal>  (410) 
0.0155695

>  <r_i_glide_intrahb_reward>  (410) 
-0

>  <i_i_glide_confnum>  (410) 
1

>  <i_i_glide_posenum>  (410) 
35

>  <r_i_glide_eff_state_penalty>  (410) 
0

>  <ligand_id>  (410) 
110

>  <original_smiles>  (410) 
CC1CC23CC1C(=O)C1C4(O)CC5OC6OC5CC5(C)OCOCC64C5(OC12C)C3C

>  <smiles>  (410) 
[H]OC12C([H])([H])C3([H])OC4([H])OC3([H])C([H])([H])C3(C([H])([H])[H])OC([H])([H])OC([H])([H])C41C31OC3(C([H])([H])[H])C2([H])C(=O)C2([H])C([H])([H])C3(C([H])([H])C2([H])C([H])([H])[H])C1([H])C([H])([H])[H]

$$$$
110:0:2
     RDKit          3D

 63 70  0  0  1  0  0  0  0  0999 V2000
    0.1005   -7.1747    3.3256 C   0  0  0  0  0  0  0  0  0  0  0  0
    1.0888   -6.0066    3.5356 C   0  0  2  0  0  0  0  0  0  0  0  0
    1.8867   -5.5905    2.2848 C   0  0  0  0  0  0  0  0  0  0  0  0
    3.4419   -5.7484    2.5401 C   0  0  2  0  0  0  0  0  0  0  0  0
    3.2461   -6.9884    3.4141 C   0  0  0  0  0  0  0  0  0  0  0  0
    2.2511   -6.3268    4.4598 C   0  0  1  0  0  0  0  0  0  0  0  0
    2.6770   -4.9433    5.1241 C   0  0  0  0  0  0  0  0  0  0  0  0
    2.2770   -4.6512    6.2496 O   0  0  0  0  0  0  0  0  0  0  0  0
    3.5621   -3.9154    4.3186 C   0  0  2  0  0  0  0  0  0  0  0  0
    2.8658   -2.8104    3.3859 C   0  0  1  0  0  0  0  0  0  0  0  0
    1.4631   -3.0234    3.4596 O   0  0  0  0  0  0  0  0  0  0  0  0
    2.7460   -1.1998    3.5055 C   0  0  0  0  0  0  0  0  0  0  0  0
    3.9074   -0.3004    2.7932 C   0  0  1  0  0  0  0  0  0  0  0  0
    4.7109   -0.9234    3.6902 O   0  0  0  0  0  0  0  0  0  0  0  0
    5.0683   -1.9269    2.8467 C   0  0  2  0  0  0  0  0  0  0  0  0
    5.9181   -1.3062    2.0176 O   0  0  0  0  0  0  0  0  0  0  0  0
    4.9652   -0.4911    1.4925 C   0  0  1  0  0  0  0  0  0  0  0  0
    5.0785   -1.3893    0.1661 C   0  0  0  0  0  0  0  0  0  0  0  0
    5.2048   -3.0402    0.2024 C   0  0  2  0  0  0  0  0  0  0  0  0
    6.6907   -3.4310    0.0385 C   0  0  0  0  0  0  0  0  0  0  0  0
    4.5916   -3.5165   -0.9921 O   0  0  0  0  0  0  0  0  0  0  0  0
    3.2572   -3.1467   -1.2102 C   0  0  0  0  0  0  0  0  0  0  0  0
    2.4407   -3.2199   -0.0841 O   0  0  0  0  0  0  0  0  0  0  0  0
    2.6469   -2.2697    0.9709 C   0  0  0  0  0  0  0  0  0  0  0  0
    3.7161   -2.7709    2.1021 C   0  0  2  0  0  0  0  0  0  0  0  0
    4.5304   -3.8959    1.4051 C   0  0  2  0  0  0  0  0  0  0  0  0
    5.3144   -4.3299    2.4748 O   0  0  0  0  0  0  0  0  0  0  0  0
    4.4134   -4.8830    3.4436 C   0  0  2  0  0  0  0  0  0  0  0  0
    5.5211   -5.5608    4.3060 C   0  0  0  0  0  0  0  0  0  0  0  0
    4.0226   -5.4014    1.1525 C   0  0  1  0  0  0  0  0  0  0  0  0
    5.0759   -6.4175    0.6808 C   0  0  0  0  0  0  0  0  0  0  0  0
    0.5763   -8.0788    2.9455 H   0  0  0  0  0  0  0  0  0  0  0  0
   -0.6886   -6.9079    2.6226 H   0  0  0  0  0  0  0  0  0  0  0  0
   -0.3859   -7.4424    4.2650 H   0  0  0  0  0  0  0  0  0  0  0  0
    0.4845   -5.1881    3.9225 H   0  0  0  0  0  0  0  0  0  0  0  0
    1.6101   -6.3011    1.5026 H   0  0  0  0  0  0  0  0  0  0  0  0
    1.5791   -4.6570    1.8375 H   0  0  0  0  0  0  0  0  0  0  0  0
    2.7829   -7.8058    2.8597 H   0  0  0  0  0  0  0  0  0  0  0  0
    4.1186   -7.4572    3.8595 H   0  0  0  0  0  0  0  0  0  0  0  0
    1.9535   -7.0268    5.2382 H   0  0  0  0  0  0  0  0  0  0  0  0
    4.2133   -3.4077    5.0318 H   0  0  0  0  0  0  0  0  0  0  0  0
    1.1829   -2.8128    4.3385 H   0  0  0  0  0  0  0  0  0  0  0  0
    1.8211   -0.8210    3.0600 H   0  0  0  0  0  0  0  0  0  0  0  0
    2.6363   -0.9278    4.5613 H   0  0  0  0  0  0  0  0  0  0  0  0
    3.8125    0.7477    3.0758 H   0  0  0  0  0  0  0  0  0  0  0  0
    5.6997   -2.4925    3.5297 H   0  0  0  0  0  0  0  0  0  0  0  0
    5.4091    0.4775    1.2680 H   0  0  0  0  0  0  0  0  0  0  0  0
    4.3653   -0.9953   -0.5506 H   0  0  0  0  0  0  0  0  0  0  0  0
    5.9913   -1.0454   -0.3227 H   0  0  0  0  0  0  0  0  0  0  0  0
    7.2849   -3.1240    0.8991 H   0  0  0  0  0  0  0  0  0  0  0  0
    7.1267   -2.9657   -0.8452 H   0  0  0  0  0  0  0  0  0  0  0  0
    6.8233   -4.5040   -0.0734 H   0  0  0  0  0  0  0  0  0  0  0  0
    3.1536   -2.1844   -1.7096 H   0  0  0  0  0  0  0  0  0  0  0  0
    2.8652   -3.8703   -1.9187 H   0  0  0  0  0  0  0  0  0  0  0  0
    2.6921   -1.2395    0.6282 H   0  0  0  0  0  0  0  0  0  0  0  0
    1.6259   -2.2364    1.3248 H   0  0  0  0  0  0  0  0  0  0  0  0
    5.1474   -6.0553    5.2021 H   0  0  0  0  0  0  0  0  0  0  0  0
    6.2368   -4.8147    4.6513 H   0  0  0  0  0  0  0  0  0  0  0  0
    6.0811   -6.2961    3.7279 H   0  0  0  0  0  0  0  0  0  0  0  0
    3.2644   -5.4214    0.3721 H   0  0  0  0  0  0  0  0  0  0  0  0
    5.9592   -6.4428    1.3163 H   0  0  0  0  0  0  0  0  0  0  0  0
    5.3970   -6.1904   -0.3326 H   0  0  0  0  0  0  0  0  0  0  0  0
    4.6564   -7.4218    0.6576 H   0  0  0  0  0  0  0  0  0  0  0  0
  1  2  1  0
  1 32  1  0
  1 33  1  0
  1 34  1  0
  2  6  1  0
  2  3  1  0
  2 35  1  1
  4  3  1  6
  3 36  1  0
  3 37  1  0
  4 28  1  0
  4 30  1  0
  4  5  1  0
  5  6  1  0
  5 38  1  0
  5 39  1  0
  6  7  1  0
  6 40  1  1
  7  8  2  0
  7  9  1  0
  9 28  1  0
  9 10  1  0
  9 41  1  1
 10 25  1  0
 10 11  1  6
 10 12  1  0
 11 42  1  0
 12 13  1  0
 12 43  1  0
 12 44  1  0
 13 17  1  0
 13 14  1  0
 13 45  1  1
 14 15  1  0
 15 25  1  0
 15 16  1  0
 15 46  1  1
 16 17  1  0
 17 18  1  0
 17 47  1  6
 18 19  1  0
 18 48  1  0
 18 49  1  0
 19 26  1  0
 19 20  1  6
 19 21  1  0
 20 50  1  0
 20 51  1  0
 20 52  1  0
 21 22  1  0
 22 23  1  0
 22 53  1  0
 22 54  1  0
 23 24  1  0
 25 24  1  6
 24 55  1  0
 24 56  1  0
 25 26  1  0
 26 27  1  1
 26 30  1  0
 27 28  1  0
 28 29  1  1
 29 57  1  0
 29 58  1  0
 29 59  1  0
 30 31  1  0
 30 60  1  6
 31 61  1  0
 31 62  1  0
 31 63  1  0
M  END
>  <i_m_ct_stereo_status>  (411) 
1

>  <s_m_source_file>  (411) 
/var/tmp/pbs.5076255.sched01/tmp6w_bron9/120d4r_aq7a.sdf

>  <i_m_source_file_index>  (411) 
39

>  <i_lp_mmshare_version>  (411) 
48012

>  <i_f3d_flags>  (411) 
0

>  <s_epik_input>  (411) 
W0NIM11bQ0BIXShbQ0gyXTEpW0NAQEhdKFtDSDJdMilDKD1PKVtDQEBIXShbQ0BdMyhbQ0BdMTI0KVtDSDNdKVtDQF01KFtPSF0pW0NAXTY3W0NAQF0oTzMpKFtDQEhdNFtDSDNdKVtDQEBdKFtDSDNdKShPW0NIMl1PW0NIMl03KVtDSDJdW0NASF04W0NAQEhdKFtDSDJdNSlPW0NAQEhdNk84

>  <s_epik_cmdline>  (411) 
J2VwaWtfcHl0aG9uJywgJy1waHQnLCAnMi4wJywgJy1waCcsICc3LjAnLCAnLXRuJywgJzgnLCAnLW1hJywgJzIwMCcsICctaW1hZScsICc8aW5maWxlLm1hZT4nLCAnLW9tYWUnLCAnPG91dGZpbGUubWFlPic=

>  <r_lp_tautomer_probability>  (411) 
1

>  <r_epik_Ionization_Penalty>  (411) 
8.74714e-07

>  <r_epik_Ionization_Penalty_Charging>  (411) 
0

>  <r_epik_Ionization_Penalty_Neutral>  (411) 
8.74714e-07

>  <r_epik_State_Penalty>  (411) 
-0

>  <r_epik_Charging_Adjusted_Penalty>  (411) 
0

>  <i_epik_Tot_Q>  (411) 
0

>  <i_epik_Tot_abs_Q>  (411) 
0

>  <s_epik_Chemistry_Notes>  (411) 
This compound contains an acetal/aminal-like group ( X-CH(R)-Y where X, Y are N, S, or O) that may be acid/base labile, releasing an aldehyde.

>  <s_lp_Force_Field>  (411) 
OPLS3e

>  <r_lp_Energy>  (411) 
326.415

>  <b_lp_Chiralities_Consistent>  (411) 
1

>  <s_lp_Variant>  (411) 
110:0-1

>  <s_i_glide_gridfile>  (411) 
pfpi4k_grid

>  <i_i_glide_lignum>  (411) 
39

>  <i_i_glide_rotatable_bonds>  (411) 
1

>  <r_i_docking_score>  (411) 
-2.38527

>  <r_i_glide_ligand_efficiency>  (411) 
-0.0769442

>  <r_i_glide_ligand_efficiency_sa>  (411) 
-0.241711

>  <r_i_glide_ligand_efficiency_ln>  (411) 
-0.537951

>  <r_i_glide_gscore>  (411) 
-2.38527

>  <r_i_glide_lipo>  (411) 
-0.548086

>  <r_i_glide_hbond>  (411) 
0

>  <r_i_glide_metal>  (411) 
-0

>  <r_i_glide_rewards>  (411) 
-0.599481

>  <r_i_glide_evdw>  (411) 
-25.7362

>  <r_i_glide_ecoul>  (411) 
0.327373

>  <r_i_glide_erotb>  (411) 
0

>  <r_i_glide_esite>  (411) 
0

>  <r_i_glide_emodel>  (411) 
-29.4703

>  <r_i_glide_energy>  (411) 
-25.4088

>  <r_i_glide_einternal>  (411) 
0.0045082

>  <r_i_glide_intrahb_reward>  (411) 
-0

>  <i_i_glide_confnum>  (411) 
1

>  <i_i_glide_posenum>  (411) 
3

>  <r_i_glide_eff_state_penalty>  (411) 
0

>  <ligand_id>  (411) 
110

>  <original_smiles>  (411) 
CC1CC23CC1C(=O)C1C4(O)CC5OC6OC5CC5(C)OCOCC64C5(OC12C)C3C

>  <smiles>  (411) 
[H]OC12C([H])([H])C3([H])OC4([H])OC3([H])C([H])([H])C3(C([H])([H])[H])OC([H])([H])OC([H])([H])C41C31OC3(C([H])([H])[H])C2([H])C(=O)C2([H])C([H])([H])C3(C([H])([H])C2([H])C([H])([H])[H])C1([H])C([H])([H])[H]

$$$$
